MODEL 1
REMARK VINA RESULT:      -7.3      0.000      0.000
REMARK  Name = 
REMARK  6 active torsions:
REMARK  status: ('A' for Active; 'I' for Inactive)
REMARK    1  A    between atoms: C_10  and  C_11
REMARK    2  A    between atoms: C_11  and  O_12
REMARK    3  A    between atoms: O_12  and  C_13
REMARK    4  A    between atoms: C_13  and  C_14
REMARK    5  A    between atoms: C_19  and  C_20
REMARK    6  A    between atoms: C_19  and  C_21
REMARK                            x       y       z     vdW  Elec       q    Type
REMARK                         _______ _______ _______ _____ _____    ______ ____
ROOT
ATOM      1  C   UNL     1       7.017   4.469  19.032  0.00  0.00    +0.000 C 
ATOM      2  C   UNL     1       6.091   5.428  18.827  0.00  0.00    +0.000 C 
ATOM      3  O   UNL     1       6.490   6.532  18.071  0.00  0.00    +0.000 OA
ATOM      4  C   UNL     1       6.191   6.259  16.767  0.00  0.00    +0.000 C 
ATOM      5  O   UNL     1       6.990   6.245  15.839  0.00  0.00    +0.000 OA
ATOM      6  C   UNL     1       4.710   6.229  16.615  0.00  0.00    +0.000 C 
ATOM      7  C   UNL     1       3.992   4.998  17.228  0.00  0.00    +0.000 C 
ATOM      8  C   UNL     1       4.249   3.891  18.607  0.00  0.00    +0.000 C 
ATOM      9  C   UNL     1       4.585   5.219  19.245  0.00  0.00    +0.000 C 
ATOM     10  C   UNL     1       3.031   5.552  18.289  0.00  0.00    +0.000 C 
ATOM     11  C   UNL     1       1.769   4.689  17.711  0.00  0.00    +0.000 C 
ATOM     12  C   UNL     1       1.280   3.452  18.448  0.00  0.00    +0.000 C 
ATOM     13  C   UNL     1       2.351   2.370  18.760  0.00  0.00    +0.000 C 
ATOM     14  C   UNL     1       3.423   3.001  19.647  0.00  0.00    +0.000 C 
ATOM     15  C   UNL     1       2.645   3.546  20.905  0.00  0.00    +0.000 C 
ATOM     16  C   UNL     1       4.516   2.147  20.348  0.00  0.00    +0.000 C 
ENDROOT
BRANCH  10  17
ATOM     17  C   UNL     1       2.493   6.970  18.540  0.00  0.00    +0.000 C 
BRANCH  17  18
ATOM     18  O   UNL     1       2.078   7.096  19.918  0.00  0.00    +0.000 OA
BRANCH  18  19
ATOM     19  C   UNL     1       1.541   8.281  20.232  0.00  0.00    +0.000 C 
ATOM     20  C   UNL     1       1.403   9.149  19.006  0.00  0.00    +0.000 C 
ATOM     21  O   UNL     1       1.246   8.661  21.373  0.00  0.00    +0.000 OA
ENDBRANCH  18  19
ENDBRANCH  17  18
ENDBRANCH  10  17
TORSDOF 3
ENDMDL
MODEL 2
REMARK VINA RESULT:      -7.0      1.040      1.218
REMARK  Name = 
REMARK  6 active torsions:
REMARK  status: ('A' for Active; 'I' for Inactive)
REMARK    1  A    between atoms: C_10  and  C_11
REMARK    2  A    between atoms: C_11  and  O_12
REMARK    3  A    between atoms: O_12  and  C_13
REMARK    4  A    between atoms: C_13  and  C_14
REMARK    5  A    between atoms: C_19  and  C_20
REMARK    6  A    between atoms: C_19  and  C_21
REMARK                            x       y       z     vdW  Elec       q    Type
REMARK                         _______ _______ _______ _____ _____    ______ ____
ROOT
ATOM      1  C   UNL     1       7.010   4.449  18.908  0.00  0.00    +0.000 C 
ATOM      2  C   UNL     1       6.115   5.457  18.891  0.00  0.00    +0.000 C 
ATOM      3  O   UNL     1       6.527   6.650  18.294  0.00  0.00    +0.000 OA
ATOM      4  C   UNL     1       6.169   6.590  16.979  0.00  0.00    +0.000 C 
ATOM      5  O   UNL     1       6.931   6.692  16.025  0.00  0.00    +0.000 OA
ATOM      6  C   UNL     1       4.683   6.631  16.888  0.00  0.00    +0.000 C 
ATOM      7  C   UNL     1       3.941   5.345  17.338  0.00  0.00    +0.000 C 
ATOM      8  C   UNL     1       4.208   4.033  18.521  0.00  0.00    +0.000 C 
ATOM      9  C   UNL     1       4.620   5.236  19.338  0.00  0.00    +0.000 C 
ATOM     10  C   UNL     1       3.044   5.761  18.511  0.00  0.00    +0.000 C 
ATOM     11  C   UNL     1       1.729   5.038  17.865  0.00  0.00    +0.000 C 
ATOM     12  C   UNL     1       1.221   3.719  18.427  0.00  0.00    +0.000 C 
ATOM     13  C   UNL     1       2.259   2.569  18.524  0.00  0.00    +0.000 C 
ATOM     14  C   UNL     1       3.388   3.021  19.449  0.00  0.00    +0.000 C 
ATOM     15  C   UNL     1       2.681   3.392  20.807  0.00  0.00    +0.000 C 
ATOM     16  C   UNL     1       4.473   2.035  19.964  0.00  0.00    +0.000 C 
ENDROOT
BRANCH  10  17
ATOM     17  C   UNL     1       2.571   7.141  18.997  0.00  0.00    +0.000 C 
BRANCH  17  18
ATOM     18  O   UNL     1       1.768   7.768  17.973  0.00  0.00    +0.000 OA
BRANCH  18  19
ATOM     19  C   UNL     1       1.697   9.102  18.060  0.00  0.00    +0.000 C 
ATOM     20  C   UNL     1       0.737   9.518  19.147  0.00  0.00    +0.000 C 
ATOM     21  O   UNL     1       2.279   9.905  17.320  0.00  0.00    +0.000 OA
ENDBRANCH  18  19
ENDBRANCH  17  18
ENDBRANCH  10  17
TORSDOF 3
ENDMDL
MODEL 3
REMARK VINA RESULT:      -6.7      2.145      4.377
REMARK  Name = 
REMARK  6 active torsions:
REMARK  status: ('A' for Active; 'I' for Inactive)
REMARK    1  A    between atoms: C_10  and  C_11
REMARK    2  A    between atoms: C_11  and  O_12
REMARK    3  A    between atoms: O_12  and  C_13
REMARK    4  A    between atoms: C_13  and  C_14
REMARK    5  A    between atoms: C_19  and  C_20
REMARK    6  A    between atoms: C_19  and  C_21
REMARK                            x       y       z     vdW  Elec       q    Type
REMARK                         _______ _______ _______ _____ _____    ______ ____
ROOT
ATOM      1  C   UNL     1       3.644   1.805  17.823  0.00  0.00    +0.000 C 
ATOM      2  C   UNL     1       3.033   2.979  18.076  0.00  0.00    +0.000 C 
ATOM      3  O   UNL     1       2.098   2.987  19.114  0.00  0.00    +0.000 OA
ATOM      4  C   UNL     1       2.763   3.328  20.255  0.00  0.00    +0.000 C 
ATOM      5  O   UNL     1       2.818   2.657  21.278  0.00  0.00    +0.000 OA
ATOM      6  C   UNL     1       3.199   4.749  20.145  0.00  0.00    +0.000 C 
ATOM      7  C   UNL     1       4.368   5.024  19.164  0.00  0.00    +0.000 C 
ATOM      8  C   UNL     1       4.981   4.325  17.638  0.00  0.00    +0.000 C 
ATOM      9  C   UNL     1       3.493   4.314  17.375  0.00  0.00    +0.000 C 
ATOM     10  C   UNL     1       3.815   5.988  18.106  0.00  0.00    +0.000 C 
ATOM     11  C   UNL     1       5.083   7.008  18.257  0.00  0.00    +0.000 C 
ATOM     12  C   UNL     1       6.169   7.050  17.194  0.00  0.00    +0.000 C 
ATOM     13  C   UNL     1       6.833   5.692  16.836  0.00  0.00    +0.000 C 
ATOM     14  C   UNL     1       5.749   4.756  16.303  0.00  0.00    +0.000 C 
ATOM     15  C   UNL     1       5.108   5.523  15.085  0.00  0.00    +0.000 C 
ATOM     16  C   UNL     1       6.094   3.401  15.625  0.00  0.00    +0.000 C 
ENDROOT
BRANCH  10  17
ATOM     17  C   UNL     1       2.560   6.875  18.087  0.00  0.00    +0.000 C 
BRANCH  17  18
ATOM     18  O   UNL     1       2.880   8.158  17.503  0.00  0.00    +0.000 OA
BRANCH  18  19
ATOM     19  C   UNL     1       2.199   9.190  18.018  0.00  0.00    +0.000 C 
ATOM     20  C   UNL     1       1.481   8.782  19.280  0.00  0.00    +0.000 C 
ATOM     21  O   UNL     1       2.105  10.316  17.514  0.00  0.00    +0.000 OA
ENDBRANCH  18  19
ENDBRANCH  17  18
ENDBRANCH  10  17
TORSDOF 3
ENDMDL
MODEL 4
REMARK VINA RESULT:      -6.5      1.323      1.478
REMARK  Name = 
REMARK  6 active torsions:
REMARK  status: ('A' for Active; 'I' for Inactive)
REMARK    1  A    between atoms: C_10  and  C_11
REMARK    2  A    between atoms: C_11  and  O_12
REMARK    3  A    between atoms: O_12  and  C_13
REMARK    4  A    between atoms: C_13  and  C_14
REMARK    5  A    between atoms: C_19  and  C_20
REMARK    6  A    between atoms: C_19  and  C_21
REMARK                            x       y       z     vdW  Elec       q    Type
REMARK                         _______ _______ _______ _____ _____    ______ ____
ROOT
ATOM      1  C   UNL     1       6.193   4.059  17.377  0.00  0.00    +0.000 C 
ATOM      2  C   UNL     1       5.555   5.014  18.084  0.00  0.00    +0.000 C 
ATOM      3  O   UNL     1       5.787   6.337  17.700  0.00  0.00    +0.000 OA
ATOM      4  C   UNL     1       4.830   6.668  16.787  0.00  0.00    +0.000 C 
ATOM      5  O   UNL     1       5.036   7.060  15.645  0.00  0.00    +0.000 OA
ATOM      6  C   UNL     1       3.510   6.715  17.477  0.00  0.00    +0.000 C 
ATOM      7  C   UNL     1       2.909   5.344  17.882  0.00  0.00    +0.000 C 
ATOM      8  C   UNL     1       3.530   3.741  18.370  0.00  0.00    +0.000 C 
ATOM      9  C   UNL     1       4.452   4.650  19.150  0.00  0.00    +0.000 C 
ATOM     10  C   UNL     1       2.766   5.378  19.409  0.00  0.00    +0.000 C 
ATOM     11  C   UNL     1       1.216   4.864  19.355  0.00  0.00    +0.000 C 
ATOM     12  C   UNL     1       0.865   3.431  19.724  0.00  0.00    +0.000 C 
ATOM     13  C   UNL     1       1.646   2.318  18.973  0.00  0.00    +0.000 C 
ATOM     14  C   UNL     1       3.133   2.487  19.279  0.00  0.00    +0.000 C 
ATOM     15  C   UNL     1       3.237   2.426  20.851  0.00  0.00    +0.000 C 
ATOM     16  C   UNL     1       4.181   1.407  18.892  0.00  0.00    +0.000 C 
ENDROOT
BRANCH  10  17
ATOM     17  C   UNL     1       2.789   6.543  20.412  0.00  0.00    +0.000 C 
BRANCH  17  18
ATOM     18  O   UNL     1       1.443   7.015  20.640  0.00  0.00    +0.000 OA
BRANCH  18  19
ATOM     19  C   UNL     1       1.307   8.347  20.611  0.00  0.00    +0.000 C 
ATOM     20  C   UNL     1       1.130   8.898  22.005  0.00  0.00    +0.000 C 
ATOM     21  O   UNL     1       1.267   9.046  19.591  0.00  0.00    +0.000 OA
ENDBRANCH  18  19
ENDBRANCH  17  18
ENDBRANCH  10  17
TORSDOF 3
ENDMDL
MODEL 5
REMARK VINA RESULT:      -6.4      2.098      4.268
REMARK  Name = 
REMARK  6 active torsions:
REMARK  status: ('A' for Active; 'I' for Inactive)
REMARK    1  A    between atoms: C_10  and  C_11
REMARK    2  A    between atoms: C_11  and  O_12
REMARK    3  A    between atoms: O_12  and  C_13
REMARK    4  A    between atoms: C_13  and  C_14
REMARK    5  A    between atoms: C_19  and  C_20
REMARK    6  A    between atoms: C_19  and  C_21
REMARK                            x       y       z     vdW  Elec       q    Type
REMARK                         _______ _______ _______ _____ _____    ______ ____
ROOT
ATOM      1  C   UNL     1       3.006   2.035  17.644  0.00  0.00    +0.000 C 
ATOM      2  C   UNL     1       2.538   3.277  17.876  0.00  0.00    +0.000 C 
ATOM      3  O   UNL     1       1.528   3.398  18.833  0.00  0.00    +0.000 OA
ATOM      4  C   UNL     1       2.133   3.629  20.034  0.00  0.00    +0.000 C 
ATOM      5  O   UNL     1       2.010   2.942  21.040  0.00  0.00    +0.000 OA
ATOM      6  C   UNL     1       2.763   4.978  19.996  0.00  0.00    +0.000 C 
ATOM      7  C   UNL     1       4.038   5.107  19.122  0.00  0.00    +0.000 C 
ATOM      8  C   UNL     1       4.679   4.353  17.635  0.00  0.00    +0.000 C 
ATOM      9  C   UNL     1       3.231   4.547  17.249  0.00  0.00    +0.000 C 
ATOM     10  C   UNL     1       3.711   6.152  18.047  0.00  0.00    +0.000 C 
ATOM     11  C   UNL     1       5.087   6.988  18.328  0.00  0.00    +0.000 C 
ATOM     12  C   UNL     1       6.255   6.897  17.359  0.00  0.00    +0.000 C 
ATOM     13  C   UNL     1       6.759   5.467  17.023  0.00  0.00    +0.000 C 
ATOM     14  C   UNL     1       5.609   4.695  16.379  0.00  0.00    +0.000 C 
ATOM     15  C   UNL     1       5.183   5.559  15.132  0.00  0.00    +0.000 C 
ATOM     16  C   UNL     1       5.825   3.315  15.697  0.00  0.00    +0.000 C 
ENDROOT
BRANCH  10  17
ATOM     17  C   UNL     1       2.592   7.201  17.948  0.00  0.00    +0.000 C 
BRANCH  17  18
ATOM     18  O   UNL     1       2.425   7.855  19.226  0.00  0.00    +0.000 OA
BRANCH  18  19
ATOM     19  C   UNL     1       1.553   8.871  19.222  0.00  0.00    +0.000 C 
ATOM     20  C   UNL     1       1.590   9.604  17.904  0.00  0.00    +0.000 C 
ATOM     21  O   UNL     1       0.846   9.219  20.177  0.00  0.00    +0.000 OA
ENDBRANCH  18  19
ENDBRANCH  17  18
ENDBRANCH  10  17
TORSDOF 3
ENDMDL
MODEL 6
REMARK VINA RESULT:      -6.1      1.093      1.187
REMARK  Name = 
REMARK  6 active torsions:
REMARK  status: ('A' for Active; 'I' for Inactive)
REMARK    1  A    between atoms: C_10  and  C_11
REMARK    2  A    between atoms: C_11  and  O_12
REMARK    3  A    between atoms: O_12  and  C_13
REMARK    4  A    between atoms: C_13  and  C_14
REMARK    5  A    between atoms: C_19  and  C_20
REMARK    6  A    between atoms: C_19  and  C_21
REMARK                            x       y       z     vdW  Elec       q    Type
REMARK                         _______ _______ _______ _____ _____    ______ ____
ROOT
ATOM      1  C   UNL     1       7.263   4.793  19.423  0.00  0.00    +0.000 C 
ATOM      2  C   UNL     1       6.194   5.456  18.938  0.00  0.00    +0.000 C 
ATOM      3  O   UNL     1       6.457   6.570  18.139  0.00  0.00    +0.000 OA
ATOM      4  C   UNL     1       6.512   6.138  16.846  0.00  0.00    +0.000 C 
ATOM      5  O   UNL     1       7.464   6.270  16.088  0.00  0.00    +0.000 OA
ATOM      6  C   UNL     1       5.148   5.706  16.431  0.00  0.00    +0.000 C 
ATOM      7  C   UNL     1       4.642   4.376  17.047  0.00  0.00    +0.000 C 
ATOM      8  C   UNL     1       4.871   3.476  18.573  0.00  0.00    +0.000 C 
ATOM      9  C   UNL     1       4.732   4.886  19.097  0.00  0.00    +0.000 C 
ATOM     10  C   UNL     1       3.377   4.729  17.840  0.00  0.00    +0.000 C 
ATOM     11  C   UNL     1       2.513   3.525  17.151  0.00  0.00    +0.000 C 
ATOM     12  C   UNL     1       2.200   2.257  17.931  0.00  0.00    +0.000 C 
ATOM     13  C   UNL     1       3.415   1.521  18.561  0.00  0.00    +0.000 C 
ATOM     14  C   UNL     1       4.092   2.473  19.545  0.00  0.00    +0.000 C 
ATOM     15  C   UNL     1       2.961   2.880  20.565  0.00  0.00    +0.000 C 
ATOM     16  C   UNL     1       5.191   1.990  20.532  0.00  0.00    +0.000 C 
ENDROOT
BRANCH  10  17
ATOM     17  C   UNL     1       2.468   5.968  17.815  0.00  0.00    +0.000 C 
BRANCH  17  18
ATOM     18  O   UNL     1       1.452   5.847  18.836  0.00  0.00    +0.000 OA
BRANCH  18  19
ATOM     19  C   UNL     1       1.709   6.527  19.961  0.00  0.00    +0.000 C 
ATOM     20  C   UNL     1       2.082   7.955  19.649  0.00  0.00    +0.000 C 
ATOM     21  O   UNL     1       1.707   6.057  21.105  0.00  0.00    +0.000 OA
ENDBRANCH  18  19
ENDBRANCH  17  18
ENDBRANCH  10  17
TORSDOF 3
ENDMDL
MODEL 7
REMARK VINA RESULT:      -6.0      2.592      5.757
REMARK  Name = 
REMARK  6 active torsions:
REMARK  status: ('A' for Active; 'I' for Inactive)
REMARK    1  A    between atoms: C_10  and  C_11
REMARK    2  A    between atoms: C_11  and  O_12
REMARK    3  A    between atoms: O_12  and  C_13
REMARK    4  A    between atoms: C_13  and  C_14
REMARK    5  A    between atoms: C_19  and  C_20
REMARK    6  A    between atoms: C_19  and  C_21
REMARK                            x       y       z     vdW  Elec       q    Type
REMARK                         _______ _______ _______ _____ _____    ______ ____
ROOT
ATOM      1  C   UNL     1       4.378   2.931  20.308  0.00  0.00    +0.000 C 
ATOM      2  C   UNL     1       4.194   2.893  18.973  0.00  0.00    +0.000 C 
ATOM      3  O   UNL     1       3.004   2.318  18.521  0.00  0.00    +0.000 OA
ATOM      4  C   UNL     1       2.087   3.323  18.407  0.00  0.00    +0.000 C 
ATOM      5  O   UNL     1       1.004   3.371  18.977  0.00  0.00    +0.000 OA
ATOM      6  C   UNL     1       2.504   4.222  17.295  0.00  0.00    +0.000 C 
ATOM      7  C   UNL     1       3.731   5.127  17.579  0.00  0.00    +0.000 C 
ATOM      8  C   UNL     1       5.220   5.032  18.561  0.00  0.00    +0.000 C 
ATOM      9  C   UNL     1       5.173   3.636  17.986  0.00  0.00    +0.000 C 
ATOM     10  C   UNL     1       4.794   4.737  16.543  0.00  0.00    +0.000 C 
ATOM     11  C   UNL     1       5.062   6.292  16.116  0.00  0.00    +0.000 C 
ATOM     12  C   UNL     1       6.316   7.014  16.585  0.00  0.00    +0.000 C 
ATOM     13  C   UNL     1       6.583   7.003  18.115  0.00  0.00    +0.000 C 
ATOM     14  C   UNL     1       6.733   5.551  18.564  0.00  0.00    +0.000 C 
ATOM     15  C   UNL     1       7.903   4.968  17.682  0.00  0.00    +0.000 C 
ATOM     16  C   UNL     1       7.246   5.177  19.982  0.00  0.00    +0.000 C 
ENDROOT
BRANCH  10  17
ATOM     17  C   UNL     1       4.697   3.949  15.226  0.00  0.00    +0.000 C 
BRANCH  17  18
ATOM     18  O   UNL     1       6.017   3.528  14.815  0.00  0.00    +0.000 OA
BRANCH  18  19
ATOM     19  C   UNL     1       6.484   4.146  13.723  0.00  0.00    +0.000 C 
ATOM     20  C   UNL     1       6.044   3.429  12.471  0.00  0.00    +0.000 C 
ATOM     21  O   UNL     1       7.228   5.136  13.717  0.00  0.00    +0.000 OA
ENDBRANCH  18  19
ENDBRANCH  17  18
ENDBRANCH  10  17
TORSDOF 3
ENDMDL
MODEL 8
REMARK VINA RESULT:      -5.9      1.995      4.433
REMARK  Name = 
REMARK  6 active torsions:
REMARK  status: ('A' for Active; 'I' for Inactive)
REMARK    1  A    between atoms: C_10  and  C_11
REMARK    2  A    between atoms: C_11  and  O_12
REMARK    3  A    between atoms: O_12  and  C_13
REMARK    4  A    between atoms: C_13  and  C_14
REMARK    5  A    between atoms: C_19  and  C_20
REMARK    6  A    between atoms: C_19  and  C_21
REMARK                            x       y       z     vdW  Elec       q    Type
REMARK                         _______ _______ _______ _____ _____    ______ ____
ROOT
ATOM      1  C   UNL     1       2.584   2.450  16.660  0.00  0.00    +0.000 C 
ATOM      2  C   UNL     1       2.522   3.494  17.510  0.00  0.00    +0.000 C 
ATOM      3  O   UNL     1       1.576   3.411  18.535  0.00  0.00    +0.000 OA
ATOM      4  C   UNL     1       2.193   2.842  19.610  0.00  0.00    +0.000 C 
ATOM      5  O   UNL     1       1.838   1.818  20.179  0.00  0.00    +0.000 OA
ATOM      6  C   UNL     1       3.213   3.795  20.131  0.00  0.00    +0.000 C 
ATOM      7  C   UNL     1       4.486   3.967  19.261  0.00  0.00    +0.000 C 
ATOM      8  C   UNL     1       4.897   3.891  17.524  0.00  0.00    +0.000 C 
ATOM      9  C   UNL     1       3.592   4.651  17.472  0.00  0.00    +0.000 C 
ATOM     10  C   UNL     1       4.528   5.447  18.860  0.00  0.00    +0.000 C 
ATOM     11  C   UNL     1       6.089   5.609  19.318  0.00  0.00    +0.000 C 
ATOM     12  C   UNL     1       7.194   5.677  18.276  0.00  0.00    +0.000 C 
ATOM     13  C   UNL     1       7.235   4.520  17.241  0.00  0.00    +0.000 C 
ATOM     14  C   UNL     1       5.918   4.524  16.468  0.00  0.00    +0.000 C 
ATOM     15  C   UNL     1       5.813   5.968  15.845  0.00  0.00    +0.000 C 
ATOM     16  C   UNL     1       5.709   3.659  15.193  0.00  0.00    +0.000 C 
ENDROOT
BRANCH  10  17
ATOM     17  C   UNL     1       3.796   6.679  19.418  0.00  0.00    +0.000 C 
BRANCH  17  18
ATOM     18  O   UNL     1       3.006   7.288  18.372  0.00  0.00    +0.000 OA
BRANCH  18  19
ATOM     19  C   UNL     1       2.108   8.184  18.803  0.00  0.00    +0.000 C 
ATOM     20  C   UNL     1       1.773   9.173  17.714  0.00  0.00    +0.000 C 
ATOM     21  O   UNL     1       1.647   8.249  19.949  0.00  0.00    +0.000 OA
ENDBRANCH  18  19
ENDBRANCH  17  18
ENDBRANCH  10  17
TORSDOF 3
ENDMDL
MODEL 9
REMARK VINA RESULT:      -5.9      2.229      4.246
REMARK  Name = 
REMARK  6 active torsions:
REMARK  status: ('A' for Active; 'I' for Inactive)
REMARK    1  A    between atoms: C_10  and  C_11
REMARK    2  A    between atoms: C_11  and  O_12
REMARK    3  A    between atoms: O_12  and  C_13
REMARK    4  A    between atoms: C_13  and  C_14
REMARK    5  A    between atoms: C_19  and  C_20
REMARK    6  A    between atoms: C_19  and  C_21
REMARK                            x       y       z     vdW  Elec       q    Type
REMARK                         _______ _______ _______ _____ _____    ______ ____
ROOT
ATOM      1  C   UNL     1       5.610   6.977  16.363  0.00  0.00    +0.000 C 
ATOM      2  C   UNL     1       5.563   5.723  16.857  0.00  0.00    +0.000 C 
ATOM      3  O   UNL     1       6.769   5.021  16.899  0.00  0.00    +0.000 OA
ATOM      4  C   UNL     1       7.331   5.256  18.121  0.00  0.00    +0.000 C 
ATOM      5  O   UNL     1       8.438   5.741  18.317  0.00  0.00    +0.000 OA
ATOM      6  C   UNL     1       6.492   4.602  19.163  0.00  0.00    +0.000 C 
ATOM      7  C   UNL     1       5.128   5.279  19.457  0.00  0.00    +0.000 C 
ATOM      8  C   UNL     1       3.919   6.227  18.544  0.00  0.00    +0.000 C 
ATOM      9  C   UNL     1       4.258   5.154  17.534  0.00  0.00    +0.000 C 
ATOM     10  C   UNL     1       4.055   4.232  19.131  0.00  0.00    +0.000 C 
ATOM     11  C   UNL     1       3.290   4.455  20.557  0.00  0.00    +0.000 C 
ATOM     12  C   UNL     1       1.984   5.233  20.617  0.00  0.00    +0.000 C 
ATOM     13  C   UNL     1       2.000   6.651  19.985  0.00  0.00    +0.000 C 
ATOM     14  C   UNL     1       2.346   6.510  18.504  0.00  0.00    +0.000 C 
ATOM     15  C   UNL     1       1.254   5.536  17.919  0.00  0.00    +0.000 C 
ATOM     16  C   UNL     1       2.213   7.699  17.511  0.00  0.00    +0.000 C 
ENDROOT
BRANCH  10  17
ATOM     17  C   UNL     1       4.140   2.710  18.931  0.00  0.00    +0.000 C 
BRANCH  17  18
ATOM     18  O   UNL     1       2.879   2.102  19.288  0.00  0.00    +0.000 OA
BRANCH  18  19
ATOM     19  C   UNL     1       1.945   2.153  18.330  0.00  0.00    +0.000 C 
ATOM     20  C   UNL     1       0.562   2.191  18.931  0.00  0.00    +0.000 C 
ATOM     21  O   UNL     1       2.158   2.113  17.111  0.00  0.00    +0.000 OA
ENDBRANCH  18  19
ENDBRANCH  17  18
ENDBRANCH  10  17
TORSDOF 3
ENDMDL
