MODEL 1
REMARK VINA RESULT:      -8.1      0.000      0.000
REMARK  Name = 
REMARK  8 active torsions:
REMARK  status: ('A' for Active; 'I' for Inactive)
REMARK    1  A    between atoms: C_1  and  C_2
REMARK    2  A    between atoms: C_2  and  C_3
REMARK    3  A    between atoms: C_2  and  C_4
REMARK    4  A    between atoms: C_6  and  C_7
REMARK    5  A    between atoms: N_11  and  C_12
REMARK    6  A    between atoms: C_12  and  C_13
REMARK    7  A    between atoms: C_13  and  S_14
REMARK    8  A    between atoms: S_14  and  C_17
REMARK                            x       y       z     vdW  Elec       q    Type
REMARK                         _______ _______ _______ _____ _____    ______ ____
ROOT
ATOM      1  C   UNL     1       7.131   5.477  16.179  0.00  0.00    +0.000 C 
ATOM      2  C   UNL     1       7.570   4.491  17.252  0.00  0.00    +0.000 C 
ATOM      3  C   UNL     1       7.277   5.241  18.530  0.00  0.00    +0.000 C 
ATOM      4  C   UNL     1       6.095   6.141  18.187  0.00  0.00    +0.000 C 
ATOM      5  N   UNL     1       5.892   6.117  16.719  0.00  0.00    +0.000 NA
ENDROOT
BRANCH   1   8
ATOM      6  C   UNL     1       6.423   3.701  13.211  0.00  0.00    +0.000 A 
ATOM      7  N   UNL     1       6.345   3.772  14.520  0.00  0.00    +0.000 NA
ATOM      8  C   UNL     1       7.125   4.871  14.806  0.00  0.00    +0.000 A 
ATOM      9  N   UNL     1       7.656   5.464  13.724  0.00  0.00    +0.000 NA
ATOM     10  O   UNL     1       7.214   4.669  12.665  0.00  0.00    +0.000 OA
BRANCH   6  12
ATOM     11  C   UNL     1       4.551   3.482  11.584  0.00  0.00    +0.000 C 
ATOM     12  C   UNL     1       5.714   2.777  12.281  0.00  0.00    +0.000 C 
ATOM     13  C   UNL     1       6.671   2.165  11.262  0.00  0.00    +0.000 C 
ENDBRANCH   6  12
ENDBRANCH   1   8
BRANCH   5  14
ATOM     14  C   UNL     1       4.609   5.482  16.341  0.00  0.00    +0.000 C 
BRANCH  14  15
ATOM     15  C   UNL     1       4.167   4.418  17.355  0.00  0.00    +0.000 C 
BRANCH  15  16
ATOM     16  S   UNL     1       2.461   4.628  17.825  0.00  0.00    +0.000 S 
ATOM     17  O   UNL     1       2.216   6.029  18.105  0.00  0.00    +0.000 OA
ATOM     18  O   UNL     1       1.630   3.899  16.882  0.00  0.00    +0.000 OA
BRANCH  16  19
ATOM     19  C   UNL     1       2.372   3.755  19.381  0.00  0.00    +0.000 A 
ATOM     20  C   UNL     1       1.167   3.732  20.090  0.00  0.00    +0.000 A 
ATOM     21  C   UNL     1       1.109   3.080  21.323  0.00  0.00    +0.000 A 
ATOM     22  C   UNL     1       2.244   2.444  21.834  0.00  0.00    +0.000 A 
ATOM     23  C   UNL     1       3.435   2.444  21.106  0.00  0.00    +0.000 A 
ATOM     24  C   UNL     1       3.502   3.093  19.871  0.00  0.00    +0.000 A 
ENDBRANCH  16  19
ENDBRANCH  15  16
ENDBRANCH  14  15
ENDBRANCH   5  14
TORSDOF 6
ENDMDL
MODEL 2
REMARK VINA RESULT:      -7.9      0.867      1.600
REMARK  Name = 
REMARK  8 active torsions:
REMARK  status: ('A' for Active; 'I' for Inactive)
REMARK    1  A    between atoms: C_1  and  C_2
REMARK    2  A    between atoms: C_2  and  C_3
REMARK    3  A    between atoms: C_2  and  C_4
REMARK    4  A    between atoms: C_6  and  C_7
REMARK    5  A    between atoms: N_11  and  C_12
REMARK    6  A    between atoms: C_12  and  C_13
REMARK    7  A    between atoms: C_13  and  S_14
REMARK    8  A    between atoms: S_14  and  C_17
REMARK                            x       y       z     vdW  Elec       q    Type
REMARK                         _______ _______ _______ _____ _____    ______ ____
ROOT
ATOM      1  C   UNL     1       7.220   5.512  16.170  0.00  0.00    +0.000 C 
ATOM      2  C   UNL     1       7.598   4.447  17.189  0.00  0.00    +0.000 C 
ATOM      3  C   UNL     1       7.245   5.105  18.502  0.00  0.00    +0.000 C 
ATOM      4  C   UNL     1       6.088   6.040  18.166  0.00  0.00    +0.000 C 
ATOM      5  N   UNL     1       5.959   6.124  16.693  0.00  0.00    +0.000 NA
ENDROOT
BRANCH   1   8
ATOM      6  C   UNL     1       6.591   4.087  13.002  0.00  0.00    +0.000 A 
ATOM      7  N   UNL     1       6.366   4.086  14.296  0.00  0.00    +0.000 NA
ATOM      8  C   UNL     1       7.280   5.008  14.759  0.00  0.00    +0.000 A 
ATOM      9  N   UNL     1       8.033   5.565  13.795  0.00  0.00    +0.000 NA
ATOM     10  O   UNL     1       7.596   4.932  12.630  0.00  0.00    +0.000 OA
BRANCH   6  12
ATOM     11  C   UNL     1       6.390   1.945  11.749  0.00  0.00    +0.000 C 
ATOM     12  C   UNL     1       5.856   3.367  11.925  0.00  0.00    +0.000 C 
ATOM     13  C   UNL     1       4.352   3.358  12.182  0.00  0.00    +0.000 C 
ENDBRANCH   6  12
ENDBRANCH   1   8
BRANCH   5  14
ATOM     14  C   UNL     1       4.693   5.531  16.206  0.00  0.00    +0.000 C 
BRANCH  14  15
ATOM     15  C   UNL     1       3.710   5.243  17.349  0.00  0.00    +0.000 C 
BRANCH  15  16
ATOM     16  S   UNL     1       3.244   3.523  17.394  0.00  0.00    +0.000 S 
ATOM     17  O   UNL     1       2.118   3.314  16.504  0.00  0.00    +0.000 OA
ATOM     18  O   UNL     1       4.446   2.716  17.279  0.00  0.00    +0.000 OA
BRANCH  16  19
ATOM     19  C   UNL     1       2.640   3.324  19.064  0.00  0.00    +0.000 A 
ATOM     20  C   UNL     1       3.467   2.748  20.031  0.00  0.00    +0.000 A 
ATOM     21  C   UNL     1       2.981   2.561  21.326  0.00  0.00    +0.000 A 
ATOM     22  C   UNL     1       1.683   2.961  21.652  0.00  0.00    +0.000 A 
ATOM     23  C   UNL     1       0.873   3.565  20.690  0.00  0.00    +0.000 A 
ATOM     24  C   UNL     1       1.351   3.757  19.392  0.00  0.00    +0.000 A 
ENDBRANCH  16  19
ENDBRANCH  15  16
ENDBRANCH  14  15
ENDBRANCH   5  14
TORSDOF 6
ENDMDL
MODEL 3
REMARK VINA RESULT:      -7.8      1.803      2.401
REMARK  Name = 
REMARK  8 active torsions:
REMARK  status: ('A' for Active; 'I' for Inactive)
REMARK    1  A    between atoms: C_1  and  C_2
REMARK    2  A    between atoms: C_2  and  C_3
REMARK    3  A    between atoms: C_2  and  C_4
REMARK    4  A    between atoms: C_6  and  C_7
REMARK    5  A    between atoms: N_11  and  C_12
REMARK    6  A    between atoms: C_12  and  C_13
REMARK    7  A    between atoms: C_13  and  S_14
REMARK    8  A    between atoms: S_14  and  C_17
REMARK                            x       y       z     vdW  Elec       q    Type
REMARK                         _______ _______ _______ _____ _____    ______ ____
ROOT
ATOM      1  C   UNL     1       6.573   5.287  16.791  0.00  0.00    +0.000 C 
ATOM      2  C   UNL     1       7.688   4.873  17.740  0.00  0.00    +0.000 C 
ATOM      3  C   UNL     1       7.142   5.277  19.089  0.00  0.00    +0.000 C 
ATOM      4  C   UNL     1       5.628   5.156  18.944  0.00  0.00    +0.000 C 
ATOM      5  N   UNL     1       5.304   4.959  17.512  0.00  0.00    +0.000 NA
ENDROOT
BRANCH   1   8
ATOM      6  C   UNL     1       6.346   3.774  13.609  0.00  0.00    +0.000 A 
ATOM      7  N   UNL     1       6.043   3.747  14.887  0.00  0.00    +0.000 NA
ATOM      8  C   UNL     1       6.790   4.789  15.393  0.00  0.00    +0.000 A 
ATOM      9  N   UNL     1       7.519   5.440  14.470  0.00  0.00    +0.000 NA
ATOM     10  O   UNL     1       7.247   4.748  13.289  0.00  0.00    +0.000 OA
BRANCH   6  12
ATOM     11  C   UNL     1       4.581   3.643  11.858  0.00  0.00    +0.000 C 
ATOM     12  C   UNL     1       5.787   2.954  12.498  0.00  0.00    +0.000 C 
ATOM     13  C   UNL     1       6.849   2.629  11.452  0.00  0.00    +0.000 C 
ENDBRANCH   6  12
ENDBRANCH   1   8
BRANCH   5  14
ATOM     14  C   UNL     1       4.726   3.623  17.247  0.00  0.00    +0.000 C 
BRANCH  14  15
ATOM     15  C   UNL     1       3.220   3.689  16.958  0.00  0.00    +0.000 C 
BRANCH  15  16
ATOM     16  S   UNL     1       2.257   3.473  18.442  0.00  0.00    +0.000 S 
ATOM     17  O   UNL     1       0.928   3.020  18.083  0.00  0.00    +0.000 OA
ATOM     18  O   UNL     1       3.058   2.744  19.410  0.00  0.00    +0.000 OA
BRANCH  16  19
ATOM     19  C   UNL     1       2.098   5.145  19.053  0.00  0.00    +0.000 A 
ATOM     20  C   UNL     1       2.310   6.219  18.184  0.00  0.00    +0.000 A 
ATOM     21  C   UNL     1       2.220   7.524  18.671  0.00  0.00    +0.000 A 
ATOM     22  C   UNL     1       1.905   7.750  20.013  0.00  0.00    +0.000 A 
ATOM     23  C   UNL     1       1.662   6.675  20.868  0.00  0.00    +0.000 A 
ATOM     24  C   UNL     1       1.749   5.366  20.389  0.00  0.00    +0.000 A 
ENDBRANCH  16  19
ENDBRANCH  15  16
ENDBRANCH  14  15
ENDBRANCH   5  14
TORSDOF 6
ENDMDL
MODEL 4
REMARK VINA RESULT:      -7.7      1.877      2.444
REMARK  Name = 
REMARK  8 active torsions:
REMARK  status: ('A' for Active; 'I' for Inactive)
REMARK    1  A    between atoms: C_1  and  C_2
REMARK    2  A    between atoms: C_2  and  C_3
REMARK    3  A    between atoms: C_2  and  C_4
REMARK    4  A    between atoms: C_6  and  C_7
REMARK    5  A    between atoms: N_11  and  C_12
REMARK    6  A    between atoms: C_12  and  C_13
REMARK    7  A    between atoms: C_13  and  S_14
REMARK    8  A    between atoms: S_14  and  C_17
REMARK                            x       y       z     vdW  Elec       q    Type
REMARK                         _______ _______ _______ _____ _____    ______ ____
ROOT
ATOM      1  C   UNL     1       6.671   5.341  16.925  0.00  0.00    +0.000 C 
ATOM      2  C   UNL     1       7.788   4.906  17.863  0.00  0.00    +0.000 C 
ATOM      3  C   UNL     1       7.254   5.302  19.219  0.00  0.00    +0.000 C 
ATOM      4  C   UNL     1       5.738   5.198  19.083  0.00  0.00    +0.000 C 
ATOM      5  N   UNL     1       5.403   5.019  17.651  0.00  0.00    +0.000 NA
ENDROOT
BRANCH   1   8
ATOM      6  C   UNL     1       6.415   3.855  13.734  0.00  0.00    +0.000 A 
ATOM      7  N   UNL     1       6.125   3.816  15.014  0.00  0.00    +0.000 NA
ATOM      8  C   UNL     1       6.875   4.856  15.521  0.00  0.00    +0.000 A 
ATOM      9  N   UNL     1       7.592   5.517  14.596  0.00  0.00    +0.000 NA
ATOM     10  O   UNL     1       7.310   4.834  13.412  0.00  0.00    +0.000 OA
BRANCH   6  12
ATOM     11  C   UNL     1       4.643   3.743  11.988  0.00  0.00    +0.000 C 
ATOM     12  C   UNL     1       5.845   3.043  12.621  0.00  0.00    +0.000 C 
ATOM     13  C   UNL     1       6.902   2.713  11.571  0.00  0.00    +0.000 C 
ENDBRANCH   6  12
ENDBRANCH   1   8
BRANCH   5  14
ATOM     14  C   UNL     1       4.810   3.691  17.376  0.00  0.00    +0.000 C 
BRANCH  14  15
ATOM     15  C   UNL     1       3.318   3.783  17.027  0.00  0.00    +0.000 C 
BRANCH  15  16
ATOM     16  S   UNL     1       2.296   3.637  18.480  0.00  0.00    +0.000 S 
ATOM     17  O   UNL     1       0.971   3.199  18.084  0.00  0.00    +0.000 OA
ATOM     18  O   UNL     1       3.044   2.924  19.501  0.00  0.00    +0.000 OA
BRANCH  16  19
ATOM     19  C   UNL     1       2.150   5.331  19.029  0.00  0.00    +0.000 A 
ATOM     20  C   UNL     1       1.873   5.598  20.372  0.00  0.00    +0.000 A 
ATOM     21  C   UNL     1       1.723   6.921  20.792  0.00  0.00    +0.000 A 
ATOM     22  C   UNL     1       1.866   7.967  19.876  0.00  0.00    +0.000 A 
ATOM     23  C   UNL     1       2.175   7.695  18.543  0.00  0.00    +0.000 A 
ATOM     24  C   UNL     1       2.327   6.374  18.115  0.00  0.00    +0.000 A 
ENDBRANCH  16  19
ENDBRANCH  15  16
ENDBRANCH  14  15
ENDBRANCH   5  14
TORSDOF 6
ENDMDL
MODEL 5
REMARK VINA RESULT:      -7.6      3.307      7.654
REMARK  Name = 
REMARK  8 active torsions:
REMARK  status: ('A' for Active; 'I' for Inactive)
REMARK    1  A    between atoms: C_1  and  C_2
REMARK    2  A    between atoms: C_2  and  C_3
REMARK    3  A    between atoms: C_2  and  C_4
REMARK    4  A    between atoms: C_6  and  C_7
REMARK    5  A    between atoms: N_11  and  C_12
REMARK    6  A    between atoms: C_12  and  C_13
REMARK    7  A    between atoms: C_13  and  S_14
REMARK    8  A    between atoms: S_14  and  C_17
REMARK                            x       y       z     vdW  Elec       q    Type
REMARK                         _______ _______ _______ _____ _____    ______ ____
ROOT
ATOM      1  C   UNL     1       2.280   4.472  18.410  0.00  0.00    +0.000 C 
ATOM      2  C   UNL     1       2.235   3.284  19.359  0.00  0.00    +0.000 C 
ATOM      3  C   UNL     1       2.505   2.116  18.440  0.00  0.00    +0.000 C 
ATOM      4  C   UNL     1       3.381   2.691  17.332  0.00  0.00    +0.000 C 
ATOM      5  N   UNL     1       3.390   4.167  17.454  0.00  0.00    +0.000 NA
ENDROOT
BRANCH   1   8
ATOM      6  C   UNL     1       1.938   7.848  19.384  0.00  0.00    +0.000 A 
ATOM      7  N   UNL     1       2.186   6.975  18.434  0.00  0.00    +0.000 NA
ATOM      8  C   UNL     1       2.252   5.788  19.130  0.00  0.00    +0.000 A 
ATOM      9  N   UNL     1       2.044   5.913  20.452  0.00  0.00    +0.000 NA
ATOM     10  O   UNL     1       1.865   7.287  20.626  0.00  0.00    +0.000 OA
BRANCH   6  12
ATOM     11  C   UNL     1       1.810   9.780  17.819  0.00  0.00    +0.000 C 
ATOM     12  C   UNL     1       1.657   9.306  19.264  0.00  0.00    +0.000 C 
ATOM     13  C   UNL     1       0.277   9.658  19.812  0.00  0.00    +0.000 C 
ENDBRANCH   6  12
ENDBRANCH   1   8
BRANCH   5  14
ATOM     14  C   UNL     1       4.727   4.692  17.813  0.00  0.00    +0.000 C 
BRANCH  14  15
ATOM     15  C   UNL     1       5.236   5.726  16.800  0.00  0.00    +0.000 C 
BRANCH  15  16
ATOM     16  S   UNL     1       6.952   5.461  16.399  0.00  0.00    +0.000 S 
ATOM     17  O   UNL     1       7.634   6.741  16.370  0.00  0.00    +0.000 OA
ATOM     18  O   UNL     1       7.453   4.367  17.212  0.00  0.00    +0.000 OA
BRANCH  16  19
ATOM     19  C   UNL     1       6.874   4.867  14.716  0.00  0.00    +0.000 A 
ATOM     20  C   UNL     1       7.787   5.347  13.773  0.00  0.00    +0.000 A 
ATOM     21  C   UNL     1       7.701   4.909  12.450  0.00  0.00    +0.000 A 
ATOM     22  C   UNL     1       6.721   3.984  12.080  0.00  0.00    +0.000 A 
ATOM     23  C   UNL     1       5.833   3.484  13.034  0.00  0.00    +0.000 A 
ATOM     24  C   UNL     1       5.912   3.917  14.359  0.00  0.00    +0.000 A 
ENDBRANCH  16  19
ENDBRANCH  15  16
ENDBRANCH  14  15
ENDBRANCH   5  14
TORSDOF 6
ENDMDL
MODEL 6
REMARK VINA RESULT:      -7.6      1.172      1.404
REMARK  Name = 
REMARK  8 active torsions:
REMARK  status: ('A' for Active; 'I' for Inactive)
REMARK    1  A    between atoms: C_1  and  C_2
REMARK    2  A    between atoms: C_2  and  C_3
REMARK    3  A    between atoms: C_2  and  C_4
REMARK    4  A    between atoms: C_6  and  C_7
REMARK    5  A    between atoms: N_11  and  C_12
REMARK    6  A    between atoms: C_12  and  C_13
REMARK    7  A    between atoms: C_13  and  S_14
REMARK    8  A    between atoms: S_14  and  C_17
REMARK                            x       y       z     vdW  Elec       q    Type
REMARK                         _______ _______ _______ _____ _____    ______ ____
ROOT
ATOM      1  C   UNL     1       7.404   5.502  16.089  0.00  0.00    +0.000 C 
ATOM      2  C   UNL     1       7.572   4.466  17.191  0.00  0.00    +0.000 C 
ATOM      3  C   UNL     1       7.524   5.306  18.446  0.00  0.00    +0.000 C 
ATOM      4  C   UNL     1       6.634   6.490  18.084  0.00  0.00    +0.000 C 
ATOM      5  N   UNL     1       6.403   6.479  16.620  0.00  0.00    +0.000 NA
ENDROOT
BRANCH   1   8
ATOM      6  C   UNL     1       6.245   3.748  13.254  0.00  0.00    +0.000 A 
ATOM      7  N   UNL     1       6.316   3.841  14.562  0.00  0.00    +0.000 NA
ATOM      8  C   UNL     1       7.203   4.881  14.739  0.00  0.00    +0.000 A 
ATOM      9  N   UNL     1       7.657   5.416  13.593  0.00  0.00    +0.000 NA
ATOM     10  O   UNL     1       7.044   4.645  12.605  0.00  0.00    +0.000 OA
BRANCH   6  12
ATOM     11  C   UNL     1       4.376   3.695  11.610  0.00  0.00    +0.000 C 
ATOM     12  C   UNL     1       5.372   2.870  12.425  0.00  0.00    +0.000 C 
ATOM     13  C   UNL     1       6.193   1.956  11.521  0.00  0.00    +0.000 C 
ENDBRANCH   6  12
ENDBRANCH   1   8
BRANCH   5  14
ATOM     14  C   UNL     1       4.988   6.217  16.277  0.00  0.00    +0.000 C 
BRANCH  14  15
ATOM     15  C   UNL     1       4.324   5.240  17.258  0.00  0.00    +0.000 C 
BRANCH  15  16
ATOM     16  S   UNL     1       3.101   6.054  18.267  0.00  0.00    +0.000 S 
ATOM     17  O   UNL     1       3.761   6.693  19.389  0.00  0.00    +0.000 OA
ATOM     18  O   UNL     1       2.211   6.804  17.398  0.00  0.00    +0.000 OA
BRANCH  16  19
ATOM     19  C   UNL     1       2.158   4.684  18.921  0.00  0.00    +0.000 A 
ATOM     20  C   UNL     1       1.881   4.630  20.290  0.00  0.00    +0.000 A 
ATOM     21  C   UNL     1       1.176   3.541  20.805  0.00  0.00    +0.000 A 
ATOM     22  C   UNL     1       0.737   2.524  19.953  0.00  0.00    +0.000 A 
ATOM     23  C   UNL     1       0.988   2.601  18.582  0.00  0.00    +0.000 A 
ATOM     24  C   UNL     1       1.693   3.687  18.059  0.00  0.00    +0.000 A 
ENDBRANCH  16  19
ENDBRANCH  15  16
ENDBRANCH  14  15
ENDBRANCH   5  14
TORSDOF 6
ENDMDL
MODEL 7
REMARK VINA RESULT:      -7.6      3.516      5.511
REMARK  Name = 
REMARK  8 active torsions:
REMARK  status: ('A' for Active; 'I' for Inactive)
REMARK    1  A    between atoms: C_1  and  C_2
REMARK    2  A    between atoms: C_2  and  C_3
REMARK    3  A    between atoms: C_2  and  C_4
REMARK    4  A    between atoms: C_6  and  C_7
REMARK    5  A    between atoms: N_11  and  C_12
REMARK    6  A    between atoms: C_12  and  C_13
REMARK    7  A    between atoms: C_13  and  S_14
REMARK    8  A    between atoms: S_14  and  C_17
REMARK                            x       y       z     vdW  Elec       q    Type
REMARK                         _______ _______ _______ _____ _____    ______ ____
ROOT
ATOM      1  C   UNL     1       3.025   2.561  19.136  0.00  0.00    +0.000 C 
ATOM      2  C   UNL     1       1.832   2.755  18.210  0.00  0.00    +0.000 C 
ATOM      3  C   UNL     1       0.672   2.306  19.066  0.00  0.00    +0.000 C 
ATOM      4  C   UNL     1       1.102   2.620  20.495  0.00  0.00    +0.000 C 
ATOM      5  N   UNL     1       2.540   2.977  20.489  0.00  0.00    +0.000 NA
ENDROOT
BRANCH   1   8
ATOM      6  C   UNL     1       5.491   4.258  17.265  0.00  0.00    +0.000 A 
ATOM      7  N   UNL     1       4.338   3.630  17.289  0.00  0.00    +0.000 NA
ATOM      8  C   UNL     1       4.288   3.147  18.579  0.00  0.00    +0.000 A 
ATOM      9  N   UNL     1       5.358   3.467  19.327  0.00  0.00    +0.000 NA
ATOM     10  O   UNL     1       6.172   4.180  18.445  0.00  0.00    +0.000 OA
BRANCH   6  12
ATOM     11  C   UNL     1       6.120   4.304  14.857  0.00  0.00    +0.000 C 
ATOM     12  C   UNL     1       6.086   5.079  16.173  0.00  0.00    +0.000 C 
ATOM     13  C   UNL     1       5.351   6.406  16.007  0.00  0.00    +0.000 C 
ENDBRANCH   6  12
ENDBRANCH   1   8
BRANCH   5  14
ATOM     14  C   UNL     1       2.769   4.391  20.860  0.00  0.00    +0.000 C 
BRANCH  14  15
ATOM     15  C   UNL     1       1.750   5.335  20.207  0.00  0.00    +0.000 C 
BRANCH  15  16
ATOM     16  S   UNL     1       2.534   6.457  19.065  0.00  0.00    +0.000 S 
ATOM     17  O   UNL     1       3.947   6.537  19.376  0.00  0.00    +0.000 OA
ATOM     18  O   UNL     1       2.082   6.138  17.722  0.00  0.00    +0.000 OA
BRANCH  16  19
ATOM     19  C   UNL     1       1.807   8.030  19.500  0.00  0.00    +0.000 A 
ATOM     20  C   UNL     1       1.668   9.018  18.521  0.00  0.00    +0.000 A 
ATOM     21  C   UNL     1       1.133  10.259  18.871  0.00  0.00    +0.000 A 
ATOM     22  C   UNL     1       0.728  10.502  20.186  0.00  0.00    +0.000 A 
ATOM     23  C   UNL     1       0.839   9.501  21.151  0.00  0.00    +0.000 A 
ATOM     24  C   UNL     1       1.373   8.256  20.810  0.00  0.00    +0.000 A 
ENDBRANCH  16  19
ENDBRANCH  15  16
ENDBRANCH  14  15
ENDBRANCH   5  14
TORSDOF 6
ENDMDL
MODEL 8
REMARK VINA RESULT:      -7.6      3.563      5.633
REMARK  Name = 
REMARK  8 active torsions:
REMARK  status: ('A' for Active; 'I' for Inactive)
REMARK    1  A    between atoms: C_1  and  C_2
REMARK    2  A    between atoms: C_2  and  C_3
REMARK    3  A    between atoms: C_2  and  C_4
REMARK    4  A    between atoms: C_6  and  C_7
REMARK    5  A    between atoms: N_11  and  C_12
REMARK    6  A    between atoms: C_12  and  C_13
REMARK    7  A    between atoms: C_13  and  S_14
REMARK    8  A    between atoms: S_14  and  C_17
REMARK                            x       y       z     vdW  Elec       q    Type
REMARK                         _______ _______ _______ _____ _____    ______ ____
ROOT
ATOM      1  C   UNL     1       3.038   2.636  19.039  0.00  0.00    +0.000 C 
ATOM      2  C   UNL     1       1.916   2.880  18.041  0.00  0.00    +0.000 C 
ATOM      3  C   UNL     1       0.703   2.358  18.773  0.00  0.00    +0.000 C 
ATOM      4  C   UNL     1       1.018   2.577  20.249  0.00  0.00    +0.000 C 
ATOM      5  N   UNL     1       2.446   2.950  20.377  0.00  0.00    +0.000 NA
ENDROOT
BRANCH   1   8
ATOM      6  C   UNL     1       5.598   4.541  17.529  0.00  0.00    +0.000 A 
ATOM      7  N   UNL     1       4.438   3.936  17.418  0.00  0.00    +0.000 NA
ATOM      8  C   UNL     1       4.330   3.274  18.623  0.00  0.00    +0.000 A 
ATOM      9  N   UNL     1       5.372   3.466  19.449  0.00  0.00    +0.000 NA
ATOM     10  O   UNL     1       6.229   4.285  18.712  0.00  0.00    +0.000 OA
BRANCH   6  12
ATOM     11  C   UNL     1       5.201   6.302  15.815  0.00  0.00    +0.000 C 
ATOM     12  C   UNL     1       6.246   5.501  16.591  0.00  0.00    +0.000 C 
ATOM     13  C   UNL     1       7.216   6.427  17.318  0.00  0.00    +0.000 C 
ENDBRANCH   6  12
ENDBRANCH   1   8
BRANCH   5  14
ATOM     14  C   UNL     1       2.622   4.338  20.861  0.00  0.00    +0.000 C 
BRANCH  14  15
ATOM     15  C   UNL     1       1.628   5.310  20.211  0.00  0.00    +0.000 C 
BRANCH  15  16
ATOM     16  S   UNL     1       2.463   6.550  19.240  0.00  0.00    +0.000 S 
ATOM     17  O   UNL     1       3.864   6.579  19.614  0.00  0.00    +0.000 OA
ATOM     18  O   UNL     1       2.064   6.396  17.852  0.00  0.00    +0.000 OA
BRANCH  16  19
ATOM     19  C   UNL     1       1.729   8.069  19.828  0.00  0.00    +0.000 A 
ATOM     20  C   UNL     1       1.416   8.203  21.183  0.00  0.00    +0.000 A 
ATOM     21  C   UNL     1       0.809   9.376  21.634  0.00  0.00    +0.000 A 
ATOM     22  C   UNL     1       0.534  10.412  20.738  0.00  0.00    +0.000 A 
ATOM     23  C   UNL     1       0.879  10.285  19.392  0.00  0.00    +0.000 A 
ATOM     24  C   UNL     1       1.487   9.115  18.932  0.00  0.00    +0.000 A 
ENDBRANCH  16  19
ENDBRANCH  15  16
ENDBRANCH  14  15
ENDBRANCH   5  14
TORSDOF 6
ENDMDL
MODEL 9
REMARK VINA RESULT:      -7.5      1.664      1.961
REMARK  Name = 
REMARK  8 active torsions:
REMARK  status: ('A' for Active; 'I' for Inactive)
REMARK    1  A    between atoms: C_1  and  C_2
REMARK    2  A    between atoms: C_2  and  C_3
REMARK    3  A    between atoms: C_2  and  C_4
REMARK    4  A    between atoms: C_6  and  C_7
REMARK    5  A    between atoms: N_11  and  C_12
REMARK    6  A    between atoms: C_12  and  C_13
REMARK    7  A    between atoms: C_13  and  S_14
REMARK    8  A    between atoms: S_14  and  C_17
REMARK                            x       y       z     vdW  Elec       q    Type
REMARK                         _______ _______ _______ _____ _____    ______ ____
ROOT
ATOM      1  C   UNL     1       7.194   5.657  16.557  0.00  0.00    +0.000 C 
ATOM      2  C   UNL     1       7.526   4.900  17.834  0.00  0.00    +0.000 C 
ATOM      3  C   UNL     1       7.956   6.004  18.771  0.00  0.00    +0.000 C 
ATOM      4  C   UNL     1       7.171   7.228  18.312  0.00  0.00    +0.000 C 
ATOM      5  N   UNL     1       6.531   6.919  17.011  0.00  0.00    +0.000 NA
ENDROOT
BRANCH   1   8
ATOM      6  C   UNL     1       6.259   3.864  13.664  0.00  0.00    +0.000 A 
ATOM      7  N   UNL     1       6.834   4.921  14.190  0.00  0.00    +0.000 NA
ATOM      8  C   UNL     1       6.531   4.790  15.528  0.00  0.00    +0.000 A 
ATOM      9  N   UNL     1       5.808   3.697  15.823  0.00  0.00    +0.000 NA
ATOM     10  O   UNL     1       5.601   3.095  14.581  0.00  0.00    +0.000 OA
BRANCH   6  12
ATOM     11  C   UNL     1       4.896   3.230  11.679  0.00  0.00    +0.000 C 
ATOM     12  C   UNL     1       6.304   3.378  12.256  0.00  0.00    +0.000 C 
ATOM     13  C   UNL     1       7.162   4.283  11.378  0.00  0.00    +0.000 C 
ENDBRANCH   6  12
ENDBRANCH   1   8
BRANCH   5  14
ATOM     14  C   UNL     1       5.055   6.885  17.106  0.00  0.00    +0.000 C 
BRANCH  14  15
ATOM     15  C   UNL     1       4.572   6.265  18.425  0.00  0.00    +0.000 C 
BRANCH  15  16
ATOM     16  S   UNL     1       2.828   6.534  18.676  0.00  0.00    +0.000 S 
ATOM     17  O   UNL     1       2.629   7.182  19.958  0.00  0.00    +0.000 OA
ATOM     18  O   UNL     1       2.268   7.096  17.460  0.00  0.00    +0.000 OA
BRANCH  16  19
ATOM     19  C   UNL     1       2.192   4.870  18.822  0.00  0.00    +0.000 A 
ATOM     20  C   UNL     1       1.467   4.508  19.961  0.00  0.00    +0.000 A 
ATOM     21  C   UNL     1       1.002   3.198  20.089  0.00  0.00    +0.000 A 
ATOM     22  C   UNL     1       1.248   2.264  19.079  0.00  0.00    +0.000 A 
ATOM     23  C   UNL     1       1.944   2.641  17.930  0.00  0.00    +0.000 A 
ATOM     24  C   UNL     1       2.412   3.950  17.793  0.00  0.00    +0.000 A 
ENDBRANCH  16  19
ENDBRANCH  15  16
ENDBRANCH  14  15
ENDBRANCH   5  14
TORSDOF 6
ENDMDL
