MODEL 1
REMARK VINA RESULT:      -7.4      0.000      0.000
REMARK  Name = 
REMARK  7 active torsions:
REMARK  status: ('A' for Active; 'I' for Inactive)
REMARK    1  A    between atoms: C_2  and  C_30
REMARK    2  A    between atoms: N_3  and  C_4
REMARK    3  A    between atoms: C_6  and  C_7
REMARK    4  A    between atoms: C_10  and  C_11
REMARK    5  A    between atoms: C_14  and  O_15
REMARK    6  A    between atoms: O_15  and  C_16
REMARK    7  A    between atoms: N_21  and  C_22
REMARK                            x       y       z     vdW  Elec       q    Type
REMARK                         _______ _______ _______ _____ _____    ______ ____
ROOT
ATOM      1  C   UNL     1       0.527   9.735  21.723  0.00  0.00    +0.000 A 
ATOM      2  N   UNL     1      -0.013   9.233  22.818  0.00  0.00    +0.000 NA
ATOM      3  N   UNL     1      -0.725  10.221  23.441  0.00  0.00    +0.000 NA
ATOM      4  C   UNL     1      -0.691  11.310  22.691  0.00  0.00    +0.000 A 
ATOM      5  N   UNL     1       0.151  11.068  21.599  0.00  0.00    +0.000 N 
ENDROOT
BRANCH   5   6
ATOM      6  C   UNL     1       0.524  11.975  20.574  0.00  0.00    +0.000 A 
ATOM      7  C   UNL     1       1.760  12.625  20.622  0.00  0.00    +0.000 A 
ATOM      8  C   UNL     1       2.155  13.464  19.576  0.00  0.00    +0.000 A 
ATOM      9  C   UNL     1       1.330  13.640  18.467  0.00  0.00    +0.000 A 
ATOM     10  C   UNL     1       0.095  12.997  18.414  0.00  0.00    +0.000 A 
ATOM     11  C   UNL     1      -0.310  12.185  19.471  0.00  0.00    +0.000 A 
ATOM     12  F   UNL     1      -1.542  11.657  19.421  0.00  0.00    +0.000 F 
ENDBRANCH   5   6
BRANCH   4  13
ATOM     13  C   UNL     1      -1.511  12.502  22.934  0.00  0.00    +0.000 A 
ATOM     14  C   UNL     1      -2.849  12.568  22.560  0.00  0.00    +0.000 A 
ATOM     15  C   UNL     1      -3.572  13.743  22.804  0.00  0.00    +0.000 A 
ATOM     16  C   UNL     1      -2.933  14.826  23.399  0.00  0.00    +0.000 A 
ATOM     17  C   UNL     1      -1.600  14.664  23.755  0.00  0.00    +0.000 A 
ATOM     18  N   UNL     1      -0.871  13.549  23.515  0.00  0.00    +0.000 NA
BRANCH  16  19
ATOM     19  O   UNL     1      -3.500  16.028  23.697  0.00  0.00    +0.000 OA
BRANCH  19  20
ATOM     20  C   UNL     1      -3.562  16.336  25.080  0.00  0.00    +0.000 C 
ATOM     21  F   UNL     1      -2.753  17.395  25.326  0.00  0.00    +0.000 F 
ATOM     22  F   UNL     1      -4.830  16.743  25.344  0.00  0.00    +0.000 F 
ENDBRANCH  19  20
ENDBRANCH  16  19
ENDBRANCH   4  13
BRANCH   1  25
ATOM     23  C   UNL     1       1.673   7.401  19.385  0.00  0.00    +0.000 C 
ATOM     24  C   UNL     1       1.404   7.404  20.901  0.00  0.00    +0.000 C 
ATOM     25  C   UNL     1       1.575   8.948  20.915  0.00  0.00    +0.000 C 
ATOM     26  C   UNL     1       1.345   8.908  19.381  0.00  0.00    +0.000 C 
BRANCH  23  29
ATOM     27  O   UNL     1       2.440   5.185  17.798  0.00  0.00    +0.000 OA
ATOM     28  C   UNL     1       3.321   5.921  18.234  0.00  0.00    +0.000 C 
ATOM     29  N   UNL     1       3.055   7.065  18.972  0.00  0.00    +0.000 N 
ATOM     30  H   UNL     1       3.873   7.549  19.335  0.00  0.00    +0.000 HD
BRANCH  28  31
ATOM     31  C   UNL     1       4.768   5.614  17.984  0.00  0.00    +0.000 A 
ATOM     32  C   UNL     1       5.197   5.408  16.674  0.00  0.00    +0.000 A 
ATOM     33  C   UNL     1       6.542   5.130  16.452  0.00  0.00    +0.000 A 
ATOM     34  C   UNL     1       7.409   5.062  17.537  0.00  0.00    +0.000 A 
ATOM     35  C   UNL     1       6.892   5.275  18.808  0.00  0.00    +0.000 A 
ATOM     36  N   UNL     1       5.591   5.554  19.067  0.00  0.00    +0.000 NA
ENDBRANCH  28  31
ENDBRANCH  23  29
ENDBRANCH   1  25
TORSDOF 7
ENDMDL
MODEL 2
REMARK VINA RESULT:      -7.4      3.147     10.863
REMARK  Name = 
REMARK  7 active torsions:
REMARK  status: ('A' for Active; 'I' for Inactive)
REMARK    1  A    between atoms: C_2  and  C_30
REMARK    2  A    between atoms: N_3  and  C_4
REMARK    3  A    between atoms: C_6  and  C_7
REMARK    4  A    between atoms: C_10  and  C_11
REMARK    5  A    between atoms: C_14  and  O_15
REMARK    6  A    between atoms: O_15  and  C_16
REMARK    7  A    between atoms: N_21  and  C_22
REMARK                            x       y       z     vdW  Elec       q    Type
REMARK                         _______ _______ _______ _____ _____    ______ ____
ROOT
ATOM      1  C   UNL     1      -0.722  11.174  21.821  0.00  0.00    +0.000 A 
ATOM      2  N   UNL     1       0.038  10.677  22.779  0.00  0.00    +0.000 NA
ATOM      3  N   UNL     1       0.784   9.659  22.255  0.00  0.00    +0.000 NA
ATOM      4  C   UNL     1       0.546   9.579  20.956  0.00  0.00    +0.000 A 
ATOM      5  N   UNL     1      -0.462  10.496  20.635  0.00  0.00    +0.000 N 
ENDROOT
BRANCH   5   6
ATOM      6  C   UNL     1      -1.071  10.709  19.372  0.00  0.00    +0.000 A 
ATOM      7  C   UNL     1      -1.977   9.775  18.859  0.00  0.00    +0.000 A 
ATOM      8  C   UNL     1      -2.629  10.020  17.648  0.00  0.00    +0.000 A 
ATOM      9  C   UNL     1      -2.399  11.206  16.953  0.00  0.00    +0.000 A 
ATOM     10  C   UNL     1      -1.496  12.139  17.457  0.00  0.00    +0.000 A 
ATOM     11  C   UNL     1      -0.824  11.880  18.649  0.00  0.00    +0.000 A 
ATOM     12  F   UNL     1       0.102  12.762  19.053  0.00  0.00    +0.000 F 
ENDBRANCH   5   6
BRANCH   4  13
ATOM     13  C   UNL     1       1.317   8.745  20.027  0.00  0.00    +0.000 A 
ATOM     14  C   UNL     1       1.593   9.150  18.726  0.00  0.00    +0.000 A 
ATOM     15  C   UNL     1       2.319   8.299  17.883  0.00  0.00    +0.000 A 
ATOM     16  C   UNL     1       2.733   7.059  18.357  0.00  0.00    +0.000 A 
ATOM     17  C   UNL     1       2.428   6.745  19.676  0.00  0.00    +0.000 A 
ATOM     18  N   UNL     1       1.713   7.538  20.508  0.00  0.00    +0.000 NA
BRANCH  16  19
ATOM     19  O   UNL     1       3.442   6.127  17.660  0.00  0.00    +0.000 OA
BRANCH  19  20
ATOM     20  C   UNL     1       2.960   4.798  17.773  0.00  0.00    +0.000 C 
ATOM     21  F   UNL     1       1.661   4.774  17.386  0.00  0.00    +0.000 F 
ATOM     22  F   UNL     1       3.649   4.044  16.879  0.00  0.00    +0.000 F 
ENDBRANCH  19  20
ENDBRANCH  16  19
ENDBRANCH   4  13
BRANCH   1  25
ATOM     23  C   UNL     1      -2.568  13.404  23.783  0.00  0.00    +0.000 C 
ATOM     24  C   UNL     1      -2.662  11.909  23.426  0.00  0.00    +0.000 C 
ATOM     25  C   UNL     1      -1.845  12.179  22.132  0.00  0.00    +0.000 C 
ATOM     26  C   UNL     1      -1.390  13.508  22.792  0.00  0.00    +0.000 C 
BRANCH  23  29
ATOM     27  O   UNL     1      -3.469  15.691  25.189  0.00  0.00    +0.000 OA
ATOM     28  C   UNL     1      -4.127  15.302  24.228  0.00  0.00    +0.000 C 
ATOM     29  N   UNL     1      -3.747  14.230  23.434  0.00  0.00    +0.000 N 
ATOM     30  H   UNL     1      -4.414  13.963  22.714  0.00  0.00    +0.000 HD
BRANCH  28  31
ATOM     31  C   UNL     1      -5.409  15.985  23.852  0.00  0.00    +0.000 A 
ATOM     32  C   UNL     1      -6.474  15.214  23.390  0.00  0.00    +0.000 A 
ATOM     33  C   UNL     1      -7.661  15.856  23.050  0.00  0.00    +0.000 A 
ATOM     34  C   UNL     1      -7.744  17.238  23.177  0.00  0.00    +0.000 A 
ATOM     35  C   UNL     1      -6.630  17.926  23.640  0.00  0.00    +0.000 A 
ATOM     36  N   UNL     1      -5.459  17.339  23.988  0.00  0.00    +0.000 NA
ENDBRANCH  28  31
ENDBRANCH  23  29
ENDBRANCH   1  25
TORSDOF 7
ENDMDL
MODEL 3
REMARK VINA RESULT:      -7.3      1.574      1.968
REMARK  Name = 
REMARK  7 active torsions:
REMARK  status: ('A' for Active; 'I' for Inactive)
REMARK    1  A    between atoms: C_2  and  C_30
REMARK    2  A    between atoms: N_3  and  C_4
REMARK    3  A    between atoms: C_6  and  C_7
REMARK    4  A    between atoms: C_10  and  C_11
REMARK    5  A    between atoms: C_14  and  O_15
REMARK    6  A    between atoms: O_15  and  C_16
REMARK    7  A    between atoms: N_21  and  C_22
REMARK                            x       y       z     vdW  Elec       q    Type
REMARK                         _______ _______ _______ _____ _____    ______ ____
ROOT
ATOM      1  C   UNL     1       0.619   9.653  21.729  0.00  0.00    +0.000 A 
ATOM      2  N   UNL     1       0.445   9.234  22.968  0.00  0.00    +0.000 NA
ATOM      3  N   UNL     1      -0.302  10.163  23.638  0.00  0.00    +0.000 NA
ATOM      4  C   UNL     1      -0.658  11.115  22.792  0.00  0.00    +0.000 A 
ATOM      5  N   UNL     1      -0.043  10.865  21.560  0.00  0.00    +0.000 N 
ENDROOT
BRANCH   5   6
ATOM      6  C   UNL     1      -0.097  11.658  20.385  0.00  0.00    +0.000 A 
ATOM      7  C   UNL     1      -1.201  11.578  19.531  0.00  0.00    +0.000 A 
ATOM      8  C   UNL     1      -1.286  12.411  18.412  0.00  0.00    +0.000 A 
ATOM      9  C   UNL     1      -0.283  13.344  18.152  0.00  0.00    +0.000 A 
ATOM     10  C   UNL     1       0.821  13.426  18.998  0.00  0.00    +0.000 A 
ATOM     11  C   UNL     1       0.918  12.574  20.096  0.00  0.00    +0.000 A 
ATOM     12  F   UNL     1       2.038  12.625  20.833  0.00  0.00    +0.000 F 
ENDBRANCH   5   6
BRANCH   4  13
ATOM     13  C   UNL     1      -1.634  12.167  23.100  0.00  0.00    +0.000 A 
ATOM     14  C   UNL     1      -1.282  13.512  23.144  0.00  0.00    +0.000 A 
ATOM     15  C   UNL     1      -2.257  14.466  23.462  0.00  0.00    +0.000 A 
ATOM     16  C   UNL     1      -3.553  14.048  23.745  0.00  0.00    +0.000 A 
ATOM     17  C   UNL     1      -3.819  12.687  23.660  0.00  0.00    +0.000 A 
ATOM     18  N   UNL     1      -2.894  11.741  23.373  0.00  0.00    +0.000 NA
BRANCH  16  19
ATOM     19  O   UNL     1      -4.604  14.852  24.070  0.00  0.00    +0.000 OA
BRANCH  19  20
ATOM     20  C   UNL     1      -5.793  14.613  23.335  0.00  0.00    +0.000 C 
ATOM     21  F   UNL     1      -6.805  14.390  24.208  0.00  0.00    +0.000 F 
ATOM     22  F   UNL     1      -6.093  15.759  22.673  0.00  0.00    +0.000 F 
ENDBRANCH  19  20
ENDBRANCH  16  19
ENDBRANCH   4  13
BRANCH   1  25
ATOM     23  C   UNL     1       1.614   7.418  19.230  0.00  0.00    +0.000 C 
ATOM     24  C   UNL     1       1.553   7.398  20.769  0.00  0.00    +0.000 C 
ATOM     25  C   UNL     1       1.605   8.951  20.778  0.00  0.00    +0.000 C 
ATOM     26  C   UNL     1       1.175   8.895  19.288  0.00  0.00    +0.000 C 
BRANCH  23  29
ATOM     27  O   UNL     1       2.385   5.168  17.694  0.00  0.00    +0.000 OA
ATOM     28  C   UNL     1       3.232   6.023  17.939  0.00  0.00    +0.000 C 
ATOM     29  N   UNL     1       2.949   7.191  18.631  0.00  0.00    +0.000 N 
ATOM     30  H   UNL     1       3.752   7.784  18.830  0.00  0.00    +0.000 HD
BRANCH  28  31
ATOM     31  C   UNL     1       4.652   5.844  17.488  0.00  0.00    +0.000 A 
ATOM     32  C   UNL     1       5.099   4.566  17.157  0.00  0.00    +0.000 A 
ATOM     33  C   UNL     1       6.415   4.412  16.734  0.00  0.00    +0.000 A 
ATOM     34  C   UNL     1       7.239   5.529  16.661  0.00  0.00    +0.000 A 
ATOM     35  C   UNL     1       6.710   6.763  17.017  0.00  0.00    +0.000 A 
ATOM     36  N   UNL     1       5.433   6.957  17.427  0.00  0.00    +0.000 NA
ENDBRANCH  28  31
ENDBRANCH  23  29
ENDBRANCH   1  25
TORSDOF 7
ENDMDL
MODEL 4
REMARK VINA RESULT:      -7.3      1.155      1.553
REMARK  Name = 
REMARK  7 active torsions:
REMARK  status: ('A' for Active; 'I' for Inactive)
REMARK    1  A    between atoms: C_2  and  C_30
REMARK    2  A    between atoms: N_3  and  C_4
REMARK    3  A    between atoms: C_6  and  C_7
REMARK    4  A    between atoms: C_10  and  C_11
REMARK    5  A    between atoms: C_14  and  O_15
REMARK    6  A    between atoms: O_15  and  C_16
REMARK    7  A    between atoms: N_21  and  C_22
REMARK                            x       y       z     vdW  Elec       q    Type
REMARK                         _______ _______ _______ _____ _____    ______ ____
ROOT
ATOM      1  C   UNL     1       0.765   9.574  21.590  0.00  0.00    +0.000 A 
ATOM      2  N   UNL     1       0.620   9.164  22.836  0.00  0.00    +0.000 NA
ATOM      3  N   UNL     1      -0.099  10.106  23.519  0.00  0.00    +0.000 NA
ATOM      4  C   UNL     1      -0.466  11.058  22.677  0.00  0.00    +0.000 A 
ATOM      5  N   UNL     1       0.113  10.792  21.431  0.00  0.00    +0.000 N 
ENDROOT
BRANCH   5   6
ATOM      6  C   UNL     1       0.036  11.579  20.253  0.00  0.00    +0.000 A 
ATOM      7  C   UNL     1      -1.076  11.482  19.411  0.00  0.00    +0.000 A 
ATOM      8  C   UNL     1      -1.183  12.308  18.289  0.00  0.00    +0.000 A 
ATOM      9  C   UNL     1      -0.193  13.250  18.014  0.00  0.00    +0.000 A 
ATOM     10  C   UNL     1       0.919  13.350  18.846  0.00  0.00    +0.000 A 
ATOM     11  C   UNL     1       1.038  12.505  19.948  0.00  0.00    +0.000 A 
ATOM     12  F   UNL     1       2.165  12.572  20.672  0.00  0.00    +0.000 F 
ENDBRANCH   5   6
BRANCH   4  13
ATOM     13  C   UNL     1      -1.421  12.123  23.004  0.00  0.00    +0.000 A 
ATOM     14  C   UNL     1      -2.750  11.855  23.313  0.00  0.00    +0.000 A 
ATOM     15  C   UNL     1      -3.616  12.919  23.599  0.00  0.00    +0.000 A 
ATOM     16  C   UNL     1      -3.134  14.222  23.549  0.00  0.00    +0.000 A 
ATOM     17  C   UNL     1      -1.789  14.395  23.249  0.00  0.00    +0.000 A 
ATOM     18  N   UNL     1      -0.933  13.389  22.951  0.00  0.00    +0.000 NA
BRANCH  16  19
ATOM     19  O   UNL     1      -3.850  15.354  23.799  0.00  0.00    +0.000 OA
BRANCH  19  20
ATOM     20  C   UNL     1      -3.453  16.073  24.955  0.00  0.00    +0.000 C 
ATOM     21  F   UNL     1      -4.512  16.790  25.405  0.00  0.00    +0.000 F 
ATOM     22  F   UNL     1      -3.161  15.159  25.916  0.00  0.00    +0.000 F 
ENDBRANCH  19  20
ENDBRANCH  16  19
ENDBRANCH   4  13
BRANCH   1  25
ATOM     23  C   UNL     1       1.667   7.312  19.080  0.00  0.00    +0.000 C 
ATOM     24  C   UNL     1       1.646   7.302  20.619  0.00  0.00    +0.000 C 
ATOM     25  C   UNL     1       1.717   8.854  20.618  0.00  0.00    +0.000 C 
ATOM     26  C   UNL     1       1.247   8.795  19.140  0.00  0.00    +0.000 C 
BRANCH  23  29
ATOM     27  O   UNL     1       2.436   4.956  17.711  0.00  0.00    +0.000 OA
ATOM     28  C   UNL     1       3.269   5.849  17.846  0.00  0.00    +0.000 C 
ATOM     29  N   UNL     1       2.983   7.066  18.447  0.00  0.00    +0.000 N 
ATOM     30  H   UNL     1       3.777   7.692  18.562  0.00  0.00    +0.000 HD
BRANCH  28  31
ATOM     31  C   UNL     1       4.674   5.665  17.354  0.00  0.00    +0.000 A 
ATOM     32  C   UNL     1       5.608   6.673  17.585  0.00  0.00    +0.000 A 
ATOM     33  C   UNL     1       6.910   6.490  17.132  0.00  0.00    +0.000 A 
ATOM     34  C   UNL     1       7.235   5.317  16.461  0.00  0.00    +0.000 A 
ATOM     35  C   UNL     1       6.239   4.368  16.270  0.00  0.00    +0.000 A 
ATOM     36  N   UNL     1       4.961   4.505  16.702  0.00  0.00    +0.000 NA
ENDBRANCH  28  31
ENDBRANCH  23  29
ENDBRANCH   1  25
TORSDOF 7
ENDMDL
MODEL 5
REMARK VINA RESULT:      -7.3      1.174      1.415
REMARK  Name = 
REMARK  7 active torsions:
REMARK  status: ('A' for Active; 'I' for Inactive)
REMARK    1  A    between atoms: C_2  and  C_30
REMARK    2  A    between atoms: N_3  and  C_4
REMARK    3  A    between atoms: C_6  and  C_7
REMARK    4  A    between atoms: C_10  and  C_11
REMARK    5  A    between atoms: C_14  and  O_15
REMARK    6  A    between atoms: O_15  and  C_16
REMARK    7  A    between atoms: N_21  and  C_22
REMARK                            x       y       z     vdW  Elec       q    Type
REMARK                         _______ _______ _______ _____ _____    ______ ____
ROOT
ATOM      1  C   UNL     1       0.447   9.685  21.794  0.00  0.00    +0.000 A 
ATOM      2  N   UNL     1       0.026   9.148  22.923  0.00  0.00    +0.000 NA
ATOM      3  N   UNL     1      -0.720  10.078  23.593  0.00  0.00    +0.000 NA
ATOM      4  C   UNL     1      -0.827  11.161  22.842  0.00  0.00    +0.000 A 
ATOM      5  N   UNL     1      -0.045  10.982  21.695  0.00  0.00    +0.000 N 
ENDROOT
BRANCH   5   6
ATOM      6  C   UNL     1       0.181  11.910  20.646  0.00  0.00    +0.000 A 
ATOM      7  C   UNL     1       1.367  12.648  20.599  0.00  0.00    +0.000 A 
ATOM      8  C   UNL     1       1.619  13.509  19.528  0.00  0.00    +0.000 A 
ATOM      9  C   UNL     1       0.699  13.621  18.486  0.00  0.00    +0.000 A 
ATOM     10  C   UNL     1      -0.486  12.891  18.528  0.00  0.00    +0.000 A 
ATOM     11  C   UNL     1      -0.749  12.056  19.612  0.00  0.00    +0.000 A 
ATOM     12  F   UNL     1      -1.939  11.441  19.656  0.00  0.00    +0.000 F 
ENDBRANCH   5   6
BRANCH   4  13
ATOM     13  C   UNL     1      -1.724  12.283  23.140  0.00  0.00    +0.000 A 
ATOM     14  C   UNL     1      -1.272  13.597  23.190  0.00  0.00    +0.000 A 
ATOM     15  C   UNL     1      -2.176  14.622  23.498  0.00  0.00    +0.000 A 
ATOM     16  C   UNL     1      -3.503  14.304  23.765  0.00  0.00    +0.000 A 
ATOM     17  C   UNL     1      -3.870  12.967  23.675  0.00  0.00    +0.000 A 
ATOM     18  N   UNL     1      -3.016  11.954  23.398  0.00  0.00    +0.000 NA
BRANCH  16  19
ATOM     19  O   UNL     1      -4.494  15.185  24.079  0.00  0.00    +0.000 OA
BRANCH  19  20
ATOM     20  C   UNL     1      -5.688  15.038  23.329  0.00  0.00    +0.000 C 
ATOM     21  F   UNL     1      -6.626  15.873  23.839  0.00  0.00    +0.000 F 
ATOM     22  F   UNL     1      -5.426  15.467  22.068  0.00  0.00    +0.000 F 
ENDBRANCH  19  20
ENDBRANCH  16  19
ENDBRANCH   4  13
BRANCH   1  25
ATOM     23  C   UNL     1       1.605   7.557  19.273  0.00  0.00    +0.000 C 
ATOM     24  C   UNL     1       1.356   7.441  20.788  0.00  0.00    +0.000 C 
ATOM     25  C   UNL     1       1.499   8.982  20.917  0.00  0.00    +0.000 C 
ATOM     26  C   UNL     1       1.250   9.054  19.387  0.00  0.00    +0.000 C 
BRANCH  23  29
ATOM     27  O   UNL     1       2.464   5.247  17.880  0.00  0.00    +0.000 OA
ATOM     28  C   UNL     1       3.306   6.086  18.188  0.00  0.00    +0.000 C 
ATOM     29  N   UNL     1       2.987   7.280  18.819  0.00  0.00    +0.000 N 
ATOM     30  H   UNL     1       3.782   7.857  19.085  0.00  0.00    +0.000 HD
BRANCH  28  31
ATOM     31  C   UNL     1       4.759   5.859  17.890  0.00  0.00    +0.000 A 
ATOM     32  C   UNL     1       5.220   6.058  16.591  0.00  0.00    +0.000 A 
ATOM     33  C   UNL     1       6.569   5.852  16.325  0.00  0.00    +0.000 A 
ATOM     34  C   UNL     1       7.410   5.451  17.358  0.00  0.00    +0.000 A 
ATOM     35  C   UNL     1       6.862   5.271  18.622  0.00  0.00    +0.000 A 
ATOM     36  N   UNL     1       5.555   5.468  18.923  0.00  0.00    +0.000 NA
ENDBRANCH  28  31
ENDBRANCH  23  29
ENDBRANCH   1  25
TORSDOF 7
ENDMDL
MODEL 6
REMARK VINA RESULT:      -7.3      1.153      1.619
REMARK  Name = 
REMARK  7 active torsions:
REMARK  status: ('A' for Active; 'I' for Inactive)
REMARK    1  A    between atoms: C_2  and  C_30
REMARK    2  A    between atoms: N_3  and  C_4
REMARK    3  A    between atoms: C_6  and  C_7
REMARK    4  A    between atoms: C_10  and  C_11
REMARK    5  A    between atoms: C_14  and  O_15
REMARK    6  A    between atoms: O_15  and  C_16
REMARK    7  A    between atoms: N_21  and  C_22
REMARK                            x       y       z     vdW  Elec       q    Type
REMARK                         _______ _______ _______ _____ _____    ______ ____
ROOT
ATOM      1  C   UNL     1       0.773   9.494  21.614  0.00  0.00    +0.000 A 
ATOM      2  N   UNL     1       0.667   9.122  22.876  0.00  0.00    +0.000 NA
ATOM      3  N   UNL     1      -0.066  10.063  23.544  0.00  0.00    +0.000 NA
ATOM      4  C   UNL     1      -0.482  10.974  22.680  0.00  0.00    +0.000 A 
ATOM      5  N   UNL     1       0.079  10.686  21.430  0.00  0.00    +0.000 N 
ENDROOT
BRANCH   5   6
ATOM      6  C   UNL     1      -0.048  11.430  20.230  0.00  0.00    +0.000 A 
ATOM      7  C   UNL     1      -1.143  11.224  19.385  0.00  0.00    +0.000 A 
ATOM      8  C   UNL     1      -1.304  12.007  18.239  0.00  0.00    +0.000 A 
ATOM      9  C   UNL     1      -0.387  13.014  17.941  0.00  0.00    +0.000 A 
ATOM     10  C   UNL     1       0.707  13.222  18.777  0.00  0.00    +0.000 A 
ATOM     11  C   UNL     1       0.882  12.421  19.903  0.00  0.00    +0.000 A 
ATOM     12  F   UNL     1       1.995  12.595  20.631  0.00  0.00    +0.000 F 
ENDBRANCH   5   6
BRANCH   4  13
ATOM     13  C   UNL     1      -1.463  12.019  22.994  0.00  0.00    +0.000 A 
ATOM     14  C   UNL     1      -1.153  13.372  22.913  0.00  0.00    +0.000 A 
ATOM     15  C   UNL     1      -2.130  14.320  23.244  0.00  0.00    +0.000 A 
ATOM     16  C   UNL     1      -3.383  13.890  23.664  0.00  0.00    +0.000 A 
ATOM     17  C   UNL     1      -3.610  12.520  23.698  0.00  0.00    +0.000 A 
ATOM     18  N   UNL     1      -2.681  11.580  23.402  0.00  0.00    +0.000 NA
BRANCH  16  19
ATOM     19  O   UNL     1      -4.430  14.687  24.019  0.00  0.00    +0.000 OA
BRANCH  19  20
ATOM     20  C   UNL     1      -4.071  15.977  24.487  0.00  0.00    +0.000 C 
ATOM     21  F   UNL     1      -5.204  16.678  24.737  0.00  0.00    +0.000 F 
ATOM     22  F   UNL     1      -3.442  15.811  25.678  0.00  0.00    +0.000 F 
ENDBRANCH  19  20
ENDBRANCH  16  19
ENDBRANCH   4  13
BRANCH   1  25
ATOM     23  C   UNL     1       1.652   7.385  18.967  0.00  0.00    +0.000 C 
ATOM     24  C   UNL     1       1.514   7.242  20.494  0.00  0.00    +0.000 C 
ATOM     25  C   UNL     1       1.726   8.773  20.645  0.00  0.00    +0.000 C 
ATOM     26  C   UNL     1       1.367   8.891  19.140  0.00  0.00    +0.000 C 
BRANCH  23  29
ATOM     27  O   UNL     1       2.446   4.892  17.885  0.00  0.00    +0.000 OA
ATOM     28  C   UNL     1       3.281   5.791  17.947  0.00  0.00    +0.000 C 
ATOM     29  N   UNL     1       2.985   7.067  18.404  0.00  0.00    +0.000 N 
ATOM     30  H   UNL     1       3.779   7.700  18.474  0.00  0.00    +0.000 HD
BRANCH  28  31
ATOM     31  C   UNL     1       4.698   5.551  17.520  0.00  0.00    +0.000 A 
ATOM     32  C   UNL     1       5.058   5.811  16.199  0.00  0.00    +0.000 A 
ATOM     33  C   UNL     1       6.377   5.591  15.814  0.00  0.00    +0.000 A 
ATOM     34  C   UNL     1       7.287   5.116  16.752  0.00  0.00    +0.000 A 
ATOM     35  C   UNL     1       6.838   4.879  18.044  0.00  0.00    +0.000 A 
ATOM     36  N   UNL     1       5.565   5.086  18.461  0.00  0.00    +0.000 NA
ENDBRANCH  28  31
ENDBRANCH  23  29
ENDBRANCH   1  25
TORSDOF 7
ENDMDL
MODEL 7
REMARK VINA RESULT:      -7.2      0.903      1.316
REMARK  Name = 
REMARK  7 active torsions:
REMARK  status: ('A' for Active; 'I' for Inactive)
REMARK    1  A    between atoms: C_2  and  C_30
REMARK    2  A    between atoms: N_3  and  C_4
REMARK    3  A    between atoms: C_6  and  C_7
REMARK    4  A    between atoms: C_10  and  C_11
REMARK    5  A    between atoms: C_14  and  O_15
REMARK    6  A    between atoms: O_15  and  C_16
REMARK    7  A    between atoms: N_21  and  C_22
REMARK                            x       y       z     vdW  Elec       q    Type
REMARK                         _______ _______ _______ _____ _____    ______ ____
ROOT
ATOM      1  C   UNL     1       0.455   9.675  21.802  0.00  0.00    +0.000 A 
ATOM      2  N   UNL     1       0.025   9.163  22.940  0.00  0.00    +0.000 NA
ATOM      3  N   UNL     1      -0.730  10.107  23.580  0.00  0.00    +0.000 NA
ATOM      4  C   UNL     1      -0.834  11.171  22.801  0.00  0.00    +0.000 A 
ATOM      5  N   UNL     1      -0.040  10.967  21.666  0.00  0.00    +0.000 N 
ENDROOT
BRANCH   5   6
ATOM      6  C   UNL     1       0.193  11.870  20.597  0.00  0.00    +0.000 A 
ATOM      7  C   UNL     1       1.388  12.593  20.532  0.00  0.00    +0.000 A 
ATOM      8  C   UNL     1       1.646  13.429  19.442  0.00  0.00    +0.000 A 
ATOM      9  C   UNL     1       0.725  13.529  18.401  0.00  0.00    +0.000 A 
ATOM     10  C   UNL     1      -0.469  12.814  18.461  0.00  0.00    +0.000 A 
ATOM     11  C   UNL     1      -0.738  12.005  19.563  0.00  0.00    +0.000 A 
ATOM     12  F   UNL     1      -1.935  11.404  19.624  0.00  0.00    +0.000 F 
ENDBRANCH   5   6
BRANCH   4  13
ATOM     13  C   UNL     1      -1.736  12.298  23.064  0.00  0.00    +0.000 A 
ATOM     14  C   UNL     1      -1.269  13.598  23.222  0.00  0.00    +0.000 A 
ATOM     15  C   UNL     1      -2.181  14.627  23.489  0.00  0.00    +0.000 A 
ATOM     16  C   UNL     1      -3.534  14.326  23.608  0.00  0.00    +0.000 A 
ATOM     17  C   UNL     1      -3.913  13.003  23.416  0.00  0.00    +0.000 A 
ATOM     18  N   UNL     1      -3.053  11.985  23.176  0.00  0.00    +0.000 NA
BRANCH  16  19
ATOM     19  O   UNL     1      -4.536  15.213  23.864  0.00  0.00    +0.000 OA
BRANCH  19  20
ATOM     20  C   UNL     1      -4.112  16.545  24.104  0.00  0.00    +0.000 C 
ATOM     21  F   UNL     1      -5.016  17.393  23.555  0.00  0.00    +0.000 F 
ATOM     22  F   UNL     1      -4.151  16.744  25.446  0.00  0.00    +0.000 F 
ENDBRANCH  19  20
ENDBRANCH  16  19
ENDBRANCH   4  13
BRANCH   1  25
ATOM     23  C   UNL     1       1.643   7.466  19.366  0.00  0.00    +0.000 C 
ATOM     24  C   UNL     1       1.398   7.406  20.885  0.00  0.00    +0.000 C 
ATOM     25  C   UNL     1       1.516   8.954  20.952  0.00  0.00    +0.000 C 
ATOM     26  C   UNL     1       1.266   8.960  19.420  0.00  0.00    +0.000 C 
BRANCH  23  29
ATOM     27  O   UNL     1       2.478   5.274  17.778  0.00  0.00    +0.000 OA
ATOM     28  C   UNL     1       3.333   6.056  18.187  0.00  0.00    +0.000 C 
ATOM     29  N   UNL     1       3.030   7.193  18.922  0.00  0.00    +0.000 N 
ATOM     30  H   UNL     1       3.832   7.718  19.261  0.00  0.00    +0.000 HD
BRANCH  28  31
ATOM     31  C   UNL     1       4.787   5.815  17.904  0.00  0.00    +0.000 A 
ATOM     32  C   UNL     1       5.639   5.510  18.964  0.00  0.00    +0.000 A 
ATOM     33  C   UNL     1       6.983   5.282  18.691  0.00  0.00    +0.000 A 
ATOM     34  C   UNL     1       7.433   5.371  17.378  0.00  0.00    +0.000 A 
ATOM     35  C   UNL     1       6.513   5.687  16.386  0.00  0.00    +0.000 A 
ATOM     36  N   UNL     1       5.195   5.909  16.609  0.00  0.00    +0.000 NA
ENDBRANCH  28  31
ENDBRANCH  23  29
ENDBRANCH   1  25
TORSDOF 7
ENDMDL
MODEL 8
REMARK VINA RESULT:      -7.1      1.124      1.475
REMARK  Name = 
REMARK  7 active torsions:
REMARK  status: ('A' for Active; 'I' for Inactive)
REMARK    1  A    between atoms: C_2  and  C_30
REMARK    2  A    between atoms: N_3  and  C_4
REMARK    3  A    between atoms: C_6  and  C_7
REMARK    4  A    between atoms: C_10  and  C_11
REMARK    5  A    between atoms: C_14  and  O_15
REMARK    6  A    between atoms: O_15  and  C_16
REMARK    7  A    between atoms: N_21  and  C_22
REMARK                            x       y       z     vdW  Elec       q    Type
REMARK                         _______ _______ _______ _____ _____    ______ ____
ROOT
ATOM      1  C   UNL     1       0.840   9.511  21.525  0.00  0.00    +0.000 A 
ATOM      2  N   UNL     1       0.626   9.045  22.741  0.00  0.00    +0.000 NA
ATOM      3  N   UNL     1      -0.051   9.994  23.455  0.00  0.00    +0.000 NA
ATOM      4  C   UNL     1      -0.325  11.014  22.658  0.00  0.00    +0.000 A 
ATOM      5  N   UNL     1       0.277  10.778  21.417  0.00  0.00    +0.000 N 
ENDROOT
BRANCH   5   6
ATOM      6  C   UNL     1       0.292  11.632  20.284  0.00  0.00    +0.000 A 
ATOM      7  C   UNL     1      -0.756  11.596  19.359  0.00  0.00    +0.000 A 
ATOM      8  C   UNL     1      -0.774  12.487  18.282  0.00  0.00    +0.000 A 
ATOM      9  C   UNL     1       0.239  13.432  18.135  0.00  0.00    +0.000 A 
ATOM     10  C   UNL     1       1.288  13.471  19.051  0.00  0.00    +0.000 A 
ATOM     11  C   UNL     1       1.320  12.563  20.107  0.00  0.00    +0.000 A 
ATOM     12  F   UNL     1       2.391  12.576  20.914  0.00  0.00    +0.000 F 
ENDBRANCH   5   6
BRANCH   4  13
ATOM     13  C   UNL     1      -1.217  12.122  23.017  0.00  0.00    +0.000 A 
ATOM     14  C   UNL     1      -2.595  11.962  23.106  0.00  0.00    +0.000 A 
ATOM     15  C   UNL     1      -3.394  13.066  23.436  0.00  0.00    +0.000 A 
ATOM     16  C   UNL     1      -2.794  14.302  23.650  0.00  0.00    +0.000 A 
ATOM     17  C   UNL     1      -1.409  14.365  23.558  0.00  0.00    +0.000 A 
ATOM     18  N   UNL     1      -0.614  13.321  23.223  0.00  0.00    +0.000 NA
BRANCH  16  19
ATOM     19  O   UNL     1      -3.433  15.460  23.975  0.00  0.00    +0.000 OA
BRANCH  19  20
ATOM     20  C   UNL     1      -3.347  15.831  25.341  0.00  0.00    +0.000 C 
ATOM     21  F   UNL     1      -2.955  14.750  26.059  0.00  0.00    +0.000 F 
ATOM     22  F   UNL     1      -2.355  16.752  25.445  0.00  0.00    +0.000 F 
ENDBRANCH  19  20
ENDBRANCH  16  19
ENDBRANCH   4  13
BRANCH   1  25
ATOM     23  C   UNL     1       1.702   7.203  19.044  0.00  0.00    +0.000 C 
ATOM     24  C   UNL     1       1.728   7.230  20.583  0.00  0.00    +0.000 C 
ATOM     25  C   UNL     1       1.774   8.783  20.542  0.00  0.00    +0.000 C 
ATOM     26  C   UNL     1       1.261   8.681  19.081  0.00  0.00    +0.000 C 
BRANCH  23  29
ATOM     27  O   UNL     1       2.453   4.841  17.675  0.00  0.00    +0.000 OA
ATOM     28  C   UNL     1       3.282   5.741  17.779  0.00  0.00    +0.000 C 
ATOM     29  N   UNL     1       3.002   6.961  18.377  0.00  0.00    +0.000 N 
ATOM     30  H   UNL     1       3.794   7.594  18.465  0.00  0.00    +0.000 HD
BRANCH  28  31
ATOM     31  C   UNL     1       4.675   5.564  17.251  0.00  0.00    +0.000 A 
ATOM     32  C   UNL     1       4.932   4.520  16.363  0.00  0.00    +0.000 A 
ATOM     33  C   UNL     1       6.224   4.368  15.873  0.00  0.00    +0.000 A 
ATOM     34  C   UNL     1       7.214   5.253  16.286  0.00  0.00    +0.000 A 
ATOM     35  C   UNL     1       6.868   6.260  17.178  0.00  0.00    +0.000 A 
ATOM     36  N   UNL     1       5.621   6.446  17.673  0.00  0.00    +0.000 NA
ENDBRANCH  28  31
ENDBRANCH  23  29
ENDBRANCH   1  25
TORSDOF 7
ENDMDL
MODEL 9
REMARK VINA RESULT:      -7.1      3.154     10.859
REMARK  Name = 
REMARK  7 active torsions:
REMARK  status: ('A' for Active; 'I' for Inactive)
REMARK    1  A    between atoms: C_2  and  C_30
REMARK    2  A    between atoms: N_3  and  C_4
REMARK    3  A    between atoms: C_6  and  C_7
REMARK    4  A    between atoms: C_10  and  C_11
REMARK    5  A    between atoms: C_14  and  O_15
REMARK    6  A    between atoms: O_15  and  C_16
REMARK    7  A    between atoms: N_21  and  C_22
REMARK                            x       y       z     vdW  Elec       q    Type
REMARK                         _______ _______ _______ _____ _____    ______ ____
ROOT
ATOM      1  C   UNL     1      -0.545  11.204  21.782  0.00  0.00    +0.000 A 
ATOM      2  N   UNL     1       0.222  10.699  22.729  0.00  0.00    +0.000 NA
ATOM      3  N   UNL     1       0.935   9.659  22.199  0.00  0.00    +0.000 NA
ATOM      4  C   UNL     1       0.669   9.572  20.907  0.00  0.00    +0.000 A 
ATOM      5  N   UNL     1      -0.325  10.509  20.597  0.00  0.00    +0.000 N 
ENDROOT
BRANCH   5   6
ATOM      6  C   UNL     1      -0.954  10.723  19.344  0.00  0.00    +0.000 A 
ATOM      7  C   UNL     1      -1.851   9.780  18.835  0.00  0.00    +0.000 A 
ATOM      8  C   UNL     1      -2.524  10.025  17.634  0.00  0.00    +0.000 A 
ATOM      9  C   UNL     1      -2.323  11.221  16.949  0.00  0.00    +0.000 A 
ATOM     10  C   UNL     1      -1.429  12.164  17.449  0.00  0.00    +0.000 A 
ATOM     11  C   UNL     1      -0.736  11.905  18.630  0.00  0.00    +0.000 A 
ATOM     12  F   UNL     1       0.180  12.799  19.029  0.00  0.00    +0.000 F 
ENDBRANCH   5   6
BRANCH   4  13
ATOM     13  C   UNL     1       1.402   8.712  19.971  0.00  0.00    +0.000 A 
ATOM     14  C   UNL     1       1.693   9.114  18.672  0.00  0.00    +0.000 A 
ATOM     15  C   UNL     1       2.381   8.238  17.822  0.00  0.00    +0.000 A 
ATOM     16  C   UNL     1       2.742   6.979  18.287  0.00  0.00    +0.000 A 
ATOM     17  C   UNL     1       2.427   6.670  19.604  0.00  0.00    +0.000 A 
ATOM     18  N   UNL     1       1.747   7.487  20.443  0.00  0.00    +0.000 NA
BRANCH  16  19
ATOM     19  O   UNL     1       3.410   6.022  17.583  0.00  0.00    +0.000 OA
BRANCH  19  20
ATOM     20  C   UNL     1       4.555   5.490  18.229  0.00  0.00    +0.000 C 
ATOM     21  F   UNL     1       4.949   4.377  17.564  0.00  0.00    +0.000 F 
ATOM     22  F   UNL     1       5.552   6.401  18.094  0.00  0.00    +0.000 F 
ENDBRANCH  19  20
ENDBRANCH  16  19
ENDBRANCH   4  13
BRANCH   1  25
ATOM     23  C   UNL     1      -2.413  13.359  23.804  0.00  0.00    +0.000 C 
ATOM     24  C   UNL     1      -2.552  11.905  23.317  0.00  0.00    +0.000 C 
ATOM     25  C   UNL     1      -1.639  12.237  22.105  0.00  0.00    +0.000 C 
ATOM     26  C   UNL     1      -1.169  13.483  22.902  0.00  0.00    +0.000 C 
BRANCH  23  29
ATOM     27  O   UNL     1      -3.304  15.564  25.341  0.00  0.00    +0.000 OA
ATOM     28  C   UNL     1      -3.912  15.291  24.310  0.00  0.00    +0.000 C 
ATOM     29  N   UNL     1      -3.527  14.270  23.452  0.00  0.00    +0.000 N 
ATOM     30  H   UNL     1      -4.155  14.099  22.670  0.00  0.00    +0.000 HD
BRANCH  28  31
ATOM     31  C   UNL     1      -5.132  16.068  23.912  0.00  0.00    +0.000 A 
ATOM     32  C   UNL     1      -5.294  17.365  24.396  0.00  0.00    +0.000 A 
ATOM     33  C   UNL     1      -6.425  18.079  24.016  0.00  0.00    +0.000 A 
ATOM     34  C   UNL     1      -7.356  17.478  23.177  0.00  0.00    +0.000 A 
ATOM     35  C   UNL     1      -7.116  16.179  22.748  0.00  0.00    +0.000 A 
ATOM     36  N   UNL     1      -6.024  15.452  23.089  0.00  0.00    +0.000 NA
ENDBRANCH  28  31
ENDBRANCH  23  29
ENDBRANCH   1  25
TORSDOF 7
ENDMDL
