MODEL 1
REMARK VINA RESULT:      -8.7      0.000      0.000
REMARK  Name = 
REMARK  11 active torsions:
REMARK  status: ('A' for Active; 'I' for Inactive)
REMARK    1  A    between atoms: C_1  and  C_2
REMARK    2  A    between atoms: C_7  and  C_8
REMARK    3  A    between atoms: N_10  and  C_11
REMARK    4  A    between atoms: N_14  and  S_15
REMARK    5  A    between atoms: S_15  and  C_18
REMARK    6  A    between atoms: C_22  and  C_23
REMARK    7  A    between atoms: N_25  and  C_26
REMARK    8  A    between atoms: C_26  and  C_27
REMARK    9  A    between atoms: C_27  and  N_28
REMARK   10  A    between atoms: N_28  and  C_29
REMARK   11  A    between atoms: N_28  and  C_30
REMARK                            x       y       z     vdW  Elec       q    Type
REMARK                         _______ _______ _______ _____ _____    ______ ____
ROOT
ATOM      1  C   UNL     1       6.108   5.134  17.977  0.00  0.00    +0.000 C 
ATOM      2  C   UNL     1       5.746   4.423  19.291  0.00  0.00    +0.000 C 
ATOM      3  C   UNL     1       4.659   3.370  19.154  0.00  0.00    +0.000 C 
ATOM      4  N   UNL     1       3.448   3.994  18.546  0.00  0.00    +0.000 NA
ATOM      5  C   UNL     1       3.763   4.394  17.149  0.00  0.00    +0.000 C 
ATOM      6  C   UNL     1       4.880   5.450  17.089  0.00  0.00    +0.000 C 
ENDROOT
BRANCH   1   9
ATOM      7  C   UNL     1       7.674   7.108  17.542  0.00  0.00    +0.000 C 
ATOM      8  O   UNL     1       8.035   6.687  16.448  0.00  0.00    +0.000 OA
ATOM      9  N   UNL     1       6.803   6.399  18.340  0.00  0.00    +0.000 N 
ATOM     10  H   UNL     1       6.521   6.834  19.208  0.00  0.00    +0.000 HD
BRANCH   7  17
ATOM     11  C   UNL     1      10.483  13.948  18.076  0.00  0.00    +0.000 C 
ATOM     12  C   UNL     1       9.973  12.604  18.516  0.00  0.00    +0.000 A 
ATOM     13  C   UNL     1      10.561  11.933  19.591  0.00  0.00    +0.000 A 
ATOM     14  C   UNL     1      10.193  10.621  19.928  0.00  0.00    +0.000 A 
ATOM     15  C   UNL     1       9.240   9.987  19.118  0.00  0.00    +0.000 A 
ATOM     16  N   UNL     1       8.780   8.686  19.111  0.00  0.00    +0.000 N 
ATOM     17  C   UNL     1       7.989   8.451  18.000  0.00  0.00    +0.000 A 
ATOM     18  C   UNL     1       7.715   9.701  17.467  0.00  0.00    +0.000 A 
ATOM     19  C   UNL     1       8.600  10.640  18.069  0.00  0.00    +0.000 A 
ATOM     20  C   UNL     1       8.961  11.970  17.771  0.00  0.00    +0.000 A 
ATOM     21  H   UNL     1       9.113   7.958  19.729  0.00  0.00    +0.000 HD
ENDBRANCH   7  17
ENDBRANCH   1   9
BRANCH   6  22
ATOM     22  C   UNL     1       5.174   5.640  15.588  0.00  0.00    +0.000 C 
ATOM     23  O   UNL     1       5.160   6.763  15.078  0.00  0.00    +0.000 OA
ATOM     24  N   UNL     1       5.554   4.541  14.867  0.00  0.00    +0.000 N 
ATOM     25  H   UNL     1       5.487   3.613  15.260  0.00  0.00    +0.000 HD
BRANCH  24  26
ATOM     26  C   UNL     1       6.105   4.645  13.527  0.00  0.00    +0.000 C 
BRANCH  26  27
ATOM     27  C   UNL     1       6.510   3.281  12.924  0.00  0.00    +0.000 C 
BRANCH  27  28
ATOM     28  N   UNL     1       5.861   2.938  11.638  0.00  0.00    +0.000 NA
ATOM     29  C   UNL     1       5.974   1.513  11.323  0.00  0.00    +0.000 C 
ATOM     30  C   UNL     1       4.443   3.311  11.686  0.00  0.00    +0.000 C 
ENDBRANCH  27  28
ENDBRANCH  26  27
ENDBRANCH  24  26
ENDBRANCH   6  22
BRANCH   4  31
ATOM     31  S   UNL     1       2.073   2.947  18.705  0.00  0.00    +0.000 S 
ATOM     32  O   UNL     1       1.135   3.343  17.676  0.00  0.00    +0.000 OA
ATOM     33  O   UNL     1       2.591   1.595  18.744  0.00  0.00    +0.000 OA
BRANCH  31  34
ATOM     34  C   UNL     1       1.275   3.188  20.327  0.00  0.00    +0.000 C 
ATOM     35  C   UNL     1       2.088   3.875  21.391  0.00  0.00    +0.000 C 
ATOM     36  C   UNL     1       1.017   4.640  20.672  0.00  0.00    +0.000 C 
ENDBRANCH  31  34
ENDBRANCH   4  31
TORSDOF 8
ENDMDL
MODEL 2
REMARK VINA RESULT:      -8.1      5.142      8.448
REMARK  Name = 
REMARK  11 active torsions:
REMARK  status: ('A' for Active; 'I' for Inactive)
REMARK    1  A    between atoms: C_1  and  C_2
REMARK    2  A    between atoms: C_7  and  C_8
REMARK    3  A    between atoms: N_10  and  C_11
REMARK    4  A    between atoms: N_14  and  S_15
REMARK    5  A    between atoms: S_15  and  C_18
REMARK    6  A    between atoms: C_22  and  C_23
REMARK    7  A    between atoms: N_25  and  C_26
REMARK    8  A    between atoms: C_26  and  C_27
REMARK    9  A    between atoms: C_27  and  N_28
REMARK   10  A    between atoms: N_28  and  C_29
REMARK   11  A    between atoms: N_28  and  C_30
REMARK                            x       y       z     vdW  Elec       q    Type
REMARK                         _______ _______ _______ _____ _____    ______ ____
ROOT
ATOM      1  C   UNL     1       2.231   7.443  18.779  0.00  0.00    +0.000 C 
ATOM      2  C   UNL     1       3.093   7.991  17.631  0.00  0.00    +0.000 C 
ATOM      3  C   UNL     1       4.054   6.979  17.031  0.00  0.00    +0.000 C 
ATOM      4  N   UNL     1       4.917   6.424  18.115  0.00  0.00    +0.000 NA
ATOM      5  C   UNL     1       4.070   5.632  19.046  0.00  0.00    +0.000 C 
ATOM      6  C   UNL     1       3.004   6.501  19.734  0.00  0.00    +0.000 C 
ENDROOT
BRANCH   1   9
ATOM      7  C   UNL     1       0.863   9.586  19.060  0.00  0.00    +0.000 C 
ATOM      8  O   UNL     1       0.515   9.615  17.883  0.00  0.00    +0.000 OA
ATOM      9  N   UNL     1       1.715   8.615  19.539  0.00  0.00    +0.000 N 
ATOM     10  H   UNL     1       1.920   8.634  20.529  0.00  0.00    +0.000 HD
BRANCH   7  17
ATOM     11  C   UNL     1      -3.633  12.433  24.220  0.00  0.00    +0.000 C 
ATOM     12  C   UNL     1      -2.678  12.395  23.060  0.00  0.00    +0.000 A 
ATOM     13  C   UNL     1      -2.816  13.285  21.992  0.00  0.00    +0.000 A 
ATOM     14  C   UNL     1      -2.023  13.175  20.837  0.00  0.00    +0.000 A 
ATOM     15  C   UNL     1      -1.114  12.110  20.775  0.00  0.00    +0.000 A 
ATOM     16  N   UNL     1      -0.309  11.667  19.746  0.00  0.00    +0.000 N 
ATOM     17  C   UNL     1       0.274  10.453  20.067  0.00  0.00    +0.000 A 
ATOM     18  C   UNL     1       0.061  10.284  21.426  0.00  0.00    +0.000 A 
ATOM     19  C   UNL     1      -0.917  11.235  21.839  0.00  0.00    +0.000 A 
ATOM     20  C   UNL     1      -1.699  11.386  23.002  0.00  0.00    +0.000 A 
ATOM     21  H   UNL     1      -0.284  12.076  18.821  0.00  0.00    +0.000 HD
ENDBRANCH   7  17
ENDBRANCH   1   9
BRANCH   6  22
ATOM     22  C   UNL     1       2.138   5.513  20.540  0.00  0.00    +0.000 C 
ATOM     23  O   UNL     1       0.907   5.593  20.526  0.00  0.00    +0.000 OA
ATOM     24  N   UNL     1       2.772   4.485  21.183  0.00  0.00    +0.000 N 
ATOM     25  H   UNL     1       3.778   4.464  21.264  0.00  0.00    +0.000 HD
BRANCH  24  26
ATOM     26  C   UNL     1       2.047   3.358  21.745  0.00  0.00    +0.000 C 
BRANCH  26  27
ATOM     27  C   UNL     1       1.907   2.171  20.764  0.00  0.00    +0.000 C 
BRANCH  27  28
ATOM     28  N   UNL     1       2.085   2.506  19.334  0.00  0.00    +0.000 NA
ATOM     29  C   UNL     1       3.118   1.688  18.696  0.00  0.00    +0.000 C 
ATOM     30  C   UNL     1       0.816   2.323  18.622  0.00  0.00    +0.000 C 
ENDBRANCH  27  28
ENDBRANCH  26  27
ENDBRANCH  24  26
ENDBRANCH   6  22
BRANCH   4  31
ATOM     31  S   UNL     1       6.260   5.553  17.444  0.00  0.00    +0.000 S 
ATOM     32  O   UNL     1       7.087   6.530  16.768  0.00  0.00    +0.000 OA
ATOM     33  O   UNL     1       6.804   4.750  18.519  0.00  0.00    +0.000 OA
BRANCH  31  34
ATOM     34  C   UNL     1       5.680   4.345  16.208  0.00  0.00    +0.000 C 
ATOM     35  C   UNL     1       5.583   4.821  14.783  0.00  0.00    +0.000 C 
ATOM     36  C   UNL     1       6.735   3.953  15.194  0.00  0.00    +0.000 C 
ENDBRANCH  31  34
ENDBRANCH   4  31
TORSDOF 8
ENDMDL
MODEL 3
REMARK VINA RESULT:      -8.1      5.140      8.488
REMARK  Name = 
REMARK  11 active torsions:
REMARK  status: ('A' for Active; 'I' for Inactive)
REMARK    1  A    between atoms: C_1  and  C_2
REMARK    2  A    between atoms: C_7  and  C_8
REMARK    3  A    between atoms: N_10  and  C_11
REMARK    4  A    between atoms: N_14  and  S_15
REMARK    5  A    between atoms: S_15  and  C_18
REMARK    6  A    between atoms: C_22  and  C_23
REMARK    7  A    between atoms: N_25  and  C_26
REMARK    8  A    between atoms: C_26  and  C_27
REMARK    9  A    between atoms: C_27  and  N_28
REMARK   10  A    between atoms: N_28  and  C_29
REMARK   11  A    between atoms: N_28  and  C_30
REMARK                            x       y       z     vdW  Elec       q    Type
REMARK                         _______ _______ _______ _____ _____    ______ ____
ROOT
ATOM      1  C   UNL     1       2.202   7.421  18.791  0.00  0.00    +0.000 C 
ATOM      2  C   UNL     1       3.073   7.957  17.645  0.00  0.00    +0.000 C 
ATOM      3  C   UNL     1       4.031   6.935  17.055  0.00  0.00    +0.000 C 
ATOM      4  N   UNL     1       4.885   6.381  18.147  0.00  0.00    +0.000 NA
ATOM      5  C   UNL     1       4.028   5.600  19.078  0.00  0.00    +0.000 C 
ATOM      6  C   UNL     1       2.964   6.480  19.756  0.00  0.00    +0.000 C 
ENDROOT
BRANCH   1   9
ATOM      7  C   UNL     1       0.862   9.584  19.046  0.00  0.00    +0.000 C 
ATOM      8  O   UNL     1       0.536   9.619  17.863  0.00  0.00    +0.000 OA
ATOM      9  N   UNL     1       1.689   8.601  19.541  0.00  0.00    +0.000 N 
ATOM     10  H   UNL     1       1.877   8.617  20.535  0.00  0.00    +0.000 HD
BRANCH   7  17
ATOM     11  C   UNL     1      -3.624  12.443  24.210  0.00  0.00    +0.000 C 
ATOM     12  C   UNL     1      -2.686  12.401  23.036  0.00  0.00    +0.000 A 
ATOM     13  C   UNL     1      -2.861  13.262  21.950  0.00  0.00    +0.000 A 
ATOM     14  C   UNL     1      -2.084  13.144  20.786  0.00  0.00    +0.000 A 
ATOM     15  C   UNL     1      -1.150  12.100  20.734  0.00  0.00    +0.000 A 
ATOM     16  N   UNL     1      -0.350  11.652  19.703  0.00  0.00    +0.000 N 
ATOM     17  C   UNL     1       0.266  10.460  20.042  0.00  0.00    +0.000 A 
ATOM     18  C   UNL     1       0.078  10.318  21.408  0.00  0.00    +0.000 A 
ATOM     19  C   UNL     1      -0.916  11.255  21.814  0.00  0.00    +0.000 A 
ATOM     20  C   UNL     1      -1.684  11.414  22.986  0.00  0.00    +0.000 A 
ATOM     21  H   UNL     1      -0.349  12.040  18.769  0.00  0.00    +0.000 HD
ENDBRANCH   7  17
ENDBRANCH   1   9
BRANCH   6  22
ATOM     22  C   UNL     1       2.087   5.502  20.563  0.00  0.00    +0.000 C 
ATOM     23  O   UNL     1       0.858   5.594  20.548  0.00  0.00    +0.000 OA
ATOM     24  N   UNL     1       2.710   4.470  21.209  0.00  0.00    +0.000 N 
ATOM     25  H   UNL     1       3.717   4.439  21.291  0.00  0.00    +0.000 HD
BRANCH  24  26
ATOM     26  C   UNL     1       1.975   3.351  21.772  0.00  0.00    +0.000 C 
BRANCH  26  27
ATOM     27  C   UNL     1       1.847   2.153  20.804  0.00  0.00    +0.000 C 
BRANCH  27  28
ATOM     28  N   UNL     1       2.037   2.472  19.371  0.00  0.00    +0.000 NA
ATOM     29  C   UNL     1       3.072   1.644  18.750  0.00  0.00    +0.000 C 
ATOM     30  C   UNL     1       0.773   2.285  18.652  0.00  0.00    +0.000 C 
ENDBRANCH  27  28
ENDBRANCH  26  27
ENDBRANCH  24  26
ENDBRANCH   6  22
BRANCH   4  31
ATOM     31  S   UNL     1       6.225   5.497  17.488  0.00  0.00    +0.000 S 
ATOM     32  O   UNL     1       6.568   4.483  18.463  0.00  0.00    +0.000 OA
ATOM     33  O   UNL     1       5.844   5.121  16.142  0.00  0.00    +0.000 OA
BRANCH  31  34
ATOM     34  C   UNL     1       7.666   6.594  17.275  0.00  0.00    +0.000 C 
ATOM     35  C   UNL     1       7.454   8.059  17.548  0.00  0.00    +0.000 C 
ATOM     36  C   UNL     1       8.159   7.214  18.567  0.00  0.00    +0.000 C 
ENDBRANCH  31  34
ENDBRANCH   4  31
TORSDOF 8
ENDMDL
MODEL 4
REMARK VINA RESULT:      -8.0      2.824      5.194
REMARK  Name = 
REMARK  11 active torsions:
REMARK  status: ('A' for Active; 'I' for Inactive)
REMARK    1  A    between atoms: C_1  and  C_2
REMARK    2  A    between atoms: C_7  and  C_8
REMARK    3  A    between atoms: N_10  and  C_11
REMARK    4  A    between atoms: N_14  and  S_15
REMARK    5  A    between atoms: S_15  and  C_18
REMARK    6  A    between atoms: C_22  and  C_23
REMARK    7  A    between atoms: N_25  and  C_26
REMARK    8  A    between atoms: C_26  and  C_27
REMARK    9  A    between atoms: C_27  and  N_28
REMARK   10  A    between atoms: N_28  and  C_29
REMARK   11  A    between atoms: N_28  and  C_30
REMARK                            x       y       z     vdW  Elec       q    Type
REMARK                         _______ _______ _______ _____ _____    ______ ____
ROOT
ATOM      1  C   UNL     1       4.892   6.216  17.436  0.00  0.00    +0.000 C 
ATOM      2  C   UNL     1       5.327   4.743  17.486  0.00  0.00    +0.000 C 
ATOM      3  C   UNL     1       4.177   3.749  17.452  0.00  0.00    +0.000 C 
ATOM      4  N   UNL     1       3.234   4.055  18.567  0.00  0.00    +0.000 NA
ATOM      5  C   UNL     1       2.599   5.375  18.312  0.00  0.00    +0.000 C 
ATOM      6  C   UNL     1       3.632   6.515  18.283  0.00  0.00    +0.000 C 
ENDROOT
BRANCH   1   9
ATOM      7  C   UNL     1       7.245   7.210  17.301  0.00  0.00    +0.000 C 
ATOM      8  O   UNL     1       7.525   6.616  16.264  0.00  0.00    +0.000 OA
ATOM      9  N   UNL     1       6.036   7.027  17.936  0.00  0.00    +0.000 N 
ATOM     10  H   UNL     1       5.865   7.585  18.762  0.00  0.00    +0.000 HD
BRANCH   7  17
ATOM     11  C   UNL     1       9.876  12.749  21.466  0.00  0.00    +0.000 C 
ATOM     12  C   UNL     1       9.591  11.934  20.236  0.00  0.00    +0.000 A 
ATOM     13  C   UNL     1       9.319  12.556  19.014  0.00  0.00    +0.000 A 
ATOM     14  C   UNL     1       8.914  11.819  17.889  0.00  0.00    +0.000 A 
ATOM     15  C   UNL     1       8.749  10.435  18.047  0.00  0.00    +0.000 A 
ATOM     16  N   UNL     1       8.246   9.481  17.186  0.00  0.00    +0.000 N 
ATOM     17  C   UNL     1       8.080   8.272  17.838  0.00  0.00    +0.000 A 
ATOM     18  C   UNL     1       8.762   8.398  19.038  0.00  0.00    +0.000 A 
ATOM     19  C   UNL     1       9.056   9.778  19.234  0.00  0.00    +0.000 A 
ATOM     20  C   UNL     1       9.496  10.534  20.339  0.00  0.00    +0.000 A 
ATOM     21  H   UNL     1       7.884   9.676  16.262  0.00  0.00    +0.000 HD
ENDBRANCH   7  17
ENDBRANCH   1   9
BRANCH   6  22
ATOM     22  C   UNL     1       2.835   7.769  17.872  0.00  0.00    +0.000 C 
ATOM     23  O   UNL     1       2.919   8.226  16.729  0.00  0.00    +0.000 OA
ATOM     24  N   UNL     1       1.955   8.294  18.779  0.00  0.00    +0.000 N 
ATOM     25  H   UNL     1       1.944   7.974  19.737  0.00  0.00    +0.000 HD
BRANCH  24  26
ATOM     26  C   UNL     1       0.972   9.299  18.413  0.00  0.00    +0.000 C 
BRANCH  26  27
ATOM     27  C   UNL     1       0.760  10.373  19.504  0.00  0.00    +0.000 C 
BRANCH  27  28
ATOM     28  N   UNL     1      -0.438  10.186  20.354  0.00  0.00    +0.000 NA
ATOM     29  C   UNL     1      -0.142   9.427  21.570  0.00  0.00    +0.000 C 
ATOM     30  C   UNL     1      -0.991  11.493  20.723  0.00  0.00    +0.000 C 
ENDBRANCH  27  28
ENDBRANCH  26  27
ENDBRANCH  24  26
ENDBRANCH   6  22
BRANCH   4  31
ATOM     31  S   UNL     1       2.116   2.749  18.800  0.00  0.00    +0.000 S 
ATOM     32  O   UNL     1       0.953   3.056  17.994  0.00  0.00    +0.000 OA
ATOM     33  O   UNL     1       2.861   1.528  18.576  0.00  0.00    +0.000 OA
BRANCH  31  34
ATOM     34  C   UNL     1       1.593   2.663  20.545  0.00  0.00    +0.000 C 
ATOM     35  C   UNL     1       2.684   2.617  21.581  0.00  0.00    +0.000 C 
ATOM     36  C   UNL     1       1.941   3.899  21.349  0.00  0.00    +0.000 C 
ENDBRANCH  31  34
ENDBRANCH   4  31
TORSDOF 8
ENDMDL
MODEL 5
REMARK VINA RESULT:      -8.0      3.204      5.193
REMARK  Name = 
REMARK  11 active torsions:
REMARK  status: ('A' for Active; 'I' for Inactive)
REMARK    1  A    between atoms: C_1  and  C_2
REMARK    2  A    between atoms: C_7  and  C_8
REMARK    3  A    between atoms: N_10  and  C_11
REMARK    4  A    between atoms: N_14  and  S_15
REMARK    5  A    between atoms: S_15  and  C_18
REMARK    6  A    between atoms: C_22  and  C_23
REMARK    7  A    between atoms: N_25  and  C_26
REMARK    8  A    between atoms: C_26  and  C_27
REMARK    9  A    between atoms: C_27  and  N_28
REMARK   10  A    between atoms: N_28  and  C_29
REMARK   11  A    between atoms: N_28  and  C_30
REMARK                            x       y       z     vdW  Elec       q    Type
REMARK                         _______ _______ _______ _____ _____    ______ ____
ROOT
ATOM      1  C   UNL     1       4.709   6.626  17.278  0.00  0.00    +0.000 C 
ATOM      2  C   UNL     1       5.185   5.175  17.104  0.00  0.00    +0.000 C 
ATOM      3  C   UNL     1       4.063   4.155  17.005  0.00  0.00    +0.000 C 
ATOM      4  N   UNL     1       3.185   4.278  18.206  0.00  0.00    +0.000 NA
ATOM      5  C   UNL     1       2.500   5.597  18.168  0.00  0.00    +0.000 C 
ATOM      6  C   UNL     1       3.497   6.767  18.231  0.00  0.00    +0.000 C 
ENDROOT
BRANCH   1   9
ATOM      7  C   UNL     1       7.143   7.410  17.311  0.00  0.00    +0.000 C 
ATOM      8  O   UNL     1       7.480   6.669  16.393  0.00  0.00    +0.000 OA
ATOM      9  N   UNL     1       5.861   7.404  17.813  0.00  0.00    +0.000 N 
ATOM     10  H   UNL     1       5.651   8.074  18.541  0.00  0.00    +0.000 HD
BRANCH   7  17
ATOM     11  C   UNL     1      10.003  12.893  21.400  0.00  0.00    +0.000 C 
ATOM     12  C   UNL     1       9.650  12.094  20.176  0.00  0.00    +0.000 A 
ATOM     13  C   UNL     1       9.315  12.732  18.979  0.00  0.00    +0.000 A 
ATOM     14  C   UNL     1       8.848  12.010  17.868  0.00  0.00    +0.000 A 
ATOM     15  C   UNL     1       8.690  10.625  18.016  0.00  0.00    +0.000 A 
ATOM     16  N   UNL     1       8.141   9.682  17.171  0.00  0.00    +0.000 N 
ATOM     17  C   UNL     1       8.007   8.464  17.816  0.00  0.00    +0.000 A 
ATOM     18  C   UNL     1       8.753   8.575  18.979  0.00  0.00    +0.000 A 
ATOM     19  C   UNL     1       9.060   9.952  19.176  0.00  0.00    +0.000 A 
ATOM     20  C   UNL     1       9.559  10.693  20.267  0.00  0.00    +0.000 A 
ATOM     21  H   UNL     1       7.730   9.890  16.271  0.00  0.00    +0.000 HD
ENDBRANCH   7  17
ENDBRANCH   1   9
BRANCH   6  22
ATOM     22  C   UNL     1       2.643   8.035  18.039  0.00  0.00    +0.000 C 
ATOM     23  O   UNL     1       2.586   8.600  16.944  0.00  0.00    +0.000 OA
ATOM     24  N   UNL     1       1.870   8.450  19.089  0.00  0.00    +0.000 N 
ATOM     25  H   UNL     1       1.976   8.041  20.007  0.00  0.00    +0.000 HD
BRANCH  24  26
ATOM     26  C   UNL     1       0.839   9.462  18.940  0.00  0.00    +0.000 C 
BRANCH  26  27
ATOM     27  C   UNL     1       1.361  10.903  19.143  0.00  0.00    +0.000 C 
BRANCH  27  28
ATOM     28  N   UNL     1       0.320  11.954  19.190  0.00  0.00    +0.000 NA
ATOM     29  C   UNL     1       0.774  13.212  18.595  0.00  0.00    +0.000 C 
ATOM     30  C   UNL     1      -0.880  11.492  18.484  0.00  0.00    +0.000 C 
ENDBRANCH  27  28
ENDBRANCH  26  27
ENDBRANCH  24  26
ENDBRANCH   6  22
BRANCH   4  31
ATOM     31  S   UNL     1       2.119   2.914  18.328  0.00  0.00    +0.000 S 
ATOM     32  O   UNL     1       0.834   3.351  17.825  0.00  0.00    +0.000 OA
ATOM     33  O   UNL     1       2.808   1.800  17.709  0.00  0.00    +0.000 OA
BRANCH  31  34
ATOM     34  C   UNL     1       1.912   2.423  20.072  0.00  0.00    +0.000 C 
ATOM     35  C   UNL     1       2.659   3.230  21.100  0.00  0.00    +0.000 C 
ATOM     36  C   UNL     1       1.188   3.453  20.915  0.00  0.00    +0.000 C 
ENDBRANCH  31  34
ENDBRANCH   4  31
TORSDOF 8
ENDMDL
MODEL 6
REMARK VINA RESULT:      -8.0      5.318      8.117
REMARK  Name = 
REMARK  11 active torsions:
REMARK  status: ('A' for Active; 'I' for Inactive)
REMARK    1  A    between atoms: C_1  and  C_2
REMARK    2  A    between atoms: C_7  and  C_8
REMARK    3  A    between atoms: N_10  and  C_11
REMARK    4  A    between atoms: N_14  and  S_15
REMARK    5  A    between atoms: S_15  and  C_18
REMARK    6  A    between atoms: C_22  and  C_23
REMARK    7  A    between atoms: N_25  and  C_26
REMARK    8  A    between atoms: C_26  and  C_27
REMARK    9  A    between atoms: C_27  and  N_28
REMARK   10  A    between atoms: N_28  and  C_29
REMARK   11  A    between atoms: N_28  and  C_30
REMARK                            x       y       z     vdW  Elec       q    Type
REMARK                         _______ _______ _______ _____ _____    ______ ____
ROOT
ATOM      1  C   UNL     1       2.203   7.493  18.849  0.00  0.00    +0.000 C 
ATOM      2  C   UNL     1       2.979   8.051  17.646  0.00  0.00    +0.000 C 
ATOM      3  C   UNL     1       3.798   7.015  16.894  0.00  0.00    +0.000 C 
ATOM      4  N   UNL     1       4.726   6.340  17.849  0.00  0.00    +0.000 NA
ATOM      5  C   UNL     1       3.925   5.553  18.823  0.00  0.00    +0.000 C 
ATOM      6  C   UNL     1       3.001   6.448  19.666  0.00  0.00    +0.000 C 
ENDROOT
BRANCH   1   9
ATOM      7  C   UNL     1       0.966   9.658  19.417  0.00  0.00    +0.000 C 
ATOM      8  O   UNL     1       0.433   9.740  18.315  0.00  0.00    +0.000 OA
ATOM      9  N   UNL     1       1.854   8.649  19.720  0.00  0.00    +0.000 N 
ATOM     10  H   UNL     1       2.218   8.628  20.663  0.00  0.00    +0.000 HD
BRANCH   7  17
ATOM     11  C   UNL     1      -2.950  13.844  24.118  0.00  0.00    +0.000 C 
ATOM     12  C   UNL     1      -1.776  13.371  23.307  0.00  0.00    +0.000 A 
ATOM     13  C   UNL     1      -0.895  14.286  22.725  0.00  0.00    +0.000 A 
ATOM     14  C   UNL     1       0.123  13.871  21.851  0.00  0.00    +0.000 A 
ATOM     15  C   UNL     1       0.198  12.504  21.547  0.00  0.00    +0.000 A 
ATOM     16  N   UNL     1       0.985  11.821  20.642  0.00  0.00    +0.000 N 
ATOM     17  C   UNL     1       0.575  10.503  20.534  0.00  0.00    +0.000 A 
ATOM     18  C   UNL     1      -0.285  10.291  21.600  0.00  0.00    +0.000 A 
ATOM     19  C   UNL     1      -0.631  11.561  22.145  0.00  0.00    +0.000 A 
ATOM     20  C   UNL     1      -1.623  11.997  23.047  0.00  0.00    +0.000 A 
ATOM     21  H   UNL     1       1.648  12.256  20.016  0.00  0.00    +0.000 HD
ENDBRANCH   7  17
ENDBRANCH   1   9
BRANCH   6  22
ATOM     22  C   UNL     1       2.154   5.473  20.507  0.00  0.00    +0.000 C 
ATOM     23  O   UNL     1       0.923   5.551  20.519  0.00  0.00    +0.000 OA
ATOM     24  N   UNL     1       2.803   4.456  21.153  0.00  0.00    +0.000 N 
ATOM     25  H   UNL     1       3.811   4.437  21.212  0.00  0.00    +0.000 HD
BRANCH  24  26
ATOM     26  C   UNL     1       2.093   3.337  21.749  0.00  0.00    +0.000 C 
BRANCH  26  27
ATOM     27  C   UNL     1       1.873   2.161  20.771  0.00  0.00    +0.000 C 
BRANCH  27  28
ATOM     28  N   UNL     1       2.076   2.479  19.340  0.00  0.00    +0.000 NA
ATOM     29  C   UNL     1       3.135   1.669  18.736  0.00  0.00    +0.000 C 
ATOM     30  C   UNL     1       0.825   2.266  18.604  0.00  0.00    +0.000 C 
ENDBRANCH  27  28
ENDBRANCH  26  27
ENDBRANCH  24  26
ENDBRANCH   6  22
BRANCH   4  31
ATOM     31  S   UNL     1       5.926   5.424  16.993  0.00  0.00    +0.000 S 
ATOM     32  O   UNL     1       5.546   4.033  17.117  0.00  0.00    +0.000 OA
ATOM     33  O   UNL     1       6.053   6.036  15.686  0.00  0.00    +0.000 OA
BRANCH  31  34
ATOM     34  C   UNL     1       7.562   5.639  17.769  0.00  0.00    +0.000 C 
ATOM     35  C   UNL     1       7.844   6.973  18.405  0.00  0.00    +0.000 C 
ATOM     36  C   UNL     1       7.509   5.798  19.275  0.00  0.00    +0.000 C 
ENDBRANCH  31  34
ENDBRANCH   4  31
TORSDOF 8
ENDMDL
MODEL 7
REMARK VINA RESULT:      -7.9      1.213      1.715
REMARK  Name = 
REMARK  11 active torsions:
REMARK  status: ('A' for Active; 'I' for Inactive)
REMARK    1  A    between atoms: C_1  and  C_2
REMARK    2  A    between atoms: C_7  and  C_8
REMARK    3  A    between atoms: N_10  and  C_11
REMARK    4  A    between atoms: N_14  and  S_15
REMARK    5  A    between atoms: S_15  and  C_18
REMARK    6  A    between atoms: C_22  and  C_23
REMARK    7  A    between atoms: N_25  and  C_26
REMARK    8  A    between atoms: C_26  and  C_27
REMARK    9  A    between atoms: C_27  and  N_28
REMARK   10  A    between atoms: N_28  and  C_29
REMARK   11  A    between atoms: N_28  and  C_30
REMARK                            x       y       z     vdW  Elec       q    Type
REMARK                         _______ _______ _______ _____ _____    ______ ____
ROOT
ATOM      1  C   UNL     1       6.846   5.334  17.866  0.00  0.00    +0.000 C 
ATOM      2  C   UNL     1       6.065   5.228  19.185  0.00  0.00    +0.000 C 
ATOM      3  C   UNL     1       4.841   4.331  19.117  0.00  0.00    +0.000 C 
ATOM      4  N   UNL     1       3.949   4.804  18.018  0.00  0.00    +0.000 NA
ATOM      5  C   UNL     1       4.640   4.598  16.717  0.00  0.00    +0.000 C 
ATOM      6  C   UNL     1       5.937   5.419  16.617  0.00  0.00    +0.000 C 
ENDROOT
BRANCH   1   9
ATOM      7  C   UNL     1       7.348   7.819  17.524  0.00  0.00    +0.000 C 
ATOM      8  O   UNL     1       6.300   8.031  16.920  0.00  0.00    +0.000 OA
ATOM      9  N   UNL     1       7.692   6.556  17.955  0.00  0.00    +0.000 N 
ATOM     10  H   UNL     1       8.551   6.471  18.482  0.00  0.00    +0.000 HD
BRANCH   7  17
ATOM     11  C   UNL     1      10.220  13.453  21.391  0.00  0.00    +0.000 C 
ATOM     12  C   UNL     1       9.859  12.611  20.199  0.00  0.00    +0.000 A 
ATOM     13  C   UNL     1       9.508  13.205  18.985  0.00  0.00    +0.000 A 
ATOM     14  C   UNL     1       9.034  12.443  17.904  0.00  0.00    +0.000 A 
ATOM     15  C   UNL     1       8.884  11.063  18.101  0.00  0.00    +0.000 A 
ATOM     16  N   UNL     1       8.331  10.089  17.295  0.00  0.00    +0.000 N 
ATOM     17  C   UNL     1       8.211   8.894  17.983  0.00  0.00    +0.000 A 
ATOM     18  C   UNL     1       8.968   9.048  19.134  0.00  0.00    +0.000 A 
ATOM     19  C   UNL     1       9.269  10.432  19.280  0.00  0.00    +0.000 A 
ATOM     20  C   UNL     1       9.776  11.213  20.339  0.00  0.00    +0.000 A 
ATOM     21  H   UNL     1       7.910  10.264  16.393  0.00  0.00    +0.000 HD
ENDBRANCH   7  17
ENDBRANCH   1   9
BRANCH   6  22
ATOM     22  C   UNL     1       6.587   4.984  15.289  0.00  0.00    +0.000 C 
ATOM     23  O   UNL     1       7.761   5.266  15.036  0.00  0.00    +0.000 OA
ATOM     24  N   UNL     1       5.857   4.187  14.450  0.00  0.00    +0.000 N 
ATOM     25  H   UNL     1       4.874   4.023  14.614  0.00  0.00    +0.000 HD
BRANCH  24  26
ATOM     26  C   UNL     1       6.452   3.507  13.312  0.00  0.00    +0.000 C 
BRANCH  26  27
ATOM     27  C   UNL     1       5.914   4.006  11.951  0.00  0.00    +0.000 C 
BRANCH  27  28
ATOM     28  N   UNL     1       5.336   2.961  11.076  0.00  0.00    +0.000 NA
ATOM     29  C   UNL     1       5.792   1.619  11.440  0.00  0.00    +0.000 C 
ATOM     30  C   UNL     1       3.872   3.011  11.149  0.00  0.00    +0.000 C 
ENDBRANCH  27  28
ENDBRANCH  26  27
ENDBRANCH  24  26
ENDBRANCH   6  22
BRANCH   4  31
ATOM     31  S   UNL     1       2.387   4.058  18.131  0.00  0.00    +0.000 S 
ATOM     32  O   UNL     1       1.428   5.133  18.282  0.00  0.00    +0.000 OA
ATOM     33  O   UNL     1       2.289   3.141  17.014  0.00  0.00    +0.000 OA
BRANCH  31  34
ATOM     34  C   UNL     1       2.294   2.999  19.612  0.00  0.00    +0.000 C 
ATOM     35  C   UNL     1       1.389   3.460  20.723  0.00  0.00    +0.000 C 
ATOM     36  C   UNL     1       0.939   2.352  19.817  0.00  0.00    +0.000 C 
ENDBRANCH  31  34
ENDBRANCH   4  31
TORSDOF 8
ENDMDL
MODEL 8
REMARK VINA RESULT:      -7.8      4.958      8.017
REMARK  Name = 
REMARK  11 active torsions:
REMARK  status: ('A' for Active; 'I' for Inactive)
REMARK    1  A    between atoms: C_1  and  C_2
REMARK    2  A    between atoms: C_7  and  C_8
REMARK    3  A    between atoms: N_10  and  C_11
REMARK    4  A    between atoms: N_14  and  S_15
REMARK    5  A    between atoms: S_15  and  C_18
REMARK    6  A    between atoms: C_22  and  C_23
REMARK    7  A    between atoms: N_25  and  C_26
REMARK    8  A    between atoms: C_26  and  C_27
REMARK    9  A    between atoms: C_27  and  N_28
REMARK   10  A    between atoms: N_28  and  C_29
REMARK   11  A    between atoms: N_28  and  C_30
REMARK                            x       y       z     vdW  Elec       q    Type
REMARK                         _______ _______ _______ _____ _____    ______ ____
ROOT
ATOM      1  C   UNL     1       2.625   7.181  18.736  0.00  0.00    +0.000 C 
ATOM      2  C   UNL     1       3.489   7.839  17.649  0.00  0.00    +0.000 C 
ATOM      3  C   UNL     1       4.415   6.880  16.919  0.00  0.00    +0.000 C 
ATOM      4  N   UNL     1       5.274   6.177  17.917  0.00  0.00    +0.000 NA
ATOM      5  C   UNL     1       4.415   5.303  18.760  0.00  0.00    +0.000 C 
ATOM      6  C   UNL     1       3.381   6.113  19.562  0.00  0.00    +0.000 C 
ENDROOT
BRANCH   1   9
ATOM      7  C   UNL     1       1.244   9.255  19.316  0.00  0.00    +0.000 C 
ATOM      8  O   UNL     1       0.800   9.378  18.179  0.00  0.00    +0.000 OA
ATOM      9  N   UNL     1       2.151   8.269  19.637  0.00  0.00    +0.000 N 
ATOM     10  H   UNL     1       2.437   8.207  20.605  0.00  0.00    +0.000 HD
BRANCH   7  17
ATOM     11  C   UNL     1      -3.265  12.874  23.955  0.00  0.00    +0.000 C 
ATOM     12  C   UNL     1      -2.015  12.543  23.189  0.00  0.00    +0.000 A 
ATOM     13  C   UNL     1      -1.196  13.557  22.685  0.00  0.00    +0.000 A 
ATOM     14  C   UNL     1      -0.103  13.272  21.851  0.00  0.00    +0.000 A 
ATOM     15  C   UNL     1       0.114  11.931  21.503  0.00  0.00    +0.000 A 
ATOM     16  N   UNL     1       1.002  11.359  20.616  0.00  0.00    +0.000 N 
ATOM     17  C   UNL     1       0.723  10.014  20.440  0.00  0.00    +0.000 A 
ATOM     18  C   UNL     1      -0.163   9.682  21.453  0.00  0.00    +0.000 A 
ATOM     19  C   UNL     1      -0.652  10.892  22.024  0.00  0.00    +0.000 A 
ATOM     20  C   UNL     1      -1.722  11.200  22.889  0.00  0.00    +0.000 A 
ATOM     21  H   UNL     1       1.651  11.878  20.040  0.00  0.00    +0.000 HD
ENDBRANCH   7  17
ENDBRANCH   1   9
BRANCH   6  22
ATOM     22  C   UNL     1       2.497   5.060  20.258  0.00  0.00    +0.000 C 
ATOM     23  O   UNL     1       1.337   5.322  20.582  0.00  0.00    +0.000 OA
ATOM     24  N   UNL     1       3.004   3.797  20.407  0.00  0.00    +0.000 N 
ATOM     25  H   UNL     1       3.976   3.602  20.218  0.00  0.00    +0.000 HD
BRANCH  24  26
ATOM     26  C   UNL     1       2.175   2.671  20.802  0.00  0.00    +0.000 C 
BRANCH  26  27
ATOM     27  C   UNL     1       1.417   2.025  19.620  0.00  0.00    +0.000 C 
BRANCH  27  28
ATOM     28  N   UNL     1       2.245   1.707  18.434  0.00  0.00    +0.000 NA
ATOM     29  C   UNL     1       2.225   2.781  17.440  0.00  0.00    +0.000 C 
ATOM     30  C   UNL     1       3.629   1.458  18.850  0.00  0.00    +0.000 C 
ENDBRANCH  27  28
ENDBRANCH  26  27
ENDBRANCH  24  26
ENDBRANCH   6  22
BRANCH   4  31
ATOM     31  S   UNL     1       6.583   5.356  17.128  0.00  0.00    +0.000 S 
ATOM     32  O   UNL     1       7.335   6.369  16.418  0.00  0.00    +0.000 OA
ATOM     33  O   UNL     1       7.225   4.542  18.140  0.00  0.00    +0.000 OA
BRANCH  31  34
ATOM     34  C   UNL     1       5.942   4.162  15.908  0.00  0.00    +0.000 C 
ATOM     35  C   UNL     1       5.430   4.724  14.609  0.00  0.00    +0.000 C 
ATOM     36  C   UNL     1       6.778   4.068  14.648  0.00  0.00    +0.000 C 
ENDBRANCH  31  34
ENDBRANCH   4  31
TORSDOF 8
ENDMDL
MODEL 9
REMARK VINA RESULT:      -7.8      5.260      7.870
REMARK  Name = 
REMARK  11 active torsions:
REMARK  status: ('A' for Active; 'I' for Inactive)
REMARK    1  A    between atoms: C_1  and  C_2
REMARK    2  A    between atoms: C_7  and  C_8
REMARK    3  A    between atoms: N_10  and  C_11
REMARK    4  A    between atoms: N_14  and  S_15
REMARK    5  A    between atoms: S_15  and  C_18
REMARK    6  A    between atoms: C_22  and  C_23
REMARK    7  A    between atoms: N_25  and  C_26
REMARK    8  A    between atoms: C_26  and  C_27
REMARK    9  A    between atoms: C_27  and  N_28
REMARK   10  A    between atoms: N_28  and  C_29
REMARK   11  A    between atoms: N_28  and  C_30
REMARK                            x       y       z     vdW  Elec       q    Type
REMARK                         _______ _______ _______ _____ _____    ______ ____
ROOT
ATOM      1  C   UNL     1       1.953   7.436  19.896  0.00  0.00    +0.000 C 
ATOM      2  C   UNL     1       1.472   6.608  21.097  0.00  0.00    +0.000 C 
ATOM      3  C   UNL     1       2.293   5.358  21.365  0.00  0.00    +0.000 C 
ATOM      4  N   UNL     1       2.323   4.520  20.130  0.00  0.00    +0.000 NA
ATOM      5  C   UNL     1       3.078   5.247  19.075  0.00  0.00    +0.000 C 
ATOM      6  C   UNL     1       2.398   6.573  18.691  0.00  0.00    +0.000 C 
ENDROOT
BRANCH   1   9
ATOM      7  C   UNL     1       0.653   9.639  19.845  0.00  0.00    +0.000 C 
ATOM      8  O   UNL     1       1.408  10.197  20.635  0.00  0.00    +0.000 OA
ATOM      9  N   UNL     1       0.824   8.318  19.491  0.00  0.00    +0.000 N 
ATOM     10  H   UNL     1       0.186   7.943  18.802  0.00  0.00    +0.000 HD
BRANCH   7  17
ATOM     11  C   UNL     1      -5.822  12.092  17.200  0.00  0.00    +0.000 C 
ATOM     12  C   UNL     1      -4.376  11.682  17.207  0.00  0.00    +0.000 A 
ATOM     13  C   UNL     1      -3.816  11.019  16.112  0.00  0.00    +0.000 A 
ATOM     14  C   UNL     1      -2.510  10.505  16.155  0.00  0.00    +0.000 A 
ATOM     15  C   UNL     1      -1.798  10.644  17.354  0.00  0.00    +0.000 A 
ATOM     16  N   UNL     1      -0.573  10.140  17.743  0.00  0.00    +0.000 N 
ATOM     17  C   UNL     1      -0.358  10.362  19.092  0.00  0.00    +0.000 A 
ATOM     18  C   UNL     1      -1.328  11.272  19.480  0.00  0.00    +0.000 A 
ATOM     19  C   UNL     1      -2.306  11.340  18.446  0.00  0.00    +0.000 A 
ATOM     20  C   UNL     1      -3.607  11.879  18.368  0.00  0.00    +0.000 A 
ATOM     21  H   UNL     1       0.007   9.541  17.172  0.00  0.00    +0.000 HD
ENDBRANCH   7  17
ENDBRANCH   1   9
BRANCH   6  22
ATOM     22  C   UNL     1       3.370   7.253  17.707  0.00  0.00    +0.000 C 
ATOM     23  O   UNL     1       3.382   8.479  17.575  0.00  0.00    +0.000 OA
ATOM     24  N   UNL     1       4.288   6.465  17.067  0.00  0.00    +0.000 N 
ATOM     25  H   UNL     1       4.228   5.458  17.110  0.00  0.00    +0.000 HD
BRANCH  24  26
ATOM     26  C   UNL     1       5.409   7.022  16.331  0.00  0.00    +0.000 C 
BRANCH  26  27
ATOM     27  C   UNL     1       6.764   6.844  17.054  0.00  0.00    +0.000 C 
BRANCH  27  28
ATOM     28  N   UNL     1       7.532   5.637  16.674  0.00  0.00    +0.000 NA
ATOM     29  C   UNL     1       7.534   4.625  17.731  0.00  0.00    +0.000 C 
ATOM     30  C   UNL     1       6.966   5.057  15.451  0.00  0.00    +0.000 C 
ENDBRANCH  27  28
ENDBRANCH  26  27
ENDBRANCH  24  26
ENDBRANCH   6  22
BRANCH   4  31
ATOM     31  S   UNL     1       2.925   2.931  20.482  0.00  0.00    +0.000 S 
ATOM     32  O   UNL     1       4.330   2.936  20.131  0.00  0.00    +0.000 OA
ATOM     33  O   UNL     1       2.510   2.627  21.836  0.00  0.00    +0.000 OA
BRANCH  31  34
ATOM     34  C   UNL     1       2.083   1.689  19.447  0.00  0.00    +0.000 C 
ATOM     35  C   UNL     1       0.882   2.153  18.667  0.00  0.00    +0.000 C 
ATOM     36  C   UNL     1       2.190   1.959  17.960  0.00  0.00    +0.000 C 
ENDBRANCH  31  34
ENDBRANCH   4  31
TORSDOF 8
ENDMDL
