MODEL 1
REMARK VINA RESULT:      -7.6      0.000      0.000
REMARK  Name = 
REMARK  9 active torsions:
REMARK  status: ('A' for Active; 'I' for Inactive)
REMARK    1  A    between atoms: C_1  and  C_2
REMARK    2  A    between atoms: C_2  and  C_3
REMARK    3  A    between atoms: C_2  and  C_4
REMARK    4  A    between atoms: C_2  and  O_5
REMARK    5  A    between atoms: O_5  and  C_6
REMARK    6  A    between atoms: C_6  and  C_8
REMARK    7  A    between atoms: C_13  and  C_14
REMARK    8  A    between atoms: C_23  and  C_24
REMARK    9  A    between atoms: C_23  and  C_25
REMARK                            x       y       z     vdW  Elec       q    Type
REMARK                         _______ _______ _______ _____ _____    ______ ____
ROOT
ATOM      1  C   UNL     1       3.678   4.823  17.522  0.00  0.00    +0.000 C 
ATOM      2  N   UNL     1       3.856   5.947  18.440  0.00  0.00    +0.000 N 
ATOM      3  C   UNL     1       3.050   7.038  18.390  0.00  0.00    +0.000 C 
ATOM      4  O   UNL     1       2.632   7.677  17.456  0.00  0.00    +0.000 OA
ATOM      5  C   UNL     1       2.716   6.915  19.806  0.00  0.00    +0.000 C 
ATOM      6  C   UNL     1       1.909   7.572  20.641  0.00  0.00    +0.000 C 
ATOM      7  C   UNL     1       3.553   5.662  19.848  0.00  0.00    +0.000 C 
ATOM      8  S   UNL     1       2.517   4.060  19.893  0.00  0.00    +0.000 S 
ATOM      9  O   UNL     1       3.448   2.887  20.365  0.00  0.00    +0.000 OA
ATOM     10  C   UNL     1       2.453   4.015  18.016  0.00  0.00    +0.000 C 
ATOM     11  C   UNL     1       2.418   2.565  17.525  0.00  0.00    +0.000 C 
ATOM     12  C   UNL     1       1.105   4.658  17.616  0.00  0.00    +0.000 C 
ENDROOT
BRANCH   6  13
ATOM     13  C   UNL     1       1.041   8.682  20.248  0.00  0.00    +0.000 A 
ATOM     14  C   UNL     1       0.064   9.132  21.144  0.00  0.00    +0.000 A 
ATOM     15  C   UNL     1      -0.790  10.177  20.787  0.00  0.00    +0.000 A 
ATOM     16  C   UNL     1      -0.667  10.776  19.535  0.00  0.00    +0.000 A 
ATOM     17  C   UNL     1       0.302  10.327  18.638  0.00  0.00    +0.000 A 
ATOM     18  C   UNL     1       1.154   9.279  18.990  0.00  0.00    +0.000 A 
ENDBRANCH   6  13
BRANCH   1  19
ATOM     19  C   UNL     1       5.006   4.060  17.596  0.00  0.00    +0.000 C 
ATOM     20  O   UNL     1       5.624   3.902  18.642  0.00  0.00    +0.000 OA
BRANCH  19  21
ATOM     21  O   UNL     1       5.412   3.595  16.376  0.00  0.00    +0.000 OA
BRANCH  21  23
ATOM     22  C   UNL     1       7.543   4.777  16.059  0.00  0.00    +0.000 C 
ATOM     23  C   UNL     1       6.134   4.518  15.507  0.00  0.00    +0.000 C 
ATOM     24  C   UNL     1       5.347   5.820  15.286  0.00  0.00    +0.000 C 
ATOM     25  C   UNL     1       6.296   3.827  14.140  0.00  0.00    +0.000 C 
ENDBRANCH  21  23
ENDBRANCH  19  21
ENDBRANCH   1  19
TORSDOF 4
ENDMDL
MODEL 2
REMARK VINA RESULT:      -7.5      0.087      1.301
REMARK  Name = 
REMARK  9 active torsions:
REMARK  status: ('A' for Active; 'I' for Inactive)
REMARK    1  A    between atoms: C_1  and  C_2
REMARK    2  A    between atoms: C_2  and  C_3
REMARK    3  A    between atoms: C_2  and  C_4
REMARK    4  A    between atoms: C_2  and  O_5
REMARK    5  A    between atoms: O_5  and  C_6
REMARK    6  A    between atoms: C_6  and  C_8
REMARK    7  A    between atoms: C_13  and  C_14
REMARK    8  A    between atoms: C_23  and  C_24
REMARK    9  A    between atoms: C_23  and  C_25
REMARK                            x       y       z     vdW  Elec       q    Type
REMARK                         _______ _______ _______ _____ _____    ______ ____
ROOT
ATOM      1  C   UNL     1       3.679   4.836  17.471  0.00  0.00    +0.000 C 
ATOM      2  N   UNL     1       3.858   5.963  18.386  0.00  0.00    +0.000 N 
ATOM      3  C   UNL     1       3.036   7.042  18.351  0.00  0.00    +0.000 C 
ATOM      4  O   UNL     1       2.592   7.675  17.424  0.00  0.00    +0.000 OA
ATOM      5  C   UNL     1       2.731   6.915  19.773  0.00  0.00    +0.000 C 
ATOM      6  C   UNL     1       1.930   7.561  20.622  0.00  0.00    +0.000 C 
ATOM      7  C   UNL     1       3.586   5.675  19.799  0.00  0.00    +0.000 C 
ATOM      8  S   UNL     1       2.574   4.058  19.864  0.00  0.00    +0.000 S 
ATOM      9  O   UNL     1       3.530   2.898  20.318  0.00  0.00    +0.000 OA
ATOM     10  C   UNL     1       2.475   4.011  17.989  0.00  0.00    +0.000 C 
ATOM     11  C   UNL     1       2.451   2.560  17.498  0.00  0.00    +0.000 C 
ATOM     12  C   UNL     1       1.111   4.635  17.614  0.00  0.00    +0.000 C 
ENDROOT
BRANCH   6  13
ATOM     13  C   UNL     1       1.039   8.659  20.246  0.00  0.00    +0.000 A 
ATOM     14  C   UNL     1       1.271   9.342  19.046  0.00  0.00    +0.000 A 
ATOM     15  C   UNL     1       0.449  10.405  18.672  0.00  0.00    +0.000 A 
ATOM     16  C   UNL     1      -0.610  10.786  19.494  0.00  0.00    +0.000 A 
ATOM     17  C   UNL     1      -0.841  10.111  20.692  0.00  0.00    +0.000 A 
ATOM     18  C   UNL     1      -0.017   9.050  21.071  0.00  0.00    +0.000 A 
ENDBRANCH   6  13
BRANCH   1  19
ATOM     19  C   UNL     1       5.019   4.091  17.520  0.00  0.00    +0.000 C 
ATOM     20  O   UNL     1       5.679   3.982  18.546  0.00  0.00    +0.000 OA
BRANCH  19  21
ATOM     21  O   UNL     1       5.382   3.586  16.303  0.00  0.00    +0.000 OA
BRANCH  21  23
ATOM     22  C   UNL     1       6.267   3.813  14.022  0.00  0.00    +0.000 C 
ATOM     23  C   UNL     1       6.158   4.446  15.417  0.00  0.00    +0.000 C 
ATOM     24  C   UNL     1       7.535   4.779  16.015  0.00  0.00    +0.000 C 
ATOM     25  C   UNL     1       5.379   5.766  15.263  0.00  0.00    +0.000 C 
ENDBRANCH  21  23
ENDBRANCH  19  21
ENDBRANCH   1  19
TORSDOF 4
ENDMDL
MODEL 3
REMARK VINA RESULT:      -7.4      3.499      5.103
REMARK  Name = 
REMARK  9 active torsions:
REMARK  status: ('A' for Active; 'I' for Inactive)
REMARK    1  A    between atoms: C_1  and  C_2
REMARK    2  A    between atoms: C_2  and  C_3
REMARK    3  A    between atoms: C_2  and  C_4
REMARK    4  A    between atoms: C_2  and  O_5
REMARK    5  A    between atoms: O_5  and  C_6
REMARK    6  A    between atoms: C_6  and  C_8
REMARK    7  A    between atoms: C_13  and  C_14
REMARK    8  A    between atoms: C_23  and  C_24
REMARK    9  A    between atoms: C_23  and  C_25
REMARK                            x       y       z     vdW  Elec       q    Type
REMARK                         _______ _______ _______ _____ _____    ______ ____
ROOT
ATOM      1  C   UNL     1       6.484   4.420  16.421  0.00  0.00    +0.000 C 
ATOM      2  N   UNL     1       5.113   3.913  16.371  0.00  0.00    +0.000 N 
ATOM      3  C   UNL     1       4.505   3.402  17.471  0.00  0.00    +0.000 C 
ATOM      4  O   UNL     1       4.908   2.652  18.327  0.00  0.00    +0.000 OA
ATOM      5  C   UNL     1       3.370   4.308  17.323  0.00  0.00    +0.000 C 
ATOM      6  C   UNL     1       2.262   4.547  18.027  0.00  0.00    +0.000 C 
ATOM      7  C   UNL     1       4.076   4.926  16.143  0.00  0.00    +0.000 C 
ATOM      8  S   UNL     1       4.850   6.627  16.529  0.00  0.00    +0.000 S 
ATOM      9  O   UNL     1       5.159   7.346  15.168  0.00  0.00    +0.000 OA
ATOM     10  C   UNL     1       6.436   5.806  17.111  0.00  0.00    +0.000 C 
ATOM     11  C   UNL     1       7.638   6.703  16.802  0.00  0.00    +0.000 C 
ATOM     12  C   UNL     1       6.330   5.709  18.651  0.00  0.00    +0.000 C 
ENDROOT
BRANCH   6  13
ATOM     13  C   UNL     1       1.926   3.887  19.288  0.00  0.00    +0.000 A 
ATOM     14  C   UNL     1       2.481   4.370  20.478  0.00  0.00    +0.000 A 
ATOM     15  C   UNL     1       2.192   3.748  21.693  0.00  0.00    +0.000 A 
ATOM     16  C   UNL     1       1.345   2.641  21.721  0.00  0.00    +0.000 A 
ATOM     17  C   UNL     1       0.794   2.153  20.536  0.00  0.00    +0.000 A 
ATOM     18  C   UNL     1       1.085   2.772  19.319  0.00  0.00    +0.000 A 
ENDBRANCH   6  13
BRANCH   1  19
ATOM     19  C   UNL     1       6.926   4.464  14.953  0.00  0.00    +0.000 C 
ATOM     20  O   UNL     1       7.642   5.350  14.502  0.00  0.00    +0.000 OA
BRANCH  19  21
ATOM     21  O   UNL     1       6.426   3.422  14.225  0.00  0.00    +0.000 OA
BRANCH  21  23
ATOM     22  C   UNL     1       7.302   4.571  12.237  0.00  0.00    +0.000 C 
ATOM     23  C   UNL     1       6.224   3.630  12.795  0.00  0.00    +0.000 C 
ATOM     24  C   UNL     1       4.802   4.129  12.492  0.00  0.00    +0.000 C 
ATOM     25  C   UNL     1       6.403   2.266  12.104  0.00  0.00    +0.000 C 
ENDBRANCH  21  23
ENDBRANCH  19  21
ENDBRANCH   1  19
TORSDOF 4
ENDMDL
MODEL 4
REMARK VINA RESULT:      -7.2      1.294      1.746
REMARK  Name = 
REMARK  9 active torsions:
REMARK  status: ('A' for Active; 'I' for Inactive)
REMARK    1  A    between atoms: C_1  and  C_2
REMARK    2  A    between atoms: C_2  and  C_3
REMARK    3  A    between atoms: C_2  and  C_4
REMARK    4  A    between atoms: C_2  and  O_5
REMARK    5  A    between atoms: O_5  and  C_6
REMARK    6  A    between atoms: C_6  and  C_8
REMARK    7  A    between atoms: C_13  and  C_14
REMARK    8  A    between atoms: C_23  and  C_24
REMARK    9  A    between atoms: C_23  and  C_25
REMARK                            x       y       z     vdW  Elec       q    Type
REMARK                         _______ _______ _______ _____ _____    ______ ____
ROOT
ATOM      1  C   UNL     1       3.558   4.865  18.402  0.00  0.00    +0.000 C 
ATOM      2  N   UNL     1       3.546   5.963  19.369  0.00  0.00    +0.000 N 
ATOM      3  C   UNL     1       2.983   7.162  19.074  0.00  0.00    +0.000 C 
ATOM      4  O   UNL     1       3.037   7.844  18.079  0.00  0.00    +0.000 OA
ATOM      5  C   UNL     1       2.139   7.112  20.264  0.00  0.00    +0.000 C 
ATOM      6  C   UNL     1       1.186   7.895  20.773  0.00  0.00    +0.000 C 
ATOM      7  C   UNL     1       2.710   5.747  20.555  0.00  0.00    +0.000 C 
ATOM      8  S   UNL     1       1.508   4.321  20.151  0.00  0.00    +0.000 S 
ATOM      9  O   UNL     1       2.019   3.028  20.880  0.00  0.00    +0.000 OA
ATOM     10  C   UNL     1       2.133   4.259  18.380  0.00  0.00    +0.000 C 
ATOM     11  C   UNL     1       2.070   2.824  17.849  0.00  0.00    +0.000 C 
ATOM     12  C   UNL     1       1.135   5.092  17.543  0.00  0.00    +0.000 C 
ENDROOT
BRANCH   6  13
ATOM     13  C   UNL     1       0.695   9.118  20.137  0.00  0.00    +0.000 A 
ATOM     14  C   UNL     1       0.093   9.034  18.877  0.00  0.00    +0.000 A 
ATOM     15  C   UNL     1      -0.367  10.187  18.239  0.00  0.00    +0.000 A 
ATOM     16  C   UNL     1      -0.229  11.426  18.862  0.00  0.00    +0.000 A 
ATOM     17  C   UNL     1       0.376  11.514  20.116  0.00  0.00    +0.000 A 
ATOM     18  C   UNL     1       0.841  10.362  20.754  0.00  0.00    +0.000 A 
ENDBRANCH   6  13
BRANCH   1  19
ATOM     19  C   UNL     1       4.639   3.911  18.924  0.00  0.00    +0.000 C 
ATOM     20  O   UNL     1       4.403   2.753  19.244  0.00  0.00    +0.000 OA
BRANCH  19  21
ATOM     21  O   UNL     1       5.869   4.503  18.995  0.00  0.00    +0.000 OA
BRANCH  21  23
ATOM     22  C   UNL     1       6.518   6.420  17.602  0.00  0.00    +0.000 C 
ATOM     23  C   UNL     1       6.506   4.891  17.742  0.00  0.00    +0.000 C 
ATOM     24  C   UNL     1       5.849   4.201  16.536  0.00  0.00    +0.000 C 
ATOM     25  C   UNL     1       7.972   4.425  17.811  0.00  0.00    +0.000 C 
ENDBRANCH  21  23
ENDBRANCH  19  21
ENDBRANCH   1  19
TORSDOF 4
ENDMDL
MODEL 5
REMARK VINA RESULT:      -7.2      1.036      1.382
REMARK  Name = 
REMARK  9 active torsions:
REMARK  status: ('A' for Active; 'I' for Inactive)
REMARK    1  A    between atoms: C_1  and  C_2
REMARK    2  A    between atoms: C_2  and  C_3
REMARK    3  A    between atoms: C_2  and  C_4
REMARK    4  A    between atoms: C_2  and  O_5
REMARK    5  A    between atoms: O_5  and  C_6
REMARK    6  A    between atoms: C_6  and  C_8
REMARK    7  A    between atoms: C_13  and  C_14
REMARK    8  A    between atoms: C_23  and  C_24
REMARK    9  A    between atoms: C_23  and  C_25
REMARK                            x       y       z     vdW  Elec       q    Type
REMARK                         _______ _______ _______ _____ _____    ______ ____
ROOT
ATOM      1  C   UNL     1       3.550   5.361  17.832  0.00  0.00    +0.000 C 
ATOM      2  N   UNL     1       3.576   6.496  18.755  0.00  0.00    +0.000 N 
ATOM      3  C   UNL     1       2.853   7.619  18.517  0.00  0.00    +0.000 C 
ATOM      4  O   UNL     1       2.680   8.256  17.506  0.00  0.00    +0.000 OA
ATOM      5  C   UNL     1       2.213   7.542  19.827  0.00  0.00    +0.000 C 
ATOM      6  C   UNL     1       1.275   8.251  20.457  0.00  0.00    +0.000 C 
ATOM      7  C   UNL     1       2.961   6.255  20.065  0.00  0.00    +0.000 C 
ATOM      8  S   UNL     1       1.865   4.701  19.900  0.00  0.00    +0.000 S 
ATOM      9  O   UNL     1       2.614   3.499  20.578  0.00  0.00    +0.000 OA
ATOM     10  C   UNL     1       2.210   4.618  18.056  0.00  0.00    +0.000 C 
ATOM     11  C   UNL     1       2.214   3.160  17.585  0.00  0.00    +0.000 C 
ATOM     12  C   UNL     1       1.014   5.311  17.363  0.00  0.00    +0.000 C 
ENDROOT
BRANCH   6  13
ATOM     13  C   UNL     1       0.567   9.390  19.871  0.00  0.00    +0.000 A 
ATOM     14  C   UNL     1       0.719  10.655  20.448  0.00  0.00    +0.000 A 
ATOM     15  C   UNL     1       0.041  11.755  19.921  0.00  0.00    +0.000 A 
ATOM     16  C   UNL     1      -0.789  11.592  18.813  0.00  0.00    +0.000 A 
ATOM     17  C   UNL     1      -0.948  10.331  18.239  0.00  0.00    +0.000 A 
ATOM     18  C   UNL     1      -0.273   9.229  18.767  0.00  0.00    +0.000 A 
ENDBRANCH   6  13
BRANCH   1  19
ATOM     19  C   UNL     1       4.793   4.542  18.204  0.00  0.00    +0.000 C 
ATOM     20  O   UNL     1       5.123   4.328  19.364  0.00  0.00    +0.000 OA
BRANCH  19  21
ATOM     21  O   UNL     1       5.475   4.099  17.106  0.00  0.00    +0.000 OA
BRANCH  21  23
ATOM     22  C   UNL     1       6.390   6.370  16.902  0.00  0.00    +0.000 C 
ATOM     23  C   UNL     1       6.634   4.872  16.673  0.00  0.00    +0.000 C 
ATOM     24  C   UNL     1       7.009   4.559  15.215  0.00  0.00    +0.000 C 
ATOM     25  C   UNL     1       7.820   4.458  17.564  0.00  0.00    +0.000 C 
ENDBRANCH  21  23
ENDBRANCH  19  21
ENDBRANCH   1  19
TORSDOF 4
ENDMDL
MODEL 6
REMARK VINA RESULT:      -7.2      1.153      1.439
REMARK  Name = 
REMARK  9 active torsions:
REMARK  status: ('A' for Active; 'I' for Inactive)
REMARK    1  A    between atoms: C_1  and  C_2
REMARK    2  A    between atoms: C_2  and  C_3
REMARK    3  A    between atoms: C_2  and  C_4
REMARK    4  A    between atoms: C_2  and  O_5
REMARK    5  A    between atoms: O_5  and  C_6
REMARK    6  A    between atoms: C_6  and  C_8
REMARK    7  A    between atoms: C_13  and  C_14
REMARK    8  A    between atoms: C_23  and  C_24
REMARK    9  A    between atoms: C_23  and  C_25
REMARK                            x       y       z     vdW  Elec       q    Type
REMARK                         _______ _______ _______ _____ _____    ______ ____
ROOT
ATOM      1  C   UNL     1       3.511   5.534  17.784  0.00  0.00    +0.000 C 
ATOM      2  N   UNL     1       3.515   6.720  18.641  0.00  0.00    +0.000 N 
ATOM      3  C   UNL     1       2.770   7.814  18.342  0.00  0.00    +0.000 C 
ATOM      4  O   UNL     1       2.585   8.389  17.297  0.00  0.00    +0.000 OA
ATOM      5  C   UNL     1       2.132   7.798  19.655  0.00  0.00    +0.000 C 
ATOM      6  C   UNL     1       1.181   8.524  20.245  0.00  0.00    +0.000 C 
ATOM      7  C   UNL     1       2.905   6.541  19.964  0.00  0.00    +0.000 C 
ATOM      8  S   UNL     1       1.839   4.960  19.889  0.00  0.00    +0.000 S 
ATOM      9  O   UNL     1       2.611   3.812  20.632  0.00  0.00    +0.000 OA
ATOM     10  C   UNL     1       2.185   4.780  18.051  0.00  0.00    +0.000 C 
ATOM     11  C   UNL     1       2.217   3.298  17.664  0.00  0.00    +0.000 C 
ATOM     12  C   UNL     1       0.975   5.409  17.322  0.00  0.00    +0.000 C 
ENDROOT
BRANCH   6  13
ATOM     13  C   UNL     1       0.451   9.614  19.597  0.00  0.00    +0.000 A 
ATOM     14  C   UNL     1      -0.546   9.304  18.665  0.00  0.00    +0.000 A 
ATOM     15  C   UNL     1      -1.244  10.324  18.018  0.00  0.00    +0.000 A 
ATOM     16  C   UNL     1      -0.949  11.656  18.304  0.00  0.00    +0.000 A 
ATOM     17  C   UNL     1       0.048  11.968  19.227  0.00  0.00    +0.000 A 
ATOM     18  C   UNL     1       0.751  10.949  19.873  0.00  0.00    +0.000 A 
ENDBRANCH   6  13
BRANCH   1  19
ATOM     19  C   UNL     1       4.768   4.762  18.199  0.00  0.00    +0.000 C 
ATOM     20  O   UNL     1       5.092   4.601  19.370  0.00  0.00    +0.000 OA
BRANCH  19  21
ATOM     21  O   UNL     1       5.473   4.293  17.126  0.00  0.00    +0.000 OA
BRANCH  21  23
ATOM     22  C   UNL     1       7.875   4.453  17.619  0.00  0.00    +0.000 C 
ATOM     23  C   UNL     1       6.708   4.984  16.774  0.00  0.00    +0.000 C 
ATOM     24  C   UNL     1       6.554   6.510  16.887  0.00  0.00    +0.000 C 
ATOM     25  C   UNL     1       7.016   4.649  15.303  0.00  0.00    +0.000 C 
ENDBRANCH  21  23
ENDBRANCH  19  21
ENDBRANCH   1  19
TORSDOF 4
ENDMDL
MODEL 7
REMARK VINA RESULT:      -7.1      4.346      9.209
REMARK  Name = 
REMARK  9 active torsions:
REMARK  status: ('A' for Active; 'I' for Inactive)
REMARK    1  A    between atoms: C_1  and  C_2
REMARK    2  A    between atoms: C_2  and  C_3
REMARK    3  A    between atoms: C_2  and  C_4
REMARK    4  A    between atoms: C_2  and  O_5
REMARK    5  A    between atoms: O_5  and  C_6
REMARK    6  A    between atoms: C_6  and  C_8
REMARK    7  A    between atoms: C_13  and  C_14
REMARK    8  A    between atoms: C_23  and  C_24
REMARK    9  A    between atoms: C_23  and  C_25
REMARK                            x       y       z     vdW  Elec       q    Type
REMARK                         _______ _______ _______ _____ _____    ______ ____
ROOT
ATOM      1  C   UNL     1      -1.193  10.668  21.624  0.00  0.00    +0.000 C 
ATOM      2  N   UNL     1      -0.211   9.686  22.081  0.00  0.00    +0.000 N 
ATOM      3  C   UNL     1      -0.136   8.448  21.529  0.00  0.00    +0.000 C 
ATOM      4  O   UNL     1      -0.997   7.661  21.219  0.00  0.00    +0.000 OA
ATOM      5  C   UNL     1       1.286   8.611  21.240  0.00  0.00    +0.000 C 
ATOM      6  C   UNL     1       2.212   7.867  20.632  0.00  0.00    +0.000 C 
ATOM      7  C   UNL     1       1.189  10.012  21.787  0.00  0.00    +0.000 C 
ATOM      8  S   UNL     1       1.186  11.356  20.431  0.00  0.00    +0.000 S 
ATOM      9  O   UNL     1       1.517  12.734  21.105  0.00  0.00    +0.000 OA
ATOM     10  C   UNL     1      -0.682  11.235  20.276  0.00  0.00    +0.000 C 
ATOM     11  C   UNL     1      -1.270  12.599  19.906  0.00  0.00    +0.000 C 
ATOM     12  C   UNL     1      -0.954  10.289  19.083  0.00  0.00    +0.000 C 
ENDROOT
BRANCH   6  13
ATOM     13  C   UNL     1       1.950   6.570  20.009  0.00  0.00    +0.000 A 
ATOM     14  C   UNL     1       1.544   5.499  20.813  0.00  0.00    +0.000 A 
ATOM     15  C   UNL     1       1.306   4.245  20.248  0.00  0.00    +0.000 A 
ATOM     16  C   UNL     1       1.471   4.061  18.876  0.00  0.00    +0.000 A 
ATOM     17  C   UNL     1       1.881   5.124  18.073  0.00  0.00    +0.000 A 
ATOM     18  C   UNL     1       2.123   6.378  18.637  0.00  0.00    +0.000 A 
ENDBRANCH   6  13
BRANCH   1  19
ATOM     19  C   UNL     1      -1.253  11.700  22.757  0.00  0.00    +0.000 C 
ATOM     20  O   UNL     1      -0.376  12.536  22.940  0.00  0.00    +0.000 OA
BRANCH  19  21
ATOM     21  O   UNL     1      -2.376  11.569  23.525  0.00  0.00    +0.000 OA
BRANCH  21  23
ATOM     22  C   UNL     1      -4.075  12.709  22.164  0.00  0.00    +0.000 C 
ATOM     23  C   UNL     1      -3.337  12.666  23.510  0.00  0.00    +0.000 C 
ATOM     24  C   UNL     1      -2.669  14.008  23.851  0.00  0.00    +0.000 C 
ATOM     25  C   UNL     1      -4.385  12.371  24.599  0.00  0.00    +0.000 C 
ENDBRANCH  21  23
ENDBRANCH  19  21
ENDBRANCH   1  19
TORSDOF 4
ENDMDL
MODEL 8
REMARK VINA RESULT:      -6.9      6.338      9.053
REMARK  Name = 
REMARK  9 active torsions:
REMARK  status: ('A' for Active; 'I' for Inactive)
REMARK    1  A    between atoms: C_1  and  C_2
REMARK    2  A    between atoms: C_2  and  C_3
REMARK    3  A    between atoms: C_2  and  C_4
REMARK    4  A    between atoms: C_2  and  O_5
REMARK    5  A    between atoms: O_5  and  C_6
REMARK    6  A    between atoms: C_6  and  C_8
REMARK    7  A    between atoms: C_13  and  C_14
REMARK    8  A    between atoms: C_23  and  C_24
REMARK    9  A    between atoms: C_23  and  C_25
REMARK                            x       y       z     vdW  Elec       q    Type
REMARK                         _______ _______ _______ _____ _____    ______ ____
ROOT
ATOM      1  C   UNL     1      -1.402  11.069  19.677  0.00  0.00    +0.000 C 
ATOM      2  N   UNL     1      -1.733  12.493  19.717  0.00  0.00    +0.000 N 
ATOM      3  C   UNL     1      -2.333  13.052  20.798  0.00  0.00    +0.000 C 
ATOM      4  O   UNL     1      -3.247  12.670  21.487  0.00  0.00    +0.000 OA
ATOM      5  C   UNL     1      -1.289  14.066  20.913  0.00  0.00    +0.000 C 
ATOM      6  C   UNL     1      -1.034  15.058  21.768  0.00  0.00    +0.000 C 
ATOM      7  C   UNL     1      -0.583  13.405  19.757  0.00  0.00    +0.000 C 
ATOM      8  S   UNL     1       0.936  12.378  20.285  0.00  0.00    +0.000 S 
ATOM      9  O   UNL     1       1.816  12.112  19.012  0.00  0.00    +0.000 OA
ATOM     10  C   UNL     1      -0.143  10.865  20.556  0.00  0.00    +0.000 C 
ATOM     11  C   UNL     1       0.645   9.591  20.238  0.00  0.00    +0.000 C 
ATOM     12  C   UNL     1      -0.463  10.831  22.068  0.00  0.00    +0.000 C 
ENDROOT
BRANCH   6  13
ATOM     13  C   UNL     1      -1.837  15.353  22.955  0.00  0.00    +0.000 A 
ATOM     14  C   UNL     1      -2.960  16.179  22.828  0.00  0.00    +0.000 A 
ATOM     15  C   UNL     1      -3.733  16.492  23.946  0.00  0.00    +0.000 A 
ATOM     16  C   UNL     1      -3.387  15.978  25.194  0.00  0.00    +0.000 A 
ATOM     17  C   UNL     1      -2.265  15.159  25.326  0.00  0.00    +0.000 A 
ATOM     18  C   UNL     1      -1.488  14.848  24.209  0.00  0.00    +0.000 A 
ENDBRANCH   6  13
BRANCH   1  19
ATOM     19  C   UNL     1      -1.184  10.772  18.188  0.00  0.00    +0.000 C 
ATOM     20  O   UNL     1      -0.324   9.999  17.785  0.00  0.00    +0.000 OA
BRANCH  19  21
ATOM     21  O   UNL     1      -2.043  11.468  17.385  0.00  0.00    +0.000 OA
BRANCH  21  23
ATOM     22  C   UNL     1      -3.446   9.459  17.566  0.00  0.00    +0.000 C 
ATOM     23  C   UNL     1      -3.135  10.730  16.762  0.00  0.00    +0.000 C 
ATOM     24  C   UNL     1      -2.841  10.426  15.283  0.00  0.00    +0.000 C 
ATOM     25  C   UNL     1      -4.386  11.627  16.819  0.00  0.00    +0.000 C 
ENDBRANCH  21  23
ENDBRANCH  19  21
ENDBRANCH   1  19
TORSDOF 4
ENDMDL
MODEL 9
REMARK VINA RESULT:      -6.9      1.114      1.735
REMARK  Name = 
REMARK  9 active torsions:
REMARK  status: ('A' for Active; 'I' for Inactive)
REMARK    1  A    between atoms: C_1  and  C_2
REMARK    2  A    between atoms: C_2  and  C_3
REMARK    3  A    between atoms: C_2  and  C_4
REMARK    4  A    between atoms: C_2  and  O_5
REMARK    5  A    between atoms: O_5  and  C_6
REMARK    6  A    between atoms: C_6  and  C_8
REMARK    7  A    between atoms: C_13  and  C_14
REMARK    8  A    between atoms: C_23  and  C_24
REMARK    9  A    between atoms: C_23  and  C_25
REMARK                            x       y       z     vdW  Elec       q    Type
REMARK                         _______ _______ _______ _____ _____    ______ ____
ROOT
ATOM      1  C   UNL     1       3.627   5.150  17.413  0.00  0.00    +0.000 C 
ATOM      2  N   UNL     1       3.763   6.268  18.348  0.00  0.00    +0.000 N 
ATOM      3  C   UNL     1       2.920   7.330  18.309  0.00  0.00    +0.000 C 
ATOM      4  O   UNL     1       2.484   7.968  17.381  0.00  0.00    +0.000 OA
ATOM      5  C   UNL     1       2.586   7.177  19.722  0.00  0.00    +0.000 C 
ATOM      6  C   UNL     1       1.753   7.795  20.562  0.00  0.00    +0.000 C 
ATOM      7  C   UNL     1       3.466   5.954  19.750  0.00  0.00    +0.000 C 
ATOM      8  S   UNL     1       2.485   4.317  19.770  0.00  0.00    +0.000 S 
ATOM      9  O   UNL     1       3.454   3.170  20.230  0.00  0.00    +0.000 OA
ATOM     10  C   UNL     1       2.429   4.294  17.893  0.00  0.00    +0.000 C 
ATOM     11  C   UNL     1       2.446   2.850  17.382  0.00  0.00    +0.000 C 
ATOM     12  C   UNL     1       1.061   4.896  17.496  0.00  0.00    +0.000 C 
ENDROOT
BRANCH   6  13
ATOM     13  C   UNL     1       0.849   8.880  20.181  0.00  0.00    +0.000 A 
ATOM     14  C   UNL     1       0.053   9.479  21.164  0.00  0.00    +0.000 A 
ATOM     15  C   UNL     1      -0.832  10.503  20.824  0.00  0.00    +0.000 A 
ATOM     16  C   UNL     1      -0.921  10.932  19.501  0.00  0.00    +0.000 A 
ATOM     17  C   UNL     1      -0.134  10.333  18.518  0.00  0.00    +0.000 A 
ATOM     18  C   UNL     1       0.749   9.306  18.855  0.00  0.00    +0.000 A 
ENDBRANCH   6  13
BRANCH   1  19
ATOM     19  C   UNL     1       4.981   4.432  17.483  0.00  0.00    +0.000 C 
ATOM     20  O   UNL     1       5.300   3.543  16.703  0.00  0.00    +0.000 OA
BRANCH  19  21
ATOM     21  O   UNL     1       5.765   4.891  18.504  0.00  0.00    +0.000 OA
BRANCH  21  23
ATOM     22  C   UNL     1       6.939   6.693  17.316  0.00  0.00    +0.000 C 
ATOM     23  C   UNL     1       7.080   5.420  18.162  0.00  0.00    +0.000 C 
ATOM     24  C   UNL     1       7.955   4.358  17.475  0.00  0.00    +0.000 C 
ATOM     25  C   UNL     1       7.770   5.818  19.480  0.00  0.00    +0.000 C 
ENDBRANCH  21  23
ENDBRANCH  19  21
ENDBRANCH   1  19
TORSDOF 4
ENDMDL
