MODEL 1
REMARK VINA RESULT:      -8.0      0.000      0.000
REMARK  Name = 
REMARK  10 active torsions:
REMARK  status: ('A' for Active; 'I' for Inactive)
REMARK    1  A    between atoms: C_1  and  C_2
REMARK    2  A    between atoms: N_4  and  C_5
REMARK    3  A    between atoms: C_8  and  S_9
REMARK    4  A    between atoms: S_9  and  N_12
REMARK    5  A    between atoms: N_12  and  C_13
REMARK    6  A    between atoms: N_12  and  C_14
REMARK    7  A    between atoms: C_14  and  C_15
REMARK    8  A    between atoms: N_17  and  C_18
REMARK    9  A    between atoms: C_18  and  C_19
REMARK   10  A    between atoms: C_19  and  C_20
REMARK                            x       y       z     vdW  Elec       q    Type
REMARK                         _______ _______ _______ _____ _____    ______ ____
ROOT
ATOM      1  N   UNL     1       5.136   5.031  18.682  0.00  0.00    +0.000 NA
ATOM      2  C   UNL     1       4.814   3.717  19.303  0.00  0.00    +0.000 C 
ENDROOT
BRANCH   1   3
ATOM      3  S   UNL     1       3.934   5.559  17.552  0.00  0.00    +0.000 S 
ATOM      4  O   UNL     1       3.112   4.411  17.231  0.00  0.00    +0.000 OA
ATOM      5  O   UNL     1       4.606   6.311  16.514  0.00  0.00    +0.000 OA
BRANCH   3   9
ATOM      6  C   UNL     1       1.330   8.577  19.853  0.00  0.00    +0.000 A 
ATOM      7  C   UNL     1       1.833   8.860  18.577  0.00  0.00    +0.000 A 
ATOM      8  C   UNL     1       2.609   7.932  17.877  0.00  0.00    +0.000 A 
ATOM      9  C   UNL     1       2.938   6.717  18.472  0.00  0.00    +0.000 A 
ATOM     10  C   UNL     1       2.449   6.410  19.747  0.00  0.00    +0.000 A 
ATOM     11  C   UNL     1       1.650   7.343  20.436  0.00  0.00    +0.000 A 
BRANCH   6  15
ATOM     12  C   UNL     1      -0.326  10.828  22.423  0.00  0.00    +0.000 C 
ATOM     13  C   UNL     1       0.687   9.845  21.895  0.00  0.00    +0.000 C 
ATOM     14  O   UNL     1       1.589   9.449  22.637  0.00  0.00    +0.000 OA
ATOM     15  N   UNL     1       0.507   9.484  20.568  0.00  0.00    +0.000 N 
ATOM     16  H   UNL     1      -0.187   9.997  20.037  0.00  0.00    +0.000 HD
ENDBRANCH   6  15
ENDBRANCH   3   9
ENDBRANCH   1   3
BRANCH   1  17
ATOM     17  C   UNL     1       6.496   5.001  18.039  0.00  0.00    +0.000 C 
BRANCH  17  18
ATOM     18  C   UNL     1       7.516   5.941  18.677  0.00  0.00    +0.000 C 
ATOM     19  O   UNL     1       8.217   5.590  19.622  0.00  0.00    +0.000 OA
ATOM     20  N   UNL     1       7.592   7.206  18.123  0.00  0.00    +0.000 N 
ATOM     21  H   UNL     1       6.902   7.479  17.433  0.00  0.00    +0.000 HD
BRANCH  20  22
ATOM     22  C   UNL     1       8.515   8.183  18.676  0.00  0.00    +0.000 C 
BRANCH  22  23
ATOM     23  C   UNL     1       8.433   9.559  18.015  0.00  0.00    +0.000 C 
BRANCH  23  24
ATOM     24  C   UNL     1       9.393  10.525  18.679  0.00  0.00    +0.000 C 
ATOM     25  C   UNL     1       9.466  10.630  20.017  0.00  0.00    +0.000 C 
ATOM     26  C   UNL     1      10.306  11.659  20.726  0.00  0.00    +0.000 C 
ATOM     27  C   UNL     1      10.790  12.770  19.795  0.00  0.00    +0.000 C 
ATOM     28  C   UNL     1      11.319  12.186  18.490  0.00  0.00    +0.000 C 
ATOM     29  C   UNL     1      10.229  11.389  17.765  0.00  0.00    +0.000 C 
ENDBRANCH  23  24
ENDBRANCH  22  23
ENDBRANCH  20  22
ENDBRANCH  17  18
ENDBRANCH   1  17
TORSDOF 8
ENDMDL
MODEL 2
REMARK VINA RESULT:      -7.8      3.459      4.996
REMARK  Name = 
REMARK  10 active torsions:
REMARK  status: ('A' for Active; 'I' for Inactive)
REMARK    1  A    between atoms: C_1  and  C_2
REMARK    2  A    between atoms: N_4  and  C_5
REMARK    3  A    between atoms: C_8  and  S_9
REMARK    4  A    between atoms: S_9  and  N_12
REMARK    5  A    between atoms: N_12  and  C_13
REMARK    6  A    between atoms: N_12  and  C_14
REMARK    7  A    between atoms: C_14  and  C_15
REMARK    8  A    between atoms: N_17  and  C_18
REMARK    9  A    between atoms: C_18  and  C_19
REMARK   10  A    between atoms: C_19  and  C_20
REMARK                            x       y       z     vdW  Elec       q    Type
REMARK                         _______ _______ _______ _____ _____    ______ ____
ROOT
ATOM      1  N   UNL     1       2.654   1.772  19.394  0.00  0.00    +0.000 NA
ATOM      2  C   UNL     1       1.370   2.400  18.976  0.00  0.00    +0.000 C 
ENDROOT
BRANCH   1   3
ATOM      3  S   UNL     1       3.521   2.716  20.559  0.00  0.00    +0.000 S 
ATOM      4  O   UNL     1       4.930   2.598  20.245  0.00  0.00    +0.000 OA
ATOM      5  O   UNL     1       3.016   2.369  21.870  0.00  0.00    +0.000 OA
BRANCH   3   9
ATOM      6  C   UNL     1       2.195   7.057  19.799  0.00  0.00    +0.000 A 
ATOM      7  C   UNL     1       1.498   6.217  20.677  0.00  0.00    +0.000 A 
ATOM      8  C   UNL     1       1.917   4.905  20.916  0.00  0.00    +0.000 A 
ATOM      9  C   UNL     1       3.019   4.396  20.234  0.00  0.00    +0.000 A 
ATOM     10  C   UNL     1       3.732   5.214  19.350  0.00  0.00    +0.000 A 
ATOM     11  C   UNL     1       3.315   6.541  19.132  0.00  0.00    +0.000 A 
BRANCH   6  15
ATOM     12  C   UNL     1       1.401  10.480  18.361  0.00  0.00    +0.000 C 
ATOM     13  C   UNL     1       1.857   9.044  18.340  0.00  0.00    +0.000 C 
ATOM     14  O   UNL     1       2.210   8.538  17.272  0.00  0.00    +0.000 OA
ATOM     15  N   UNL     1       1.815   8.404  19.570  0.00  0.00    +0.000 N 
ATOM     16  H   UNL     1       1.368   8.896  20.334  0.00  0.00    +0.000 HD
ENDBRANCH   6  15
ENDBRANCH   3   9
ENDBRANCH   1   3
BRANCH   1  17
ATOM     17  C   UNL     1       3.518   1.470  18.201  0.00  0.00    +0.000 C 
BRANCH  17  18
ATOM     18  C   UNL     1       3.596   2.600  17.177  0.00  0.00    +0.000 C 
ATOM     19  O   UNL     1       2.587   3.142  16.734  0.00  0.00    +0.000 OA
ATOM     20  N   UNL     1       4.870   2.966  16.786  0.00  0.00    +0.000 N 
ATOM     21  H   UNL     1       5.655   2.400  17.086  0.00  0.00    +0.000 HD
BRANCH  20  22
ATOM     22  C   UNL     1       5.050   4.015  15.797  0.00  0.00    +0.000 C 
BRANCH  22  23
ATOM     23  C   UNL     1       6.502   4.455  15.612  0.00  0.00    +0.000 C 
BRANCH  23  24
ATOM     24  C   UNL     1       6.903   5.434  16.697  0.00  0.00    +0.000 C 
ATOM     25  C   UNL     1       6.781   6.761  16.522  0.00  0.00    +0.000 C 
ATOM     26  C   UNL     1       7.282   7.780  17.511  0.00  0.00    +0.000 C 
ATOM     27  C   UNL     1       8.227   7.180  18.550  0.00  0.00    +0.000 C 
ATOM     28  C   UNL     1       7.672   5.866  19.090  0.00  0.00    +0.000 C 
ATOM     29  C   UNL     1       7.483   4.847  17.961  0.00  0.00    +0.000 C 
ENDBRANCH  23  24
ENDBRANCH  22  23
ENDBRANCH  20  22
ENDBRANCH  17  18
ENDBRANCH   1  17
TORSDOF 8
ENDMDL
MODEL 3
REMARK VINA RESULT:      -7.5      2.004      2.309
REMARK  Name = 
REMARK  10 active torsions:
REMARK  status: ('A' for Active; 'I' for Inactive)
REMARK    1  A    between atoms: C_1  and  C_2
REMARK    2  A    between atoms: N_4  and  C_5
REMARK    3  A    between atoms: C_8  and  S_9
REMARK    4  A    between atoms: S_9  and  N_12
REMARK    5  A    between atoms: N_12  and  C_13
REMARK    6  A    between atoms: N_12  and  C_14
REMARK    7  A    between atoms: C_14  and  C_15
REMARK    8  A    between atoms: N_17  and  C_18
REMARK    9  A    between atoms: C_18  and  C_19
REMARK   10  A    between atoms: C_19  and  C_20
REMARK                            x       y       z     vdW  Elec       q    Type
REMARK                         _______ _______ _______ _____ _____    ______ ____
ROOT
ATOM      1  N   UNL     1       5.050   6.029  18.684  0.00  0.00    +0.000 NA
ATOM      2  C   UNL     1       5.978   5.031  19.283  0.00  0.00    +0.000 C 
ENDROOT
BRANCH   1   3
ATOM      3  S   UNL     1       3.384   5.577  18.828  0.00  0.00    +0.000 S 
ATOM      4  O   UNL     1       3.243   4.846  20.070  0.00  0.00    +0.000 OA
ATOM      5  O   UNL     1       2.976   4.994  17.567  0.00  0.00    +0.000 OA
BRANCH   3   9
ATOM      6  C   UNL     1       1.113   9.565  19.172  0.00  0.00    +0.000 A 
ATOM      7  C   UNL     1       1.666   9.135  17.959  0.00  0.00    +0.000 A 
ATOM      8  C   UNL     1       2.340   7.914  17.858  0.00  0.00    +0.000 A 
ATOM      9  C   UNL     1       2.515   7.125  18.992  0.00  0.00    +0.000 A 
ATOM     10  C   UNL     1       1.974   7.533  20.216  0.00  0.00    +0.000 A 
ATOM     11  C   UNL     1       1.278   8.755  20.304  0.00  0.00    +0.000 A 
BRANCH   6  15
ATOM     12  C   UNL     1      -1.326  12.460  18.876  0.00  0.00    +0.000 C 
ATOM     13  C   UNL     1      -0.742  11.106  18.562  0.00  0.00    +0.000 C 
ATOM     14  O   UNL     1      -1.294  10.391  17.722  0.00  0.00    +0.000 OA
ATOM     15  N   UNL     1       0.390  10.780  19.293  0.00  0.00    +0.000 N 
ATOM     16  H   UNL     1       0.648  11.399  20.051  0.00  0.00    +0.000 HD
ENDBRANCH   6  15
ENDBRANCH   3   9
ENDBRANCH   1   3
BRANCH   1  17
ATOM     17  C   UNL     1       5.407   6.300  17.248  0.00  0.00    +0.000 C 
BRANCH  17  18
ATOM     18  C   UNL     1       6.765   6.969  17.052  0.00  0.00    +0.000 C 
ATOM     19  O   UNL     1       7.652   6.448  16.381  0.00  0.00    +0.000 OA
ATOM     20  N   UNL     1       6.926   8.191  17.678  0.00  0.00    +0.000 N 
ATOM     21  H   UNL     1       6.210   8.508  18.320  0.00  0.00    +0.000 HD
BRANCH  20  22
ATOM     22  C   UNL     1       8.192   8.897  17.573  0.00  0.00    +0.000 C 
BRANCH  22  23
ATOM     23  C   UNL     1       8.787   9.312  18.918  0.00  0.00    +0.000 C 
BRANCH  23  24
ATOM     24  C   UNL     1       9.325  10.726  18.847  0.00  0.00    +0.000 C 
ATOM     25  C   UNL     1       8.927  11.579  17.887  0.00  0.00    +0.000 C 
ATOM     26  C   UNL     1       9.522  12.948  17.692  0.00  0.00    +0.000 C 
ATOM     27  C   UNL     1      10.829  13.140  18.459  0.00  0.00    +0.000 C 
ATOM     28  C   UNL     1      10.703  12.607  19.882  0.00  0.00    +0.000 C 
ATOM     29  C   UNL     1      10.357  11.114  19.879  0.00  0.00    +0.000 C 
ENDBRANCH  23  24
ENDBRANCH  22  23
ENDBRANCH  20  22
ENDBRANCH  17  18
ENDBRANCH   1  17
TORSDOF 8
ENDMDL
MODEL 4
REMARK VINA RESULT:      -7.4      1.849      2.198
REMARK  Name = 
REMARK  10 active torsions:
REMARK  status: ('A' for Active; 'I' for Inactive)
REMARK    1  A    between atoms: C_1  and  C_2
REMARK    2  A    between atoms: N_4  and  C_5
REMARK    3  A    between atoms: C_8  and  S_9
REMARK    4  A    between atoms: S_9  and  N_12
REMARK    5  A    between atoms: N_12  and  C_13
REMARK    6  A    between atoms: N_12  and  C_14
REMARK    7  A    between atoms: C_14  and  C_15
REMARK    8  A    between atoms: N_17  and  C_18
REMARK    9  A    between atoms: C_18  and  C_19
REMARK   10  A    between atoms: C_19  and  C_20
REMARK                            x       y       z     vdW  Elec       q    Type
REMARK                         _______ _______ _______ _____ _____    ______ ____
ROOT
ATOM      1  N   UNL     1       4.911   5.858  18.733  0.00  0.00    +0.000 NA
ATOM      2  C   UNL     1       5.769   4.724  19.174  0.00  0.00    +0.000 C 
ENDROOT
BRANCH   1   3
ATOM      3  S   UNL     1       3.219   5.495  18.810  0.00  0.00    +0.000 S 
ATOM      4  O   UNL     1       2.991   4.759  20.036  0.00  0.00    +0.000 OA
ATOM      5  O   UNL     1       2.828   4.949  17.527  0.00  0.00    +0.000 OA
BRANCH   3   9
ATOM      6  C   UNL     1       1.149   9.594  19.124  0.00  0.00    +0.000 A 
ATOM      7  C   UNL     1       1.635   9.105  17.904  0.00  0.00    +0.000 A 
ATOM      8  C   UNL     1       2.247   7.852  17.813  0.00  0.00    +0.000 A 
ATOM      9  C   UNL     1       2.429   7.086  18.961  0.00  0.00    +0.000 A 
ATOM     10  C   UNL     1       1.954   7.552  20.193  0.00  0.00    +0.000 A 
ATOM     11  C   UNL     1       1.319   8.806  20.271  0.00  0.00    +0.000 A 
BRANCH   6  15
ATOM     12  C   UNL     1       0.157  13.258  19.186  0.00  0.00    +0.000 C 
ATOM     13  C   UNL     1       1.074  12.077  18.996  0.00  0.00    +0.000 C 
ATOM     14  O   UNL     1       2.238  12.269  18.637  0.00  0.00    +0.000 OA
ATOM     15  N   UNL     1       0.488  10.843  19.236  0.00  0.00    +0.000 N 
ATOM     16  H   UNL     1      -0.514  10.826  19.383  0.00  0.00    +0.000 HD
ENDBRANCH   6  15
ENDBRANCH   3   9
ENDBRANCH   1   3
BRANCH   1  17
ATOM     17  C   UNL     1       5.296   6.318  17.354  0.00  0.00    +0.000 C 
BRANCH  17  18
ATOM     18  C   UNL     1       6.711   6.883  17.251  0.00  0.00    +0.000 C 
ATOM     19  O   UNL     1       7.575   6.342  16.567  0.00  0.00    +0.000 OA
ATOM     20  N   UNL     1       6.948   8.036  17.977  0.00  0.00    +0.000 N 
ATOM     21  H   UNL     1       6.237   8.362  18.621  0.00  0.00    +0.000 HD
BRANCH  20  22
ATOM     22  C   UNL     1       8.270   8.639  17.964  0.00  0.00    +0.000 C 
BRANCH  22  23
ATOM     23  C   UNL     1       8.281  10.106  17.535  0.00  0.00    +0.000 C 
BRANCH  23  24
ATOM     24  C   UNL     1       9.264  10.898  18.372  0.00  0.00    +0.000 C 
ATOM     25  C   UNL     1      10.103  11.787  17.813  0.00  0.00    +0.000 C 
ATOM     26  C   UNL     1      11.184  12.505  18.577  0.00  0.00    +0.000 C 
ATOM     27  C   UNL     1      11.452  11.883  19.947  0.00  0.00    +0.000 C 
ATOM     28  C   UNL     1      10.142  11.582  20.667  0.00  0.00    +0.000 C 
ATOM     29  C   UNL     1       9.282  10.608  19.854  0.00  0.00    +0.000 C 
ENDBRANCH  23  24
ENDBRANCH  22  23
ENDBRANCH  20  22
ENDBRANCH  17  18
ENDBRANCH   1  17
TORSDOF 8
ENDMDL
MODEL 5
REMARK VINA RESULT:      -7.4      4.576      8.422
REMARK  Name = 
REMARK  10 active torsions:
REMARK  status: ('A' for Active; 'I' for Inactive)
REMARK    1  A    between atoms: C_1  and  C_2
REMARK    2  A    between atoms: N_4  and  C_5
REMARK    3  A    between atoms: C_8  and  S_9
REMARK    4  A    between atoms: S_9  and  N_12
REMARK    5  A    between atoms: N_12  and  C_13
REMARK    6  A    between atoms: N_12  and  C_14
REMARK    7  A    between atoms: C_14  and  C_15
REMARK    8  A    between atoms: N_17  and  C_18
REMARK    9  A    between atoms: C_18  and  C_19
REMARK   10  A    between atoms: C_19  and  C_20
REMARK                            x       y       z     vdW  Elec       q    Type
REMARK                         _______ _______ _______ _____ _____    ______ ____
ROOT
ATOM      1  N   UNL     1       2.411   4.185  19.146  0.00  0.00    +0.000 NA
ATOM      2  C   UNL     1       1.128   3.611  19.636  0.00  0.00    +0.000 C 
ENDROOT
BRANCH   1   3
ATOM      3  S   UNL     1       3.613   2.980  18.824  0.00  0.00    +0.000 S 
ATOM      4  O   UNL     1       2.946   1.868  18.180  0.00  0.00    +0.000 OA
ATOM      5  O   UNL     1       4.380   2.790  20.038  0.00  0.00    +0.000 OA
BRANCH   3   9
ATOM      6  C   UNL     1       6.486   4.908  15.789  0.00  0.00    +0.000 A 
ATOM      7  C   UNL     1       6.881   4.630  17.104  0.00  0.00    +0.000 A 
ATOM      8  C   UNL     1       6.009   4.029  18.016  0.00  0.00    +0.000 A 
ATOM      9  C   UNL     1       4.701   3.742  17.635  0.00  0.00    +0.000 A 
ATOM     10  C   UNL     1       4.280   4.012  16.327  0.00  0.00    +0.000 A 
ATOM     11  C   UNL     1       5.173   4.598  15.410  0.00  0.00    +0.000 A 
BRANCH   6  15
ATOM     12  C   UNL     1       8.499   5.828  12.705  0.00  0.00    +0.000 C 
ATOM     13  C   UNL     1       7.496   5.054  13.520  0.00  0.00    +0.000 C 
ATOM     14  O   UNL     1       6.866   4.136  12.989  0.00  0.00    +0.000 OA
ATOM     15  N   UNL     1       7.363   5.480  14.833  0.00  0.00    +0.000 N 
ATOM     16  H   UNL     1       7.837   6.337  15.093  0.00  0.00    +0.000 HD
ENDBRANCH   6  15
ENDBRANCH   3   9
ENDBRANCH   1   3
BRANCH   1  17
ATOM     17  C   UNL     1       2.936   5.221  20.102  0.00  0.00    +0.000 C 
BRANCH  17  18
ATOM     18  C   UNL     1       2.337   6.613  19.914  0.00  0.00    +0.000 C 
ATOM     19  O   UNL     1       2.357   7.185  18.828  0.00  0.00    +0.000 OA
ATOM     20  N   UNL     1       1.776   7.179  21.044  0.00  0.00    +0.000 N 
ATOM     21  H   UNL     1       1.903   6.717  21.936  0.00  0.00    +0.000 HD
BRANCH  20  22
ATOM     22  C   UNL     1       1.201   8.512  20.975  0.00  0.00    +0.000 C 
BRANCH  22  23
ATOM     23  C   UNL     1       0.898   9.131  22.340  0.00  0.00    +0.000 C 
BRANCH  23  24
ATOM     24  C   UNL     1      -0.011  10.333  22.188  0.00  0.00    +0.000 C 
ATOM     25  C   UNL     1      -0.934  10.634  23.118  0.00  0.00    +0.000 C 
ATOM     26  C   UNL     1      -1.947  11.737  22.959  0.00  0.00    +0.000 C 
ATOM     27  C   UNL     1      -2.043  12.247  21.522  0.00  0.00    +0.000 C 
ATOM     28  C   UNL     1      -0.654  12.457  20.930  0.00  0.00    +0.000 C 
ATOM     29  C   UNL     1       0.142  11.147  20.926  0.00  0.00    +0.000 C 
ENDBRANCH  23  24
ENDBRANCH  22  23
ENDBRANCH  20  22
ENDBRANCH  17  18
ENDBRANCH   1  17
TORSDOF 8
ENDMDL
MODEL 6
REMARK VINA RESULT:      -7.3      1.366      1.748
REMARK  Name = 
REMARK  10 active torsions:
REMARK  status: ('A' for Active; 'I' for Inactive)
REMARK    1  A    between atoms: C_1  and  C_2
REMARK    2  A    between atoms: N_4  and  C_5
REMARK    3  A    between atoms: C_8  and  S_9
REMARK    4  A    between atoms: S_9  and  N_12
REMARK    5  A    between atoms: N_12  and  C_13
REMARK    6  A    between atoms: N_12  and  C_14
REMARK    7  A    between atoms: C_14  and  C_15
REMARK    8  A    between atoms: N_17  and  C_18
REMARK    9  A    between atoms: C_18  and  C_19
REMARK   10  A    between atoms: C_19  and  C_20
REMARK                            x       y       z     vdW  Elec       q    Type
REMARK                         _______ _______ _______ _____ _____    ______ ____
ROOT
ATOM      1  N   UNL     1       5.066   5.792  18.649  0.00  0.00    +0.000 NA
ATOM      2  C   UNL     1       5.899   4.822  19.412  0.00  0.00    +0.000 C 
ENDROOT
BRANCH   1   3
ATOM      3  S   UNL     1       3.375   5.420  18.700  0.00  0.00    +0.000 S 
ATOM      4  O   UNL     1       3.139   4.657  19.908  0.00  0.00    +0.000 OA
ATOM      5  O   UNL     1       3.000   4.900  17.402  0.00  0.00    +0.000 OA
BRANCH   3   9
ATOM      6  C   UNL     1       1.338   9.512  19.239  0.00  0.00    +0.000 A 
ATOM      7  C   UNL     1       1.443   8.596  20.294  0.00  0.00    +0.000 A 
ATOM      8  C   UNL     1       2.078   7.362  20.128  0.00  0.00    +0.000 A 
ATOM      9  C   UNL     1       2.576   7.004  18.878  0.00  0.00    +0.000 A 
ATOM     10  C   UNL     1       2.483   7.900  17.807  0.00  0.00    +0.000 A 
ATOM     11  C   UNL     1       1.860   9.149  17.990  0.00  0.00    +0.000 A 
BRANCH   6  15
ATOM     12  C   UNL     1      -0.100  12.793  20.494  0.00  0.00    +0.000 C 
ATOM     13  C   UNL     1       0.573  11.449  20.600  0.00  0.00    +0.000 C 
ATOM     14  O   UNL     1       0.941  11.043  21.704  0.00  0.00    +0.000 OA
ATOM     15  N   UNL     1       0.735  10.786  19.392  0.00  0.00    +0.000 N 
ATOM     16  H   UNL     1       0.518  11.300  18.547  0.00  0.00    +0.000 HD
ENDBRANCH   6  15
ENDBRANCH   3   9
ENDBRANCH   1   3
BRANCH   1  17
ATOM     17  C   UNL     1       5.544   5.908  17.227  0.00  0.00    +0.000 C 
BRANCH  17  18
ATOM     18  C   UNL     1       6.858   6.668  17.064  0.00  0.00    +0.000 C 
ATOM     19  O   UNL     1       7.648   6.407  16.161  0.00  0.00    +0.000 OA
ATOM     20  N   UNL     1       7.095   7.660  17.998  0.00  0.00    +0.000 N 
ATOM     21  H   UNL     1       6.471   7.742  18.792  0.00  0.00    +0.000 HD
BRANCH  20  22
ATOM     22  C   UNL     1       8.330   8.424  17.944  0.00  0.00    +0.000 C 
BRANCH  22  23
ATOM     23  C   UNL     1       8.124   9.938  17.894  0.00  0.00    +0.000 C 
BRANCH  23  24
ATOM     24  C   UNL     1       9.256  10.652  18.603  0.00  0.00    +0.000 C 
ATOM     25  C   UNL     1       9.317  10.708  19.944  0.00  0.00    +0.000 C 
ATOM     26  C   UNL     1      10.344  11.510  20.698  0.00  0.00    +0.000 C 
ATOM     27  C   UNL     1      11.085  12.507  19.808  0.00  0.00    +0.000 C 
ATOM     28  C   UNL     1      11.505  11.850  18.497  0.00  0.00    +0.000 C 
ATOM     29  C   UNL     1      10.285  11.330  17.730  0.00  0.00    +0.000 C 
ENDBRANCH  23  24
ENDBRANCH  22  23
ENDBRANCH  20  22
ENDBRANCH  17  18
ENDBRANCH   1  17
TORSDOF 8
ENDMDL
MODEL 7
REMARK VINA RESULT:      -7.3      3.324      4.827
REMARK  Name = 
REMARK  10 active torsions:
REMARK  status: ('A' for Active; 'I' for Inactive)
REMARK    1  A    between atoms: C_1  and  C_2
REMARK    2  A    between atoms: N_4  and  C_5
REMARK    3  A    between atoms: C_8  and  S_9
REMARK    4  A    between atoms: S_9  and  N_12
REMARK    5  A    between atoms: N_12  and  C_13
REMARK    6  A    between atoms: N_12  and  C_14
REMARK    7  A    between atoms: C_14  and  C_15
REMARK    8  A    between atoms: N_17  and  C_18
REMARK    9  A    between atoms: C_18  and  C_19
REMARK   10  A    between atoms: C_19  and  C_20
REMARK                            x       y       z     vdW  Elec       q    Type
REMARK                         _______ _______ _______ _____ _____    ______ ____
ROOT
ATOM      1  N   UNL     1       2.273   1.913  19.520  0.00  0.00    +0.000 NA
ATOM      2  C   UNL     1       0.995   2.601  19.185  0.00  0.00    +0.000 C 
ENDROOT
BRANCH   1   3
ATOM      3  S   UNL     1       3.288   2.845  20.571  0.00  0.00    +0.000 S 
ATOM      4  O   UNL     1       4.650   2.685  20.106  0.00  0.00    +0.000 OA
ATOM      5  O   UNL     1       2.920   2.525  21.934  0.00  0.00    +0.000 OA
BRANCH   3   9
ATOM      6  C   UNL     1       1.990   7.210  19.903  0.00  0.00    +0.000 A 
ATOM      7  C   UNL     1       1.272   6.348  20.743  0.00  0.00    +0.000 A 
ATOM      8  C   UNL     1       1.682   5.028  20.954  0.00  0.00    +0.000 A 
ATOM      9  C   UNL     1       2.796   4.534  20.281  0.00  0.00    +0.000 A 
ATOM     10  C   UNL     1       3.530   5.374  19.436  0.00  0.00    +0.000 A 
ATOM     11  C   UNL     1       3.121   6.708  19.245  0.00  0.00    +0.000 A 
BRANCH   6  15
ATOM     12  C   UNL     1       0.919  10.836  20.238  0.00  0.00    +0.000 C 
ATOM     13  C   UNL     1       1.275   9.451  20.712  0.00  0.00    +0.000 C 
ATOM     14  O   UNL     1       1.259   9.204  21.920  0.00  0.00    +0.000 OA
ATOM     15  N   UNL     1       1.619   8.564  19.703  0.00  0.00    +0.000 N 
ATOM     16  H   UNL     1       1.731   8.942  18.770  0.00  0.00    +0.000 HD
ENDBRANCH   6  15
ENDBRANCH   3   9
ENDBRANCH   1   3
BRANCH   1  17
ATOM     17  C   UNL     1       3.014   1.521  18.272  0.00  0.00    +0.000 C 
BRANCH  17  18
ATOM     18  C   UNL     1       3.208   2.657  17.270  0.00  0.00    +0.000 C 
ATOM     19  O   UNL     1       2.256   3.202  16.719  0.00  0.00    +0.000 OA
ATOM     20  N   UNL     1       4.519   3.024  17.029  0.00  0.00    +0.000 N 
ATOM     21  H   UNL     1       5.264   2.455  17.413  0.00  0.00    +0.000 HD
BRANCH  20  22
ATOM     22  C   UNL     1       4.810   4.079  16.073  0.00  0.00    +0.000 C 
BRANCH  22  23
ATOM     23  C   UNL     1       6.297   4.238  15.754  0.00  0.00    +0.000 C 
BRANCH  23  24
ATOM     24  C   UNL     1       6.976   5.096  16.802  0.00  0.00    +0.000 C 
ATOM     25  C   UNL     1       7.677   4.547  17.809  0.00  0.00    +0.000 C 
ATOM     26  C   UNL     1       8.262   5.341  18.946  0.00  0.00    +0.000 C 
ATOM     27  C   UNL     1       7.702   6.760  19.024  0.00  0.00    +0.000 C 
ATOM     28  C   UNL     1       7.666   7.403  17.642  0.00  0.00    +0.000 C 
ATOM     29  C   UNL     1       6.790   6.590  16.683  0.00  0.00    +0.000 C 
ENDBRANCH  23  24
ENDBRANCH  22  23
ENDBRANCH  20  22
ENDBRANCH  17  18
ENDBRANCH   1  17
TORSDOF 8
ENDMDL
MODEL 8
REMARK VINA RESULT:      -7.1      4.530      8.288
REMARK  Name = 
REMARK  10 active torsions:
REMARK  status: ('A' for Active; 'I' for Inactive)
REMARK    1  A    between atoms: C_1  and  C_2
REMARK    2  A    between atoms: N_4  and  C_5
REMARK    3  A    between atoms: C_8  and  S_9
REMARK    4  A    between atoms: S_9  and  N_12
REMARK    5  A    between atoms: N_12  and  C_13
REMARK    6  A    between atoms: N_12  and  C_14
REMARK    7  A    between atoms: C_14  and  C_15
REMARK    8  A    between atoms: N_17  and  C_18
REMARK    9  A    between atoms: C_18  and  C_19
REMARK   10  A    between atoms: C_19  and  C_20
REMARK                            x       y       z     vdW  Elec       q    Type
REMARK                         _______ _______ _______ _____ _____    ______ ____
ROOT
ATOM      1  N   UNL     1       2.244   4.237  19.298  0.00  0.00    +0.000 NA
ATOM      2  C   UNL     1       1.047   3.684  19.990  0.00  0.00    +0.000 C 
ENDROOT
BRANCH   1   3
ATOM      3  S   UNL     1       3.527   3.084  19.138  0.00  0.00    +0.000 S 
ATOM      4  O   UNL     1       2.950   1.872  18.595  0.00  0.00    +0.000 OA
ATOM      5  O   UNL     1       4.262   3.068  20.385  0.00  0.00    +0.000 OA
BRANCH   3   9
ATOM      6  C   UNL     1       6.380   4.875  16.003  0.00  0.00    +0.000 A 
ATOM      7  C   UNL     1       6.689   4.881  17.369  0.00  0.00    +0.000 A 
ATOM      8  C   UNL     1       5.825   4.320  18.314  0.00  0.00    +0.000 A 
ATOM      9  C   UNL     1       4.606   3.786  17.906  0.00  0.00    +0.000 A 
ATOM     10  C   UNL     1       4.272   3.770  16.547  0.00  0.00    +0.000 A 
ATOM     11  C   UNL     1       5.158   4.318  15.599  0.00  0.00    +0.000 A 
BRANCH   6  15
ATOM     12  C   UNL     1       8.360   5.674  12.863  0.00  0.00    +0.000 C 
ATOM     13  C   UNL     1       7.348   4.948  13.712  0.00  0.00    +0.000 C 
ATOM     14  O   UNL     1       6.678   4.043  13.210  0.00  0.00    +0.000 OA
ATOM     15  N   UNL     1       7.256   5.401  15.020  0.00  0.00    +0.000 N 
ATOM     16  H   UNL     1       7.762   6.246  15.255  0.00  0.00    +0.000 HD
ENDBRANCH   6  15
ENDBRANCH   3   9
ENDBRANCH   1   3
BRANCH   1  17
ATOM     17  C   UNL     1       2.731   5.485  19.983  0.00  0.00    +0.000 C 
BRANCH  17  18
ATOM     18  C   UNL     1       2.670   6.743  19.120  0.00  0.00    +0.000 C 
ATOM     19  O   UNL     1       3.188   6.790  18.008  0.00  0.00    +0.000 OA
ATOM     20  N   UNL     1       1.996   7.815  19.673  0.00  0.00    +0.000 N 
ATOM     21  H   UNL     1       1.702   7.761  20.641  0.00  0.00    +0.000 HD
BRANCH  20  22
ATOM     22  C   UNL     1       1.902   9.067  18.940  0.00  0.00    +0.000 C 
BRANCH  22  23
ATOM     23  C   UNL     1       0.816   9.078  17.864  0.00  0.00    +0.000 C 
BRANCH  23  24
ATOM     24  C   UNL     1      -0.204  10.160  18.151  0.00  0.00    +0.000 C 
ATOM     25  C   UNL     1       0.063  11.167  19.000  0.00  0.00    +0.000 C 
ATOM     26  C   UNL     1      -0.954  12.195  19.419  0.00  0.00    +0.000 C 
ATOM     27  C   UNL     1      -2.383  11.791  19.061  0.00  0.00    +0.000 C 
ATOM     28  C   UNL     1      -2.450  11.253  17.636  0.00  0.00    +0.000 C 
ATOM     29  C   UNL     1      -1.546  10.027  17.470  0.00  0.00    +0.000 C 
ENDBRANCH  23  24
ENDBRANCH  22  23
ENDBRANCH  20  22
ENDBRANCH  17  18
ENDBRANCH   1  17
TORSDOF 8
ENDMDL
MODEL 9
REMARK VINA RESULT:      -7.0      4.500      8.143
REMARK  Name = 
REMARK  10 active torsions:
REMARK  status: ('A' for Active; 'I' for Inactive)
REMARK    1  A    between atoms: C_1  and  C_2
REMARK    2  A    between atoms: N_4  and  C_5
REMARK    3  A    between atoms: C_8  and  S_9
REMARK    4  A    between atoms: S_9  and  N_12
REMARK    5  A    between atoms: N_12  and  C_13
REMARK    6  A    between atoms: N_12  and  C_14
REMARK    7  A    between atoms: C_14  and  C_15
REMARK    8  A    between atoms: N_17  and  C_18
REMARK    9  A    between atoms: C_18  and  C_19
REMARK   10  A    between atoms: C_19  and  C_20
REMARK                            x       y       z     vdW  Elec       q    Type
REMARK                         _______ _______ _______ _____ _____    ______ ____
ROOT
ATOM      1  N   UNL     1       2.473   4.704  19.477  0.00  0.00    +0.000 NA
ATOM      2  C   UNL     1       1.734   4.524  20.757  0.00  0.00    +0.000 C 
ENDROOT
BRANCH   1   3
ATOM      3  S   UNL     1       3.385   3.304  19.020  0.00  0.00    +0.000 S 
ATOM      4  O   UNL     1       2.478   2.401  18.344  0.00  0.00    +0.000 OA
ATOM      5  O   UNL     1       4.141   2.875  20.178  0.00  0.00    +0.000 OA
BRANCH   3   9
ATOM      6  C   UNL     1       6.359   4.902  15.892  0.00  0.00    +0.000 A 
ATOM      7  C   UNL     1       5.055   4.524  15.544  0.00  0.00    +0.000 A 
ATOM      8  C   UNL     1       4.152   4.056  16.503  0.00  0.00    +0.000 A 
ATOM      9  C   UNL     1       4.562   3.910  17.825  0.00  0.00    +0.000 A 
ATOM     10  C   UNL     1       5.859   4.278  18.199  0.00  0.00    +0.000 A 
ATOM     11  C   UNL     1       6.755   4.769  17.230  0.00  0.00    +0.000 A 
BRANCH   6  15
ATOM     12  C   UNL     1       8.473   5.683  12.837  0.00  0.00    +0.000 C 
ATOM     13  C   UNL     1       7.417   4.969  13.642  0.00  0.00    +0.000 C 
ATOM     14  O   UNL     1       6.752   4.078  13.109  0.00  0.00    +0.000 OA
ATOM     15  N   UNL     1       7.281   5.418  14.947  0.00  0.00    +0.000 N 
ATOM     16  H   UNL     1       7.791   6.254  15.206  0.00  0.00    +0.000 HD
ENDBRANCH   6  15
ENDBRANCH   3   9
ENDBRANCH   1   3
BRANCH   1  17
ATOM     17  C   UNL     1       3.356   5.921  19.533  0.00  0.00    +0.000 C 
BRANCH  17  18
ATOM     18  C   UNL     1       2.813   7.128  18.771  0.00  0.00    +0.000 C 
ATOM     19  O   UNL     1       3.098   7.330  17.594  0.00  0.00    +0.000 OA
ATOM     20  N   UNL     1       1.989   7.970  19.494  0.00  0.00    +0.000 N 
ATOM     21  H   UNL     1       1.895   7.823  20.492  0.00  0.00    +0.000 HD
BRANCH  20  22
ATOM     22  C   UNL     1       1.441   9.160  18.865  0.00  0.00    +0.000 C 
BRANCH  22  23
ATOM     23  C   UNL     1      -0.039   9.398  19.165  0.00  0.00    +0.000 C 
BRANCH  23  24
ATOM     24  C   UNL     1      -0.211  10.010  20.540  0.00  0.00    +0.000 C 
ATOM     25  C   UNL     1      -0.159   9.257  21.652  0.00  0.00    +0.000 C 
ATOM     26  C   UNL     1      -0.449   9.788  23.031  0.00  0.00    +0.000 C 
ATOM     27  C   UNL     1      -1.128  11.157  23.006  0.00  0.00    +0.000 C 
ATOM     28  C   UNL     1      -0.439  12.082  22.010  0.00  0.00    +0.000 C 
ATOM     29  C   UNL     1      -0.483  11.494  20.595  0.00  0.00    +0.000 C 
ENDBRANCH  23  24
ENDBRANCH  22  23
ENDBRANCH  20  22
ENDBRANCH  17  18
ENDBRANCH   1  17
TORSDOF 8
ENDMDL
