MODEL 1
REMARK VINA RESULT:      -6.4      0.000      0.000
REMARK  Name = 
REMARK  7 active torsions:
REMARK  status: ('A' for Active; 'I' for Inactive)
REMARK    1  A    between atoms: C_1  and  C_2
REMARK    2  A    between atoms: C_5  and  O_6
REMARK    3  A    between atoms: O_6  and  C_7
REMARK    4  A    between atoms: C_7  and  C_8
REMARK    5  A    between atoms: C_8  and  C_9
REMARK    6  A    between atoms: C_9  and  N_10
REMARK    7  A    between atoms: C_15  and  C_16
REMARK                            x       y       z     vdW  Elec       q    Type
REMARK                         _______ _______ _______ _____ _____    ______ ____
ROOT
ATOM      1  O   UNL     1       5.172   5.751  19.266  0.00  0.00    +0.000 OA
ENDROOT
BRANCH   1   6
ATOM      2  C   UNL     1       0.724   2.272  18.689  0.00  0.00    +0.000 C 
ATOM      3  C   UNL     1       1.923   3.159  18.836  0.00  0.00    +0.000 A 
ATOM      4  C   UNL     1       3.125   2.665  19.349  0.00  0.00    +0.000 A 
ATOM      5  C   UNL     1       4.231   3.507  19.500  0.00  0.00    +0.000 A 
ATOM      6  C   UNL     1       4.152   4.854  19.138  0.00  0.00    +0.000 A 
ATOM      7  C   UNL     1       2.955   5.360  18.603  0.00  0.00    +0.000 A 
ATOM      8  C   UNL     1       2.802   6.797  18.182  0.00  0.00    +0.000 C 
ATOM      9  C   UNL     1       1.849   4.504  18.463  0.00  0.00    +0.000 A 
ENDBRANCH   1   6
BRANCH   1  10
ATOM     10  C   UNL     1       6.511   5.262  19.359  0.00  0.00    +0.000 C 
BRANCH  10  11
ATOM     11  C   UNL     1       7.290   5.951  18.245  0.00  0.00    +0.000 C 
BRANCH  11  12
ATOM     12  C   UNL     1       7.498   5.053  17.027  0.00  0.00    +0.000 C 
BRANCH  12  13
ATOM     13  N   UNL     1       6.988   5.652  15.776  0.00  0.00    +0.000 NA
ATOM     14  C   UNL     1       5.535   5.902  15.783  0.00  0.00    +0.000 C 
ATOM     15  C   UNL     1       4.926   4.558  15.450  0.00  0.00    +0.000 C 
ATOM     16  C   UNL     1       5.850   4.053  14.359  0.00  0.00    +0.000 C 
ATOM     17  C   UNL     1       7.193   4.733  14.635  0.00  0.00    +0.000 C 
ENDBRANCH  12  13
ENDBRANCH  11  12
ENDBRANCH  10  11
ENDBRANCH   1  10
TORSDOF 5
ENDMDL
MODEL 2
REMARK VINA RESULT:      -6.1      2.506      5.920
REMARK  Name = 
REMARK  7 active torsions:
REMARK  status: ('A' for Active; 'I' for Inactive)
REMARK    1  A    between atoms: C_1  and  C_2
REMARK    2  A    between atoms: C_5  and  O_6
REMARK    3  A    between atoms: O_6  and  C_7
REMARK    4  A    between atoms: C_7  and  C_8
REMARK    5  A    between atoms: C_8  and  C_9
REMARK    6  A    between atoms: C_9  and  N_10
REMARK    7  A    between atoms: C_15  and  C_16
REMARK                            x       y       z     vdW  Elec       q    Type
REMARK                         _______ _______ _______ _____ _____    ______ ____
ROOT
ATOM      1  O   UNL     1       4.441   3.234  17.085  0.00  0.00    +0.000 OA
ENDROOT
BRANCH   1   6
ATOM      2  C   UNL     1       8.127   7.379  18.293  0.00  0.00    +0.000 C 
ATOM      3  C   UNL     1       7.132   6.295  18.007  0.00  0.00    +0.000 A 
ATOM      4  C   UNL     1       6.419   5.681  19.039  0.00  0.00    +0.000 A 
ATOM      5  C   UNL     1       5.508   4.657  18.762  0.00  0.00    +0.000 A 
ATOM      6  C   UNL     1       5.295   4.235  17.447  0.00  0.00    +0.000 A 
ATOM      7  C   UNL     1       5.992   4.856  16.396  0.00  0.00    +0.000 A 
ATOM      8  C   UNL     1       5.804   4.459  14.956  0.00  0.00    +0.000 C 
ATOM      9  C   UNL     1       6.909   5.880  16.690  0.00  0.00    +0.000 A 
ENDBRANCH   1   6
BRANCH   1  10
ATOM     10  C   UNL     1       3.046   3.522  16.985  0.00  0.00    +0.000 C 
BRANCH  10  11
ATOM     11  C   UNL     1       2.327   2.371  17.679  0.00  0.00    +0.000 C 
BRANCH  11  12
ATOM     12  C   UNL     1       2.858   2.107  19.087  0.00  0.00    +0.000 C 
BRANCH  12  13
ATOM     13  N   UNL     1       1.825   2.271  20.131  0.00  0.00    +0.000 NA
ATOM     14  C   UNL     1       0.860   3.350  19.851  0.00  0.00    +0.000 C 
ATOM     15  C   UNL     1       1.576   4.609  20.287  0.00  0.00    +0.000 C 
ATOM     16  C   UNL     1       2.238   4.167  21.578  0.00  0.00    +0.000 C 
ATOM     17  C   UNL     1       2.441   2.659  21.419  0.00  0.00    +0.000 C 
ENDBRANCH  12  13
ENDBRANCH  11  12
ENDBRANCH  10  11
ENDBRANCH   1  10
TORSDOF 5
ENDMDL
MODEL 3
REMARK VINA RESULT:      -5.9      2.580      5.997
REMARK  Name = 
REMARK  7 active torsions:
REMARK  status: ('A' for Active; 'I' for Inactive)
REMARK    1  A    between atoms: C_1  and  C_2
REMARK    2  A    between atoms: C_5  and  O_6
REMARK    3  A    between atoms: O_6  and  C_7
REMARK    4  A    between atoms: C_7  and  C_8
REMARK    5  A    between atoms: C_8  and  C_9
REMARK    6  A    between atoms: C_9  and  N_10
REMARK    7  A    between atoms: C_15  and  C_16
REMARK                            x       y       z     vdW  Elec       q    Type
REMARK                         _______ _______ _______ _____ _____    ______ ____
ROOT
ATOM      1  O   UNL     1       3.824   3.709  16.717  0.00  0.00    +0.000 OA
ENDROOT
BRANCH   1   6
ATOM      2  C   UNL     1       7.705   7.783  17.465  0.00  0.00    +0.000 C 
ATOM      3  C   UNL     1       6.652   6.733  17.280  0.00  0.00    +0.000 A 
ATOM      4  C   UNL     1       5.511   6.708  18.086  0.00  0.00    +0.000 A 
ATOM      5  C   UNL     1       4.544   5.712  17.918  0.00  0.00    +0.000 A 
ATOM      6  C   UNL     1       4.704   4.727  16.940  0.00  0.00    +0.000 A 
ATOM      7  C   UNL     1       5.838   4.750  16.110  0.00  0.00    +0.000 A 
ATOM      8  C   UNL     1       6.069   3.727  15.030  0.00  0.00    +0.000 C 
ATOM      9  C   UNL     1       6.805   5.753  16.294  0.00  0.00    +0.000 A 
ENDBRANCH   1   6
BRANCH   1  10
ATOM     10  C   UNL     1       3.762   2.634  17.655  0.00  0.00    +0.000 C 
BRANCH  10  11
ATOM     11  C   UNL     1       2.282   2.333  17.855  0.00  0.00    +0.000 C 
BRANCH  11  12
ATOM     12  C   UNL     1       1.481   3.563  18.282  0.00  0.00    +0.000 C 
BRANCH  12  13
ATOM     13  N   UNL     1       0.848   3.406  19.607  0.00  0.00    +0.000 NA
ATOM     14  C   UNL     1       0.966   4.595  20.470  0.00  0.00    +0.000 C 
ATOM     15  C   UNL     1       2.353   4.487  21.062  0.00  0.00    +0.000 C 
ATOM     16  C   UNL     1       2.449   3.007  21.378  0.00  0.00    +0.000 C 
ATOM     17  C   UNL     1       1.510   2.330  20.378  0.00  0.00    +0.000 C 
ENDBRANCH  12  13
ENDBRANCH  11  12
ENDBRANCH  10  11
ENDBRANCH   1  10
TORSDOF 5
ENDMDL
MODEL 4
REMARK VINA RESULT:      -5.9      3.926      5.631
REMARK  Name = 
REMARK  7 active torsions:
REMARK  status: ('A' for Active; 'I' for Inactive)
REMARK    1  A    between atoms: C_1  and  C_2
REMARK    2  A    between atoms: C_5  and  O_6
REMARK    3  A    between atoms: O_6  and  C_7
REMARK    4  A    between atoms: C_7  and  C_8
REMARK    5  A    between atoms: C_8  and  C_9
REMARK    6  A    between atoms: C_9  and  N_10
REMARK    7  A    between atoms: C_15  and  C_16
REMARK                            x       y       z     vdW  Elec       q    Type
REMARK                         _______ _______ _______ _____ _____    ______ ____
ROOT
ATOM      1  O   UNL     1       6.754   7.152  16.711  0.00  0.00    +0.000 OA
ENDROOT
BRANCH   1   6
ATOM      2  C   UNL     1       2.667   3.254  17.280  0.00  0.00    +0.000 C 
ATOM      3  C   UNL     1       3.740   4.294  17.168  0.00  0.00    +0.000 A 
ATOM      4  C   UNL     1       3.693   5.462  17.932  0.00  0.00    +0.000 A 
ATOM      5  C   UNL     1       4.690   6.435  17.805  0.00  0.00    +0.000 A 
ATOM      6  C   UNL     1       5.749   6.251  16.914  0.00  0.00    +0.000 A 
ATOM      7  C   UNL     1       5.820   5.072  16.151  0.00  0.00    +0.000 A 
ATOM      8  C   UNL     1       6.939   4.804  15.180  0.00  0.00    +0.000 C 
ATOM      9  C   UNL     1       4.808   4.106  16.285  0.00  0.00    +0.000 A 
ENDBRANCH   1   6
BRANCH   1  10
ATOM     10  C   UNL     1       7.673   7.409  17.773  0.00  0.00    +0.000 C 
BRANCH  10  11
ATOM     11  C   UNL     1       8.021   8.889  17.682  0.00  0.00    +0.000 C 
BRANCH  11  12
ATOM     12  C   UNL     1       8.932   9.353  18.818  0.00  0.00    +0.000 C 
BRANCH  12  13
ATOM     13  N   UNL     1       8.882  10.813  19.036  0.00  0.00    +0.000 NA
ATOM     14  C   UNL     1       9.553  11.597  17.983  0.00  0.00    +0.000 C 
ATOM     15  C   UNL     1      11.018  11.538  18.354  0.00  0.00    +0.000 C 
ATOM     16  C   UNL     1      10.971  11.717  19.859  0.00  0.00    +0.000 C 
ATOM     17  C   UNL     1       9.599  11.182  20.276  0.00  0.00    +0.000 C 
ENDBRANCH  12  13
ENDBRANCH  11  12
ENDBRANCH  10  11
ENDBRANCH   1  10
TORSDOF 5
ENDMDL
MODEL 5
REMARK VINA RESULT:      -5.9      2.501      4.899
REMARK  Name = 
REMARK  7 active torsions:
REMARK  status: ('A' for Active; 'I' for Inactive)
REMARK    1  A    between atoms: C_1  and  C_2
REMARK    2  A    between atoms: C_5  and  O_6
REMARK    3  A    between atoms: O_6  and  C_7
REMARK    4  A    between atoms: C_7  and  C_8
REMARK    5  A    between atoms: C_8  and  C_9
REMARK    6  A    between atoms: C_9  and  N_10
REMARK    7  A    between atoms: C_15  and  C_16
REMARK                            x       y       z     vdW  Elec       q    Type
REMARK                         _______ _______ _______ _____ _____    ______ ____
ROOT
ATOM      1  O   UNL     1       2.224   6.255  20.027  0.00  0.00    +0.000 OA
ENDROOT
BRANCH   1   6
ATOM      2  C   UNL     1       6.789   6.112  16.655  0.00  0.00    +0.000 C 
ATOM      3  C   UNL     1       5.608   6.142  17.577  0.00  0.00    +0.000 A 
ATOM      4  C   UNL     1       5.589   5.382  18.749  0.00  0.00    +0.000 A 
ATOM      5  C   UNL     1       4.473   5.403  19.591  0.00  0.00    +0.000 A 
ATOM      6  C   UNL     1       3.361   6.187  19.275  0.00  0.00    +0.000 A 
ATOM      7  C   UNL     1       3.373   6.971  18.109  0.00  0.00    +0.000 A 
ATOM      8  C   UNL     1       2.214   7.847  17.712  0.00  0.00    +0.000 C 
ATOM      9  C   UNL     1       4.498   6.936  17.268  0.00  0.00    +0.000 A 
ENDBRANCH   1   6
BRANCH   1  10
ATOM     10  C   UNL     1       2.025   5.293  21.062  0.00  0.00    +0.000 C 
BRANCH  10  11
ATOM     11  C   UNL     1       1.106   4.227  20.477  0.00  0.00    +0.000 C 
BRANCH  11  12
ATOM     12  C   UNL     1       1.812   2.887  20.273  0.00  0.00    +0.000 C 
BRANCH  12  13
ATOM     13  N   UNL     1       1.539   2.288  18.951  0.00  0.00    +0.000 NA
ATOM     14  C   UNL     1       2.643   1.461  18.431  0.00  0.00    +0.000 C 
ATOM     15  C   UNL     1       3.609   2.462  17.837  0.00  0.00    +0.000 C 
ATOM     16  C   UNL     1       2.672   3.433  17.144  0.00  0.00    +0.000 C 
ATOM     17  C   UNL     1       1.361   3.342  17.927  0.00  0.00    +0.000 C 
ENDBRANCH  12  13
ENDBRANCH  11  12
ENDBRANCH  10  11
ENDBRANCH   1  10
TORSDOF 5
ENDMDL
MODEL 6
REMARK VINA RESULT:      -5.9      1.402      2.754
REMARK  Name = 
REMARK  7 active torsions:
REMARK  status: ('A' for Active; 'I' for Inactive)
REMARK    1  A    between atoms: C_1  and  C_2
REMARK    2  A    between atoms: C_5  and  O_6
REMARK    3  A    between atoms: O_6  and  C_7
REMARK    4  A    between atoms: C_7  and  C_8
REMARK    5  A    between atoms: C_8  and  C_9
REMARK    6  A    between atoms: C_9  and  N_10
REMARK    7  A    between atoms: C_15  and  C_16
REMARK                            x       y       z     vdW  Elec       q    Type
REMARK                         _______ _______ _______ _____ _____    ______ ____
ROOT
ATOM      1  O   UNL     1       3.949   4.904  17.368  0.00  0.00    +0.000 OA
ENDROOT
BRANCH   1   6
ATOM      2  C   UNL     1       1.303   2.602  21.832  0.00  0.00    +0.000 C 
ATOM      3  C   UNL     1       1.991   3.178  20.631  0.00  0.00    +0.000 A 
ATOM      4  C   UNL     1       2.548   2.349  19.655  0.00  0.00    +0.000 A 
ATOM      5  C   UNL     1       3.206   2.897  18.549  0.00  0.00    +0.000 A 
ATOM      6  C   UNL     1       3.312   4.282  18.402  0.00  0.00    +0.000 A 
ATOM      7  C   UNL     1       2.740   5.129  19.367  0.00  0.00    +0.000 A 
ATOM      8  C   UNL     1       2.807   6.630  19.267  0.00  0.00    +0.000 C 
ATOM      9  C   UNL     1       2.088   4.565  20.477  0.00  0.00    +0.000 A 
ENDBRANCH   1   6
BRANCH   1  10
ATOM     10  C   UNL     1       4.351   4.126  16.240  0.00  0.00    +0.000 C 
BRANCH  10  11
ATOM     11  C   UNL     1       5.211   5.044  15.380  0.00  0.00    +0.000 C 
BRANCH  11  12
ATOM     12  C   UNL     1       5.779   6.226  16.163  0.00  0.00    +0.000 C 
BRANCH  12  13
ATOM     13  N   UNL     1       7.221   6.088  16.449  0.00  0.00    +0.000 NA
ATOM     14  C   UNL     1       7.590   4.790  17.044  0.00  0.00    +0.000 C 
ATOM     15  C   UNL     1       7.260   4.948  18.511  0.00  0.00    +0.000 C 
ATOM     16  C   UNL     1       7.749   6.355  18.796  0.00  0.00    +0.000 C 
ATOM     17  C   UNL     1       7.653   7.084  17.454  0.00  0.00    +0.000 C 
ENDBRANCH  12  13
ENDBRANCH  11  12
ENDBRANCH  10  11
ENDBRANCH   1  10
TORSDOF 5
ENDMDL
MODEL 7
REMARK VINA RESULT:      -5.8      1.619      2.876
REMARK  Name = 
REMARK  7 active torsions:
REMARK  status: ('A' for Active; 'I' for Inactive)
REMARK    1  A    between atoms: C_1  and  C_2
REMARK    2  A    between atoms: C_5  and  O_6
REMARK    3  A    between atoms: O_6  and  C_7
REMARK    4  A    between atoms: C_7  and  C_8
REMARK    5  A    between atoms: C_8  and  C_9
REMARK    6  A    between atoms: C_9  and  N_10
REMARK    7  A    between atoms: C_15  and  C_16
REMARK                            x       y       z     vdW  Elec       q    Type
REMARK                         _______ _______ _______ _____ _____    ______ ____
ROOT
ATOM      1  O   UNL     1       3.820   4.287  16.638  0.00  0.00    +0.000 OA
ENDROOT
BRANCH   1   6
ATOM      2  C   UNL     1       1.286   2.778  21.488  0.00  0.00    +0.000 C 
ATOM      3  C   UNL     1       1.945   3.141  20.192  0.00  0.00    +0.000 A 
ATOM      4  C   UNL     1       2.504   2.160  19.369  0.00  0.00    +0.000 A 
ATOM      5  C   UNL     1       3.134   2.512  18.171  0.00  0.00    +0.000 A 
ATOM      6  C   UNL     1       3.211   3.850  17.778  0.00  0.00    +0.000 A 
ATOM      7  C   UNL     1       2.638   4.847  18.587  0.00  0.00    +0.000 A 
ATOM      8  C   UNL     1       2.675   6.306  18.220  0.00  0.00    +0.000 C 
ATOM      9  C   UNL     1       2.013   4.479  19.791  0.00  0.00    +0.000 A 
ENDBRANCH   1   6
BRANCH   1  10
ATOM     10  C   UNL     1       4.981   3.599  16.171  0.00  0.00    +0.000 C 
BRANCH  10  11
ATOM     11  C   UNL     1       5.803   4.630  15.406  0.00  0.00    +0.000 C 
BRANCH  11  12
ATOM     12  C   UNL     1       6.944   5.212  16.241  0.00  0.00    +0.000 C 
BRANCH  12  13
ATOM     13  N   UNL     1       6.476   5.857  17.484  0.00  0.00    +0.000 NA
ATOM     14  C   UNL     1       6.258   7.310  17.357  0.00  0.00    +0.000 C 
ATOM     15  C   UNL     1       7.640   7.906  17.505  0.00  0.00    +0.000 C 
ATOM     16  C   UNL     1       8.224   7.076  18.631  0.00  0.00    +0.000 C 
ATOM     17  C   UNL     1       7.493   5.734  18.552  0.00  0.00    +0.000 C 
ENDBRANCH  12  13
ENDBRANCH  11  12
ENDBRANCH  10  11
ENDBRANCH   1  10
TORSDOF 5
ENDMDL
MODEL 8
REMARK VINA RESULT:      -5.8      2.646      5.746
REMARK  Name = 
REMARK  7 active torsions:
REMARK  status: ('A' for Active; 'I' for Inactive)
REMARK    1  A    between atoms: C_1  and  C_2
REMARK    2  A    between atoms: C_5  and  O_6
REMARK    3  A    between atoms: O_6  and  C_7
REMARK    4  A    between atoms: C_7  and  C_8
REMARK    5  A    between atoms: C_8  and  C_9
REMARK    6  A    between atoms: C_9  and  N_10
REMARK    7  A    between atoms: C_15  and  C_16
REMARK                            x       y       z     vdW  Elec       q    Type
REMARK                         _______ _______ _______ _____ _____    ______ ____
ROOT
ATOM      1  O   UNL     1       4.400   3.827  18.483  0.00  0.00    +0.000 OA
ENDROOT
BRANCH   1   6
ATOM      2  C   UNL     1       7.958   8.116  17.401  0.00  0.00    +0.000 C 
ATOM      3  C   UNL     1       7.046   6.968  17.712  0.00  0.00    +0.000 A 
ATOM      4  C   UNL     1       7.558   5.713  18.050  0.00  0.00    +0.000 A 
ATOM      5  C   UNL     1       6.698   4.644  18.318  0.00  0.00    +0.000 A 
ATOM      6  C   UNL     1       5.313   4.816  18.255  0.00  0.00    +0.000 A 
ATOM      7  C   UNL     1       4.783   6.077  17.934  0.00  0.00    +0.000 A 
ATOM      8  C   UNL     1       3.302   6.336  17.858  0.00  0.00    +0.000 C 
ATOM      9  C   UNL     1       5.660   7.141  17.660  0.00  0.00    +0.000 A 
ENDBRANCH   1   6
BRANCH   1  10
ATOM     10  C   UNL     1       3.982   3.011  17.389  0.00  0.00    +0.000 C 
BRANCH  10  11
ATOM     11  C   UNL     1       2.682   2.349  17.829  0.00  0.00    +0.000 C 
BRANCH  11  12
ATOM     12  C   UNL     1       1.591   3.362  18.175  0.00  0.00    +0.000 C 
BRANCH  12  13
ATOM     13  N   UNL     1       0.950   3.094  19.478  0.00  0.00    +0.000 NA
ATOM     14  C   UNL     1       0.808   4.288  20.331  0.00  0.00    +0.000 C 
ATOM     15  C   UNL     1       2.168   4.448  20.974  0.00  0.00    +0.000 C 
ATOM     16  C   UNL     1       2.530   3.014  21.310  0.00  0.00    +0.000 C 
ATOM     17  C   UNL     1       1.773   2.166  20.285  0.00  0.00    +0.000 C 
ENDBRANCH  12  13
ENDBRANCH  11  12
ENDBRANCH  10  11
ENDBRANCH   1  10
TORSDOF 5
ENDMDL
MODEL 9
REMARK VINA RESULT:      -5.8      1.619      2.365
REMARK  Name = 
REMARK  7 active torsions:
REMARK  status: ('A' for Active; 'I' for Inactive)
REMARK    1  A    between atoms: C_1  and  C_2
REMARK    2  A    between atoms: C_5  and  O_6
REMARK    3  A    between atoms: O_6  and  C_7
REMARK    4  A    between atoms: C_7  and  C_8
REMARK    5  A    between atoms: C_8  and  C_9
REMARK    6  A    between atoms: C_9  and  N_10
REMARK    7  A    between atoms: C_15  and  C_16
REMARK                            x       y       z     vdW  Elec       q    Type
REMARK                         _______ _______ _______ _____ _____    ______ ____
ROOT
ATOM      1  O   UNL     1       3.175   5.701  17.472  0.00  0.00    +0.000 OA
ENDROOT
BRANCH   1   6
ATOM      2  C   UNL     1       1.264   2.629  21.847  0.00  0.00    +0.000 C 
ATOM      3  C   UNL     1       1.788   3.464  20.718  0.00  0.00    +0.000 A 
ATOM      4  C   UNL     1       2.055   4.824  20.892  0.00  0.00    +0.000 A 
ATOM      5  C   UNL     1       2.525   5.597  19.826  0.00  0.00    +0.000 A 
ATOM      6  C   UNL     1       2.736   5.021  18.572  0.00  0.00    +0.000 A 
ATOM      7  C   UNL     1       2.489   3.649  18.386  0.00  0.00    +0.000 A 
ATOM      8  C   UNL     1       2.706   2.961  17.065  0.00  0.00    +0.000 C 
ATOM      9  C   UNL     1       2.012   2.886  19.465  0.00  0.00    +0.000 A 
ENDBRANCH   1   6
BRANCH   1  10
ATOM     10  C   UNL     1       3.973   6.869  17.659  0.00  0.00    +0.000 C 
BRANCH  10  11
ATOM     11  C   UNL     1       5.418   6.388  17.715  0.00  0.00    +0.000 C 
BRANCH  11  12
ATOM     12  C   UNL     1       6.197   6.708  16.439  0.00  0.00    +0.000 C 
BRANCH  12  13
ATOM     13  N   UNL     1       7.084   5.606  16.015  0.00  0.00    +0.000 NA
ATOM     14  C   UNL     1       6.988   5.281  14.581  0.00  0.00    +0.000 C 
ATOM     15  C   UNL     1       5.761   4.401  14.482  0.00  0.00    +0.000 C 
ATOM     16  C   UNL     1       5.908   3.514  15.703  0.00  0.00    +0.000 C 
ATOM     17  C   UNL     1       6.717   4.347  16.700  0.00  0.00    +0.000 C 
ENDBRANCH  12  13
ENDBRANCH  11  12
ENDBRANCH  10  11
ENDBRANCH   1  10
TORSDOF 5
ENDMDL
