MODEL 1
REMARK VINA RESULT:      -9.3      0.000      0.000
REMARK  Name = 
REMARK  5 active torsions:
REMARK  status: ('A' for Active; 'I' for Inactive)
REMARK    1  A    between atoms: C_1  and  C_2
REMARK    2  A    between atoms: C_4  and  N_5
REMARK    3  A    between atoms: N_5  and  C_6
REMARK    4  A    between atoms: C_11  and  N_12
REMARK    5  A    between atoms: C_17  and  C_18
REMARK                            x       y       z     vdW  Elec       q    Type
REMARK                         _______ _______ _______ _____ _____    ______ ____
ROOT
ATOM      1  C   UNL     1       8.001   7.987  17.725  0.00  0.00    +0.000 C 
ATOM      2  C   UNL     1       7.376   6.681  17.345  0.00  0.00    +0.000 A 
ATOM      3  C   UNL     1       6.834   5.839  18.292  0.00  0.00    +0.000 A 
ATOM      4  C   UNL     1       6.337   4.628  17.844  0.00  0.00    +0.000 A 
ATOM      5  N   UNL     1       6.362   4.292  16.543  0.00  0.00    +0.000 NA
ATOM      6  C   UNL     1       6.889   5.176  15.678  0.00  0.00    +0.000 A 
ATOM      7  N   UNL     1       7.403   6.366  16.038  0.00  0.00    +0.000 NA
ENDROOT
BRANCH   6   8
ATOM      8  C   UNL     1       6.936   4.811  14.247  0.00  0.00    +0.000 A 
ATOM      9  C   UNL     1       6.151   3.765  13.721  0.00  0.00    +0.000 A 
ATOM     10  C   UNL     1       6.214   3.413  12.367  0.00  0.00    +0.000 A 
ATOM     11  C   UNL     1       7.066   4.098  11.505  0.00  0.00    +0.000 A 
ATOM     12  C   UNL     1       7.848   5.140  11.994  0.00  0.00    +0.000 A 
ATOM     13  C   UNL     1       7.779   5.490  13.346  0.00  0.00    +0.000 A 
ENDBRANCH   6   8
BRANCH   4  14
ATOM     14  N   UNL     1       5.826   3.717  18.802  0.00  0.00    +0.000 N 
ATOM     15  H   UNL     1       6.226   3.902  19.716  0.00  0.00    +0.000 HD
BRANCH  14  16
ATOM     16  C   UNL     1       4.506   3.222  18.833  0.00  0.00    +0.000 A 
ATOM     17  C   UNL     1       3.872   2.796  17.656  0.00  0.00    +0.000 A 
ATOM     18  C   UNL     1       2.564   2.309  17.672  0.00  0.00    +0.000 A 
ATOM     19  C   UNL     1       1.868   2.239  18.873  0.00  0.00    +0.000 A 
ATOM     20  F   UNL     1       0.614   1.770  18.835  0.00  0.00    +0.000 F 
ATOM     21  C   UNL     1       2.482   2.644  20.056  0.00  0.00    +0.000 A 
ATOM     22  C   UNL     1       3.806   3.125  20.042  0.00  0.00    +0.000 A 
BRANCH  21  23
ATOM     23  N   UNL     1       1.756   2.578  21.323  0.00  0.00    +0.000 N 
ATOM     24  O   UNL     1       2.351   2.205  22.339  0.00  0.00    +0.000 OA
ATOM     25  O   UNL     1       0.557   2.902  21.303  0.00  0.00    +0.000 OA
ENDBRANCH  21  23
ENDBRANCH  14  16
ENDBRANCH   4  14
TORSDOF 4
ENDMDL
MODEL 2
REMARK VINA RESULT:      -9.0      1.993      2.428
REMARK  Name = 
REMARK  5 active torsions:
REMARK  status: ('A' for Active; 'I' for Inactive)
REMARK    1  A    between atoms: C_1  and  C_2
REMARK    2  A    between atoms: C_4  and  N_5
REMARK    3  A    between atoms: N_5  and  C_6
REMARK    4  A    between atoms: C_11  and  N_12
REMARK    5  A    between atoms: C_17  and  C_18
REMARK                            x       y       z     vdW  Elec       q    Type
REMARK                         _______ _______ _______ _____ _____    ______ ____
ROOT
ATOM      1  C   UNL     1       8.208   7.754  18.026  0.00  0.00    +0.000 C 
ATOM      2  C   UNL     1       7.439   6.541  17.602  0.00  0.00    +0.000 A 
ATOM      3  C   UNL     1       6.753   5.768  18.514  0.00  0.00    +0.000 A 
ATOM      4  C   UNL     1       6.126   4.634  18.030  0.00  0.00    +0.000 A 
ATOM      5  N   UNL     1       6.167   4.307  16.727  0.00  0.00    +0.000 NA
ATOM      6  C   UNL     1       6.840   5.123  15.896  0.00  0.00    +0.000 A 
ATOM      7  N   UNL     1       7.485   6.235  16.293  0.00  0.00    +0.000 NA
ENDROOT
BRANCH   6   8
ATOM      8  C   UNL     1       6.904   4.765  14.464  0.00  0.00    +0.000 A 
ATOM      9  C   UNL     1       7.785   5.413  13.575  0.00  0.00    +0.000 A 
ATOM     10  C   UNL     1       7.826   5.081  12.215  0.00  0.00    +0.000 A 
ATOM     11  C   UNL     1       6.986   4.093  11.711  0.00  0.00    +0.000 A 
ATOM     12  C   UNL     1       6.111   3.430  12.565  0.00  0.00    +0.000 A 
ATOM     13  C   UNL     1       6.075   3.762  13.923  0.00  0.00    +0.000 A 
ENDBRANCH   6   8
BRANCH   4  14
ATOM     14  N   UNL     1       5.461   3.789  18.953  0.00  0.00    +0.000 N 
ATOM     15  H   UNL     1       6.113   3.438  19.646  0.00  0.00    +0.000 HD
BRANCH  14  16
ATOM     16  C   UNL     1       4.148   3.978  19.430  0.00  0.00    +0.000 A 
ATOM     17  C   UNL     1       3.336   2.880  19.754  0.00  0.00    +0.000 A 
ATOM     18  C   UNL     1       2.033   3.054  20.223  0.00  0.00    +0.000 A 
ATOM     19  C   UNL     1       1.520   4.336  20.378  0.00  0.00    +0.000 A 
ATOM     20  F   UNL     1       0.263   4.450  20.825  0.00  0.00    +0.000 F 
ATOM     21  C   UNL     1       2.312   5.442  20.075  0.00  0.00    +0.000 A 
ATOM     22  C   UNL     1       3.632   5.267  19.613  0.00  0.00    +0.000 A 
BRANCH  21  23
ATOM     23  N   UNL     1       1.779   6.794  20.230  0.00  0.00    +0.000 N 
ATOM     24  O   UNL     1       1.136   7.075  21.247  0.00  0.00    +0.000 OA
ATOM     25  O   UNL     1       2.002   7.597  19.309  0.00  0.00    +0.000 OA
ENDBRANCH  21  23
ENDBRANCH  14  16
ENDBRANCH   4  14
TORSDOF 4
ENDMDL
MODEL 3
REMARK VINA RESULT:      -9.0      2.180      2.671
REMARK  Name = 
REMARK  5 active torsions:
REMARK  status: ('A' for Active; 'I' for Inactive)
REMARK    1  A    between atoms: C_1  and  C_2
REMARK    2  A    between atoms: C_4  and  N_5
REMARK    3  A    between atoms: N_5  and  C_6
REMARK    4  A    between atoms: C_11  and  N_12
REMARK    5  A    between atoms: C_17  and  C_18
REMARK                            x       y       z     vdW  Elec       q    Type
REMARK                         _______ _______ _______ _____ _____    ______ ____
ROOT
ATOM      1  C   UNL     1       8.243   7.160  18.333  0.00  0.00    +0.000 C 
ATOM      2  C   UNL     1       7.038   6.769  17.535  0.00  0.00    +0.000 A 
ATOM      3  C   UNL     1       5.761   7.010  17.995  0.00  0.00    +0.000 A 
ATOM      4  C   UNL     1       4.715   6.555  17.212  0.00  0.00    +0.000 A 
ATOM      5  N   UNL     1       4.930   5.923  16.046  0.00  0.00    +0.000 NA
ATOM      6  C   UNL     1       6.205   5.745  15.655  0.00  0.00    +0.000 A 
ATOM      7  N   UNL     1       7.273   6.147  16.367  0.00  0.00    +0.000 NA
ENDROOT
BRANCH   6   8
ATOM      8  C   UNL     1       6.453   5.039  14.381  0.00  0.00    +0.000 A 
ATOM      9  C   UNL     1       7.546   5.364  13.552  0.00  0.00    +0.000 A 
ATOM     10  C   UNL     1       7.764   4.702  12.337  0.00  0.00    +0.000 A 
ATOM     11  C   UNL     1       6.893   3.700  11.920  0.00  0.00    +0.000 A 
ATOM     12  C   UNL     1       5.810   3.351  12.721  0.00  0.00    +0.000 A 
ATOM     13  C   UNL     1       5.598   4.012  13.935  0.00  0.00    +0.000 A 
ENDBRANCH   6   8
BRANCH   4  14
ATOM     14  N   UNL     1       3.393   6.736  17.688  0.00  0.00    +0.000 N 
ATOM     15  H   UNL     1       2.810   7.146  16.966  0.00  0.00    +0.000 HD
BRANCH  14  16
ATOM     16  C   UNL     1       2.714   5.860  18.559  0.00  0.00    +0.000 A 
ATOM     17  C   UNL     1       2.335   6.276  19.844  0.00  0.00    +0.000 A 
ATOM     18  C   UNL     1       1.666   5.418  20.718  0.00  0.00    +0.000 A 
ATOM     19  C   UNL     1       1.363   4.122  20.315  0.00  0.00    +0.000 A 
ATOM     20  F   UNL     1       0.727   3.335  21.192  0.00  0.00    +0.000 F 
ATOM     21  C   UNL     1       1.717   3.691  19.039  0.00  0.00    +0.000 A 
ATOM     22  C   UNL     1       2.382   4.562  18.153  0.00  0.00    +0.000 A 
BRANCH  21  23
ATOM     23  N   UNL     1       1.407   2.329  18.609  0.00  0.00    +0.000 N 
ATOM     24  O   UNL     1       0.225   1.992  18.481  0.00  0.00    +0.000 OA
ATOM     25  O   UNL     1       2.368   1.572  18.399  0.00  0.00    +0.000 OA
ENDBRANCH  21  23
ENDBRANCH  14  16
ENDBRANCH   4  14
TORSDOF 4
ENDMDL
MODEL 4
REMARK VINA RESULT:      -8.9      1.996      2.261
REMARK  Name = 
REMARK  5 active torsions:
REMARK  status: ('A' for Active; 'I' for Inactive)
REMARK    1  A    between atoms: C_1  and  C_2
REMARK    2  A    between atoms: C_4  and  N_5
REMARK    3  A    between atoms: N_5  and  C_6
REMARK    4  A    between atoms: C_11  and  N_12
REMARK    5  A    between atoms: C_17  and  C_18
REMARK                            x       y       z     vdW  Elec       q    Type
REMARK                         _______ _______ _______ _____ _____    ______ ____
ROOT
ATOM      1  C   UNL     1       7.962   7.566  17.881  0.00  0.00    +0.000 C 
ATOM      2  C   UNL     1       6.817   6.824  17.265  0.00  0.00    +0.000 A 
ATOM      3  C   UNL     1       5.600   6.719  17.904  0.00  0.00    +0.000 A 
ATOM      4  C   UNL     1       4.626   5.961  17.279  0.00  0.00    +0.000 A 
ATOM      5  N   UNL     1       4.847   5.366  16.094  0.00  0.00    +0.000 NA
ATOM      6  C   UNL     1       6.054   5.533  15.525  0.00  0.00    +0.000 A 
ATOM      7  N   UNL     1       7.054   6.244  16.076  0.00  0.00    +0.000 NA
ENDROOT
BRANCH   6   8
ATOM      8  C   UNL     1       6.312   4.872  14.229  0.00  0.00    +0.000 A 
ATOM      9  C   UNL     1       5.436   3.903  13.701  0.00  0.00    +0.000 A 
ATOM     10  C   UNL     1       5.697   3.268  12.481  0.00  0.00    +0.000 A 
ATOM     11  C   UNL     1       6.844   3.585  11.758  0.00  0.00    +0.000 A 
ATOM     12  C   UNL     1       7.725   4.544  12.250  0.00  0.00    +0.000 A 
ATOM     13  C   UNL     1       7.457   5.178  13.467  0.00  0.00    +0.000 A 
ENDBRANCH   6   8
BRANCH   4  14
ATOM     14  N   UNL     1       3.384   5.787  17.940  0.00  0.00    +0.000 N 
ATOM     15  H   UNL     1       2.616   5.920  17.291  0.00  0.00    +0.000 HD
BRANCH  14  16
ATOM     16  C   UNL     1       3.129   4.849  18.961  0.00  0.00    +0.000 A 
ATOM     17  C   UNL     1       2.035   5.008  19.825  0.00  0.00    +0.000 A 
ATOM     18  C   UNL     1       1.774   4.089  20.842  0.00  0.00    +0.000 A 
ATOM     19  C   UNL     1       2.609   2.990  21.011  0.00  0.00    +0.000 A 
ATOM     20  F   UNL     1       2.320   2.141  22.006  0.00  0.00    +0.000 F 
ATOM     21  C   UNL     1       3.694   2.805  20.158  0.00  0.00    +0.000 A 
ATOM     22  C   UNL     1       3.950   3.726  19.122  0.00  0.00    +0.000 A 
BRANCH  21  23
ATOM     23  N   UNL     1       4.580   1.656  20.331  0.00  0.00    +0.000 N 
ATOM     24  O   UNL     1       5.279   1.582  21.348  0.00  0.00    +0.000 OA
ATOM     25  O   UNL     1       4.584   0.806  19.426  0.00  0.00    +0.000 OA
ENDBRANCH  21  23
ENDBRANCH  14  16
ENDBRANCH   4  14
TORSDOF 4
ENDMDL
MODEL 5
REMARK VINA RESULT:      -8.9      1.557      2.171
REMARK  Name = 
REMARK  5 active torsions:
REMARK  status: ('A' for Active; 'I' for Inactive)
REMARK    1  A    between atoms: C_1  and  C_2
REMARK    2  A    between atoms: C_4  and  N_5
REMARK    3  A    between atoms: N_5  and  C_6
REMARK    4  A    between atoms: C_11  and  N_12
REMARK    5  A    between atoms: C_17  and  C_18
REMARK                            x       y       z     vdW  Elec       q    Type
REMARK                         _______ _______ _______ _____ _____    ______ ____
ROOT
ATOM      1  C   UNL     1       7.780   7.926  17.803  0.00  0.00    +0.000 C 
ATOM      2  C   UNL     1       7.229   6.581  17.443  0.00  0.00    +0.000 A 
ATOM      3  C   UNL     1       6.783   5.704  18.408  0.00  0.00    +0.000 A 
ATOM      4  C   UNL     1       6.351   4.463  17.977  0.00  0.00    +0.000 A 
ATOM      5  N   UNL     1       6.346   4.130  16.675  0.00  0.00    +0.000 NA
ATOM      6  C   UNL     1       6.777   5.049  15.792  0.00  0.00    +0.000 A 
ATOM      7  N   UNL     1       7.225   6.270  16.135  0.00  0.00    +0.000 NA
ENDROOT
BRANCH   6   8
ATOM      8  C   UNL     1       6.790   4.688  14.359  0.00  0.00    +0.000 A 
ATOM      9  C   UNL     1       7.670   5.304  13.446  0.00  0.00    +0.000 A 
ATOM     10  C   UNL     1       7.664   4.970  12.087  0.00  0.00    +0.000 A 
ATOM     11  C   UNL     1       6.776   4.012  11.605  0.00  0.00    +0.000 A 
ATOM     12  C   UNL     1       5.900   3.382  12.484  0.00  0.00    +0.000 A 
ATOM     13  C   UNL     1       5.912   3.716  13.842  0.00  0.00    +0.000 A 
ENDBRANCH   6   8
BRANCH   4  14
ATOM     14  N   UNL     1       5.941   3.519  18.952  0.00  0.00    +0.000 N 
ATOM     15  H   UNL     1       6.644   3.431  19.678  0.00  0.00    +0.000 HD
BRANCH  14  16
ATOM     16  C   UNL     1       4.617   3.331  19.397  0.00  0.00    +0.000 A 
ATOM     17  C   UNL     1       4.348   3.011  20.737  0.00  0.00    +0.000 A 
ATOM     18  C   UNL     1       3.042   2.819  21.189  0.00  0.00    +0.000 A 
ATOM     19  C   UNL     1       1.979   2.945  20.303  0.00  0.00    +0.000 A 
ATOM     20  F   UNL     1       0.745   2.744  20.784  0.00  0.00    +0.000 F 
ATOM     21  C   UNL     1       2.220   3.275  18.972  0.00  0.00    +0.000 A 
ATOM     22  C   UNL     1       3.538   3.482  18.517  0.00  0.00    +0.000 A 
BRANCH  21  23
ATOM     23  N   UNL     1       1.108   3.406  18.032  0.00  0.00    +0.000 N 
ATOM     24  O   UNL     1       1.063   4.390  17.286  0.00  0.00    +0.000 OA
ATOM     25  O   UNL     1       0.253   2.506  18.041  0.00  0.00    +0.000 OA
ENDBRANCH  21  23
ENDBRANCH  14  16
ENDBRANCH   4  14
TORSDOF 4
ENDMDL
MODEL 6
REMARK VINA RESULT:      -8.9      1.462      1.827
REMARK  Name = 
REMARK  5 active torsions:
REMARK  status: ('A' for Active; 'I' for Inactive)
REMARK    1  A    between atoms: C_1  and  C_2
REMARK    2  A    between atoms: C_4  and  N_5
REMARK    3  A    between atoms: N_5  and  C_6
REMARK    4  A    between atoms: C_11  and  N_12
REMARK    5  A    between atoms: C_17  and  C_18
REMARK                            x       y       z     vdW  Elec       q    Type
REMARK                         _______ _______ _______ _____ _____    ______ ____
ROOT
ATOM      1  C   UNL     1       8.151   7.384  18.172  0.00  0.00    +0.000 C 
ATOM      2  C   UNL     1       6.969   6.799  17.464  0.00  0.00    +0.000 A 
ATOM      3  C   UNL     1       5.708   6.834  18.020  0.00  0.00    +0.000 A 
ATOM      4  C   UNL     1       4.693   6.211  17.314  0.00  0.00    +0.000 A 
ATOM      5  N   UNL     1       4.920   5.615  16.131  0.00  0.00    +0.000 NA
ATOM      6  C   UNL     1       6.173   5.643  15.645  0.00  0.00    +0.000 A 
ATOM      7  N   UNL     1       7.213   6.215  16.278  0.00  0.00    +0.000 NA
ENDROOT
BRANCH   6   8
ATOM      8  C   UNL     1       6.437   4.978  14.352  0.00  0.00    +0.000 A 
ATOM      9  C   UNL     1       7.538   5.329  13.547  0.00  0.00    +0.000 A 
ATOM     10  C   UNL     1       7.771   4.707  12.314  0.00  0.00    +0.000 A 
ATOM     11  C   UNL     1       6.906   3.718  11.855  0.00  0.00    +0.000 A 
ATOM     12  C   UNL     1       5.813   3.344  12.631  0.00  0.00    +0.000 A 
ATOM     13  C   UNL     1       5.587   3.966  13.864  0.00  0.00    +0.000 A 
ENDBRANCH   6   8
BRANCH   4  14
ATOM     14  N   UNL     1       3.398   6.180  17.888  0.00  0.00    +0.000 N 
ATOM     15  H   UNL     1       2.782   6.827  17.408  0.00  0.00    +0.000 HD
BRANCH  14  16
ATOM     16  C   UNL     1       2.758   5.029  18.390  0.00  0.00    +0.000 A 
ATOM     17  C   UNL     1       1.743   4.394  17.659  0.00  0.00    +0.000 A 
ATOM     18  C   UNL     1       1.099   3.256  18.147  0.00  0.00    +0.000 A 
ATOM     19  C   UNL     1       1.464   2.732  19.381  0.00  0.00    +0.000 A 
ATOM     20  F   UNL     1       0.811   1.643  19.808  0.00  0.00    +0.000 F 
ATOM     21  C   UNL     1       2.478   3.337  20.120  0.00  0.00    +0.000 A 
ATOM     22  C   UNL     1       3.137   4.479  19.622  0.00  0.00    +0.000 A 
BRANCH  21  23
ATOM     23  N   UNL     1       2.865   2.796  21.421  0.00  0.00    +0.000 N 
ATOM     24  O   UNL     1       3.850   2.054  21.496  0.00  0.00    +0.000 OA
ATOM     25  O   UNL     1       2.164   3.115  22.395  0.00  0.00    +0.000 OA
ENDBRANCH  21  23
ENDBRANCH  14  16
ENDBRANCH   4  14
TORSDOF 4
ENDMDL
MODEL 7
REMARK VINA RESULT:      -8.9      1.495      1.624
REMARK  Name = 
REMARK  5 active torsions:
REMARK  status: ('A' for Active; 'I' for Inactive)
REMARK    1  A    between atoms: C_1  and  C_2
REMARK    2  A    between atoms: C_4  and  N_5
REMARK    3  A    between atoms: N_5  and  C_6
REMARK    4  A    between atoms: C_11  and  N_12
REMARK    5  A    between atoms: C_17  and  C_18
REMARK                            x       y       z     vdW  Elec       q    Type
REMARK                         _______ _______ _______ _____ _____    ______ ____
ROOT
ATOM      1  C   UNL     1       8.093   7.441  18.037  0.00  0.00    +0.000 C 
ATOM      2  C   UNL     1       6.931   6.808  17.336  0.00  0.00    +0.000 A 
ATOM      3  C   UNL     1       5.671   6.796  17.897  0.00  0.00    +0.000 A 
ATOM      4  C   UNL     1       4.679   6.132  17.198  0.00  0.00    +0.000 A 
ATOM      5  N   UNL     1       4.924   5.540  16.016  0.00  0.00    +0.000 NA
ATOM      6  C   UNL     1       6.174   5.613  15.525  0.00  0.00    +0.000 A 
ATOM      7  N   UNL     1       7.193   6.228  16.152  0.00  0.00    +0.000 NA
ENDROOT
BRANCH   6   8
ATOM      8  C   UNL     1       6.458   4.954  14.234  0.00  0.00    +0.000 A 
ATOM      9  C   UNL     1       5.665   3.893  13.751  0.00  0.00    +0.000 A 
ATOM     10  C   UNL     1       5.951   3.261  12.535  0.00  0.00    +0.000 A 
ATOM     11  C   UNL     1       7.039   3.673  11.772  0.00  0.00    +0.000 A 
ATOM     12  C   UNL     1       7.836   4.723  12.218  0.00  0.00    +0.000 A 
ATOM     13  C   UNL     1       7.544   5.354  13.432  0.00  0.00    +0.000 A 
ENDBRANCH   6   8
BRANCH   4  14
ATOM     14  N   UNL     1       3.388   6.053  17.777  0.00  0.00    +0.000 N 
ATOM     15  H   UNL     1       2.737   6.644  17.272  0.00  0.00    +0.000 HD
BRANCH  14  16
ATOM     16  C   UNL     1       2.814   4.891  18.330  0.00  0.00    +0.000 A 
ATOM     17  C   UNL     1       1.638   4.345  17.792  0.00  0.00    +0.000 A 
ATOM     18  C   UNL     1       1.057   3.197  18.332  0.00  0.00    +0.000 A 
ATOM     19  C   UNL     1       1.647   2.573  19.425  0.00  0.00    +0.000 A 
ATOM     20  F   UNL     1       1.048   1.479  19.911  0.00  0.00    +0.000 F 
ATOM     21  C   UNL     1       2.822   3.089  19.968  0.00  0.00    +0.000 A 
ATOM     22  C   UNL     1       3.416   4.241  19.414  0.00  0.00    +0.000 A 
BRANCH  21  23
ATOM     23  N   UNL     1       3.448   2.442  21.120  0.00  0.00    +0.000 N 
ATOM     24  O   UNL     1       4.601   2.010  21.015  0.00  0.00    +0.000 OA
ATOM     25  O   UNL     1       2.769   2.358  22.156  0.00  0.00    +0.000 OA
ENDBRANCH  21  23
ENDBRANCH  14  16
ENDBRANCH   4  14
TORSDOF 4
ENDMDL
MODEL 8
REMARK VINA RESULT:      -8.6      1.421      1.968
REMARK  Name = 
REMARK  5 active torsions:
REMARK  status: ('A' for Active; 'I' for Inactive)
REMARK    1  A    between atoms: C_1  and  C_2
REMARK    2  A    between atoms: C_4  and  N_5
REMARK    3  A    between atoms: N_5  and  C_6
REMARK    4  A    between atoms: C_11  and  N_12
REMARK    5  A    between atoms: C_17  and  C_18
REMARK                            x       y       z     vdW  Elec       q    Type
REMARK                         _______ _______ _______ _____ _____    ______ ____
ROOT
ATOM      1  C   UNL     1       8.236   8.279  17.651  0.00  0.00    +0.000 C 
ATOM      2  C   UNL     1       7.482   7.011  17.396  0.00  0.00    +0.000 A 
ATOM      3  C   UNL     1       6.845   6.335  18.415  0.00  0.00    +0.000 A 
ATOM      4  C   UNL     1       6.228   5.141  18.087  0.00  0.00    +0.000 A 
ATOM      5  N   UNL     1       6.231   4.667  16.829  0.00  0.00    +0.000 NA
ATOM      6  C   UNL     1       6.856   5.395  15.887  0.00  0.00    +0.000 A 
ATOM      7  N   UNL     1       7.489   6.557  16.130  0.00  0.00    +0.000 NA
ENDROOT
BRANCH   6   8
ATOM      8  C   UNL     1       6.879   4.877  14.503  0.00  0.00    +0.000 A 
ATOM      9  C   UNL     1       7.752   5.399  13.528  0.00  0.00    +0.000 A 
ATOM     10  C   UNL     1       7.755   4.915  12.215  0.00  0.00    +0.000 A 
ATOM     11  C   UNL     1       6.883   3.896  11.843  0.00  0.00    +0.000 A 
ATOM     12  C   UNL     1       6.014   3.354  12.785  0.00  0.00    +0.000 A 
ATOM     13  C   UNL     1       6.017   3.839  14.097  0.00  0.00    +0.000 A 
ENDBRANCH   6   8
BRANCH   4  14
ATOM     14  N   UNL     1       5.614   4.395  19.124  0.00  0.00    +0.000 N 
ATOM     15  H   UNL     1       6.273   4.227  19.877  0.00  0.00    +0.000 HD
BRANCH  14  16
ATOM     16  C   UNL     1       4.274   4.529  19.540  0.00  0.00    +0.000 A 
ATOM     17  C   UNL     1       3.641   5.782  19.531  0.00  0.00    +0.000 A 
ATOM     18  C   UNL     1       2.316   5.928  19.944  0.00  0.00    +0.000 A 
ATOM     19  C   UNL     1       1.600   4.818  20.375  0.00  0.00    +0.000 A 
ATOM     20  F   UNL     1       0.335   5.012  20.767  0.00  0.00    +0.000 F 
ATOM     21  C   UNL     1       2.203   3.562  20.380  0.00  0.00    +0.000 A 
ATOM     22  C   UNL     1       3.537   3.412  19.951  0.00  0.00    +0.000 A 
BRANCH  21  23
ATOM     23  N   UNL     1       1.459   2.389  20.835  0.00  0.00    +0.000 N 
ATOM     24  O   UNL     1       0.973   1.622  19.997  0.00  0.00    +0.000 OA
ATOM     25  O   UNL     1       1.351   2.232  22.061  0.00  0.00    +0.000 OA
ENDBRANCH  21  23
ENDBRANCH  14  16
ENDBRANCH   4  14
TORSDOF 4
ENDMDL
MODEL 9
REMARK VINA RESULT:      -8.6      1.469      1.847
REMARK  Name = 
REMARK  5 active torsions:
REMARK  status: ('A' for Active; 'I' for Inactive)
REMARK    1  A    between atoms: C_1  and  C_2
REMARK    2  A    between atoms: C_4  and  N_5
REMARK    3  A    between atoms: N_5  and  C_6
REMARK    4  A    between atoms: C_11  and  N_12
REMARK    5  A    between atoms: C_17  and  C_18
REMARK                            x       y       z     vdW  Elec       q    Type
REMARK                         _______ _______ _______ _____ _____    ______ ____
ROOT
ATOM      1  C   UNL     1       8.115   8.073  17.702  0.00  0.00    +0.000 C 
ATOM      2  C   UNL     1       7.385   6.806  17.382  0.00  0.00    +0.000 A 
ATOM      3  C   UNL     1       6.754   6.071  18.363  0.00  0.00    +0.000 A 
ATOM      4  C   UNL     1       6.160   4.884  17.974  0.00  0.00    +0.000 A 
ATOM      5  N   UNL     1       6.179   4.471  16.695  0.00  0.00    +0.000 NA
ATOM      6  C   UNL     1       6.797   5.255  15.793  0.00  0.00    +0.000 A 
ATOM      7  N   UNL     1       7.407   6.414  16.096  0.00  0.00    +0.000 NA
ENDROOT
BRANCH   6   8
ATOM      8  C   UNL     1       6.836   4.804  14.386  0.00  0.00    +0.000 A 
ATOM      9  C   UNL     1       6.000   3.773  13.912  0.00  0.00    +0.000 A 
ATOM     10  C   UNL     1       6.056   3.339  12.582  0.00  0.00    +0.000 A 
ATOM     11  C   UNL     1       6.952   3.925  11.693  0.00  0.00    +0.000 A 
ATOM     12  C   UNL     1       7.786   4.950  12.129  0.00  0.00    +0.000 A 
ATOM     13  C   UNL     1       7.723   5.383  13.457  0.00  0.00    +0.000 A 
ENDBRANCH   6   8
BRANCH   4  14
ATOM     14  N   UNL     1       5.554   4.078  18.970  0.00  0.00    +0.000 N 
ATOM     15  H   UNL     1       6.193   3.931  19.743  0.00  0.00    +0.000 HD
BRANCH  14  16
ATOM     16  C   UNL     1       4.194   4.123  19.337  0.00  0.00    +0.000 A 
ATOM     17  C   UNL     1       3.672   5.228  20.026  0.00  0.00    +0.000 A 
ATOM     18  C   UNL     1       2.329   5.283  20.399  0.00  0.00    +0.000 A 
ATOM     19  C   UNL     1       1.481   4.227  20.085  0.00  0.00    +0.000 A 
ATOM     20  F   UNL     1       0.202   4.325  20.470  0.00  0.00    +0.000 F 
ATOM     21  C   UNL     1       1.973   3.125  19.390  0.00  0.00    +0.000 A 
ATOM     22  C   UNL     1       3.327   3.075  19.002  0.00  0.00    +0.000 A 
BRANCH  21  23
ATOM     23  N   UNL     1       1.091   2.008  19.059  0.00  0.00    +0.000 N 
ATOM     24  O   UNL     1       0.126   2.204  18.311  0.00  0.00    +0.000 OA
ATOM     25  O   UNL     1       1.362   0.907  19.564  0.00  0.00    +0.000 OA
ENDBRANCH  21  23
ENDBRANCH  14  16
ENDBRANCH   4  14
TORSDOF 4
ENDMDL
