MODEL 1
REMARK VINA RESULT:      -7.7      0.000      0.000
REMARK  Name = 
REMARK  1 active torsions:
REMARK  status: ('A' for Active; 'I' for Inactive)
REMARK    1  A    between atoms: C_4  and  C_5
REMARK                            x       y       z     vdW  Elec       q    Type
REMARK                         _______ _______ _______ _____ _____    ______ ____
ROOT
ATOM      1  O   UNL     1       5.188   1.732  20.702  0.00  0.00    +0.000 OA
ATOM      2  C   UNL     1       4.640   2.547  19.973  0.00  0.00    +0.000 C 
ATOM      3  N   UNL     1       5.283   3.116  18.909  0.00  0.00    +0.000 N 
ATOM      4  C   UNL     1       4.797   4.308  18.269  0.00  0.00    +0.000 C 
ATOM      5  N   UNL     1       3.376   4.164  18.093  0.00  0.00    +0.000 N 
ATOM      6  C   UNL     1       2.677   3.805  19.236  0.00  0.00    +0.000 A 
ATOM      7  N   UNL     1       1.409   4.250  19.338  0.00  0.00    +0.000 NA
ATOM      8  C   UNL     1       0.690   3.828  20.407  0.00  0.00    +0.000 A 
ATOM      9  C   UNL     1       1.185   2.988  21.393  0.00  0.00    +0.000 A 
ATOM     10  C   UNL     1       2.499   2.548  21.283  0.00  0.00    +0.000 A 
ATOM     11  C   UNL     1       3.247   2.965  20.185  0.00  0.00    +0.000 A 
ATOM     12  H   UNL     1       6.266   2.893  18.834  0.00  0.00    +0.000 HD
ATOM     13  H   UNL     1       2.900   4.921  17.617  0.00  0.00    +0.000 HD
ENDROOT
BRANCH   4  14
ATOM     14  C   UNL     1       5.521   4.438  16.957  0.00  0.00    +0.000 A 
ATOM     15  C   UNL     1       4.988   4.334  15.684  0.00  0.00    +0.000 A 
ATOM     16  C   UNL     1       5.959   4.539  14.666  0.00  0.00    +0.000 A 
ATOM     17  C   UNL     1       7.205   4.794  15.191  0.00  0.00    +0.000 A 
ATOM     18  S   UNL     1       7.199   4.780  16.903  0.00  0.00    +0.000 S 
ENDBRANCH   4  14
TORSDOF 1
ENDMDL
MODEL 2
REMARK VINA RESULT:      -7.2      0.811      1.058
REMARK  Name = 
REMARK  1 active torsions:
REMARK  status: ('A' for Active; 'I' for Inactive)
REMARK    1  A    between atoms: C_4  and  C_5
REMARK                            x       y       z     vdW  Elec       q    Type
REMARK                         _______ _______ _______ _____ _____    ______ ____
ROOT
ATOM      1  O   UNL     1       5.201   1.666  20.771  0.00  0.00    +0.000 OA
ATOM      2  C   UNL     1       4.706   2.531  20.063  0.00  0.00    +0.000 C 
ATOM      3  N   UNL     1       5.410   3.139  19.061  0.00  0.00    +0.000 N 
ATOM      4  C   UNL     1       4.981   4.376  18.465  0.00  0.00    +0.000 C 
ATOM      5  N   UNL     1       3.567   4.277  18.217  0.00  0.00    +0.000 N 
ATOM      6  C   UNL     1       2.809   3.876  19.307  0.00  0.00    +0.000 A 
ATOM      7  N   UNL     1       1.547   4.346  19.375  0.00  0.00    +0.000 NA
ATOM      8  C   UNL     1       0.770   3.886  20.386  0.00  0.00    +0.000 A 
ATOM      9  C   UNL     1       1.200   2.983  21.347  0.00  0.00    +0.000 A 
ATOM     10  C   UNL     1       2.507   2.517  21.273  0.00  0.00    +0.000 A 
ATOM     11  C   UNL     1       3.314   2.972  20.234  0.00  0.00    +0.000 A 
ATOM     12  H   UNL     1       6.390   2.896  19.018  0.00  0.00    +0.000 HD
ATOM     13  H   UNL     1       3.131   5.069  17.762  0.00  0.00    +0.000 HD
ENDROOT
BRANCH   4  14
ATOM     14  C   UNL     1       5.769   4.556  17.196  0.00  0.00    +0.000 A 
ATOM     15  C   UNL     1       7.124   4.809  17.072  0.00  0.00    +0.000 A 
ATOM     16  C   UNL     1       7.543   4.896  15.716  0.00  0.00    +0.000 A 
ATOM     17  C   UNL     1       6.496   4.705  14.844  0.00  0.00    +0.000 A 
ATOM     18  S   UNL     1       5.017   4.428  15.662  0.00  0.00    +0.000 S 
ENDBRANCH   4  14
TORSDOF 1
ENDMDL
MODEL 3
REMARK VINA RESULT:      -7.1      1.892      2.405
REMARK  Name = 
REMARK  1 active torsions:
REMARK  status: ('A' for Active; 'I' for Inactive)
REMARK    1  A    between atoms: C_4  and  C_5
REMARK                            x       y       z     vdW  Elec       q    Type
REMARK                         _______ _______ _______ _____ _____    ______ ____
ROOT
ATOM      1  O   UNL     1       0.829   4.359  17.249  0.00  0.00    +0.000 OA
ATOM      2  C   UNL     1       1.913   4.019  17.703  0.00  0.00    +0.000 C 
ATOM      3  N   UNL     1       3.062   4.091  16.965  0.00  0.00    +0.000 N 
ATOM      4  C   UNL     1       4.257   3.383  17.339  0.00  0.00    +0.000 C 
ATOM      5  N   UNL     1       4.451   3.564  18.753  0.00  0.00    +0.000 N 
ATOM      6  C   UNL     1       3.345   3.271  19.538  0.00  0.00    +0.000 A 
ATOM      7  N   UNL     1       3.587   2.807  20.781  0.00  0.00    +0.000 NA
ATOM      8  C   UNL     1       2.515   2.606  21.585  0.00  0.00    +0.000 A 
ATOM      9  C   UNL     1       1.203   2.834  21.201  0.00  0.00    +0.000 A 
ATOM     10  C   UNL     1       0.966   3.299  19.913  0.00  0.00    +0.000 A 
ATOM     11  C   UNL     1       2.057   3.520  19.078  0.00  0.00    +0.000 A 
ATOM     12  H   UNL     1       2.933   4.343  15.995  0.00  0.00    +0.000 HD
ATOM     13  H   UNL     1       5.282   3.146  19.153  0.00  0.00    +0.000 HD
ENDROOT
BRANCH   4  14
ATOM     14  C   UNL     1       5.388   3.960  16.532  0.00  0.00    +0.000 A 
ATOM     15  C   UNL     1       5.518   3.978  15.155  0.00  0.00    +0.000 A 
ATOM     16  C   UNL     1       6.706   4.631  14.726  0.00  0.00    +0.000 A 
ATOM     17  C   UNL     1       7.447   5.094  15.789  0.00  0.00    +0.000 A 
ATOM     18  S   UNL     1       6.712   4.734  17.293  0.00  0.00    +0.000 S 
ENDBRANCH   4  14
TORSDOF 1
ENDMDL
MODEL 4
REMARK VINA RESULT:      -7.0      2.190      5.659
REMARK  Name = 
REMARK  1 active torsions:
REMARK  status: ('A' for Active; 'I' for Inactive)
REMARK    1  A    between atoms: C_4  and  C_5
REMARK                            x       y       z     vdW  Elec       q    Type
REMARK                         _______ _______ _______ _____ _____    ______ ____
ROOT
ATOM      1  O   UNL     1       7.240   5.131  19.328  0.00  0.00    +0.000 OA
ATOM      2  C   UNL     1       6.294   4.632  18.735  0.00  0.00    +0.000 C 
ATOM      3  N   UNL     1       5.222   4.100  19.397  0.00  0.00    +0.000 N 
ATOM      4  C   UNL     1       4.290   3.212  18.756  0.00  0.00    +0.000 C 
ATOM      5  N   UNL     1       3.973   3.765  17.466  0.00  0.00    +0.000 N 
ATOM      6  C   UNL     1       5.070   4.100  16.686  0.00  0.00    +0.000 A 
ATOM      7  N   UNL     1       4.917   4.006  15.350  0.00  0.00    +0.000 NA
ATOM      8  C   UNL     1       5.953   4.419  14.579  0.00  0.00    +0.000 A 
ATOM      9  C   UNL     1       7.147   4.912  15.083  0.00  0.00    +0.000 A 
ATOM     10  C   UNL     1       7.297   4.990  16.462  0.00  0.00    +0.000 A 
ATOM     11  C   UNL     1       6.238   4.579  17.267  0.00  0.00    +0.000 A 
ATOM     12  H   UNL     1       5.319   4.057  20.402  0.00  0.00    +0.000 HD
ATOM     13  H   UNL     1       3.293   3.258  16.912  0.00  0.00    +0.000 HD
ENDROOT
BRANCH   4  14
ATOM     14  C   UNL     1       3.081   3.116  19.646  0.00  0.00    +0.000 A 
ATOM     15  C   UNL     1       3.041   2.738  20.977  0.00  0.00    +0.000 A 
ATOM     16  C   UNL     1       1.727   2.785  21.519  0.00  0.00    +0.000 A 
ATOM     17  C   UNL     1       0.804   3.199  20.587  0.00  0.00    +0.000 A 
ATOM     18  S   UNL     1       1.522   3.523  19.067  0.00  0.00    +0.000 S 
ENDBRANCH   4  14
TORSDOF 1
ENDMDL
MODEL 5
REMARK VINA RESULT:      -6.9      2.197      5.590
REMARK  Name = 
REMARK  1 active torsions:
REMARK  status: ('A' for Active; 'I' for Inactive)
REMARK    1  A    between atoms: C_4  and  C_5
REMARK                            x       y       z     vdW  Elec       q    Type
REMARK                         _______ _______ _______ _____ _____    ______ ____
ROOT
ATOM      1  O   UNL     1       7.250   4.990  19.265  0.00  0.00    +0.000 OA
ATOM      2  C   UNL     1       6.276   4.578  18.650  0.00  0.00    +0.000 C 
ATOM      3  N   UNL     1       5.160   4.112  19.289  0.00  0.00    +0.000 N 
ATOM      4  C   UNL     1       4.172   3.312  18.618  0.00  0.00    +0.000 C 
ATOM      5  N   UNL     1       3.911   3.917  17.339  0.00  0.00    +0.000 N 
ATOM      6  C   UNL     1       5.039   4.187  16.578  0.00  0.00    +0.000 A 
ATOM      7  N   UNL     1       4.895   4.136  15.239  0.00  0.00    +0.000 NA
ATOM      8  C   UNL     1       5.967   4.488  14.488  0.00  0.00    +0.000 A 
ATOM      9  C   UNL     1       7.190   4.878  15.015  0.00  0.00    +0.000 A 
ATOM     10  C   UNL     1       7.329   4.913  16.397  0.00  0.00    +0.000 A 
ATOM     11  C   UNL     1       6.233   4.564  17.182  0.00  0.00    +0.000 A 
ATOM     12  H   UNL     1       5.242   4.038  20.294  0.00  0.00    +0.000 HD
ATOM     13  H   UNL     1       3.202   3.476  16.766  0.00  0.00    +0.000 HD
ENDROOT
BRANCH   4  14
ATOM     14  C   UNL     1       2.949   3.286  19.494  0.00  0.00    +0.000 A 
ATOM     15  C   UNL     1       1.678   3.736  19.182  0.00  0.00    +0.000 A 
ATOM     16  C   UNL     1       0.750   3.531  20.240  0.00  0.00    +0.000 A 
ATOM     17  C   UNL     1       1.340   2.931  21.328  0.00  0.00    +0.000 A 
ATOM     18  S   UNL     1       3.004   2.622  21.072  0.00  0.00    +0.000 S 
ENDBRANCH   4  14
TORSDOF 1
ENDMDL
MODEL 6
REMARK VINA RESULT:      -6.9      3.066      5.782
REMARK  Name = 
REMARK  1 active torsions:
REMARK  status: ('A' for Active; 'I' for Inactive)
REMARK    1  A    between atoms: C_4  and  C_5
REMARK                            x       y       z     vdW  Elec       q    Type
REMARK                         _______ _______ _______ _____ _____    ______ ____
ROOT
ATOM      1  O   UNL     1       4.580   6.874  16.049  0.00  0.00    +0.000 OA
ATOM      2  C   UNL     1       4.652   6.259  17.104  0.00  0.00    +0.000 C 
ATOM      3  N   UNL     1       3.589   5.565  17.612  0.00  0.00    +0.000 N 
ATOM      4  C   UNL     1       3.536   5.143  18.986  0.00  0.00    +0.000 C 
ATOM      5  N   UNL     1       4.820   4.590  19.325  0.00  0.00    +0.000 N 
ATOM      6  C   UNL     1       5.906   5.396  19.018  0.00  0.00    +0.000 A 
ATOM      7  N   UNL     1       6.988   5.288  19.813  0.00  0.00    +0.000 NA
ATOM      8  C   UNL     1       8.085   6.005  19.466  0.00  0.00    +0.000 A 
ATOM      9  C   UNL     1       8.148   6.840  18.361  0.00  0.00    +0.000 A 
ATOM     10  C   UNL     1       7.021   6.953  17.557  0.00  0.00    +0.000 A 
ATOM     11  C   UNL     1       5.889   6.216  17.895  0.00  0.00    +0.000 A 
ATOM     12  H   UNL     1       2.721   5.683  17.109  0.00  0.00    +0.000 HD
ATOM     13  H   UNL     1       4.918   4.216  20.261  0.00  0.00    +0.000 HD
ENDROOT
BRANCH   4  14
ATOM     14  C   UNL     1       2.432   4.128  19.099  0.00  0.00    +0.000 A 
ATOM     15  C   UNL     1       1.403   4.100  20.024  0.00  0.00    +0.000 A 
ATOM     16  C   UNL     1       0.516   3.007  19.822  0.00  0.00    +0.000 A 
ATOM     17  C   UNL     1       0.893   2.233  18.749  0.00  0.00    +0.000 A 
ATOM     18  S   UNL     1       2.312   2.824  17.995  0.00  0.00    +0.000 S 
ENDBRANCH   4  14
TORSDOF 1
ENDMDL
MODEL 7
REMARK VINA RESULT:      -6.8      1.995      2.572
REMARK  Name = 
REMARK  1 active torsions:
REMARK  status: ('A' for Active; 'I' for Inactive)
REMARK    1  A    between atoms: C_4  and  C_5
REMARK                            x       y       z     vdW  Elec       q    Type
REMARK                         _______ _______ _______ _____ _____    ______ ____
ROOT
ATOM      1  O   UNL     1       0.875   4.324  17.228  0.00  0.00    +0.000 OA
ATOM      2  C   UNL     1       1.949   4.015  17.725  0.00  0.00    +0.000 C 
ATOM      3  N   UNL     1       3.125   4.123  17.035  0.00  0.00    +0.000 N 
ATOM      4  C   UNL     1       4.324   3.449  17.456  0.00  0.00    +0.000 C 
ATOM      5  N   UNL     1       4.454   3.630  18.877  0.00  0.00    +0.000 N 
ATOM      6  C   UNL     1       3.326   3.302  19.615  0.00  0.00    +0.000 A 
ATOM      7  N   UNL     1       3.531   2.841  20.865  0.00  0.00    +0.000 NA
ATOM      8  C   UNL     1       2.433   2.606  21.625  0.00  0.00    +0.000 A 
ATOM      9  C   UNL     1       1.131   2.797  21.187  0.00  0.00    +0.000 A 
ATOM     10  C   UNL     1       0.934   3.258  19.892  0.00  0.00    +0.000 A 
ATOM     11  C   UNL     1       2.052   3.515  19.103  0.00  0.00    +0.000 A 
ATOM     12  H   UNL     1       3.028   4.375  16.061  0.00  0.00    +0.000 HD
ATOM     13  H   UNL     1       5.280   3.236  19.309  0.00  0.00    +0.000 HD
ENDROOT
BRANCH   4  14
ATOM     14  C   UNL     1       5.469   4.062  16.698  0.00  0.00    +0.000 A 
ATOM     15  C   UNL     1       6.624   4.619  17.218  0.00  0.00    +0.000 A 
ATOM     16  C   UNL     1       7.511   5.083  16.209  0.00  0.00    +0.000 A 
ATOM     17  C   UNL     1       7.009   4.864  14.947  0.00  0.00    +0.000 A 
ATOM     18  S   UNL     1       5.473   4.109  14.986  0.00  0.00    +0.000 S 
ENDBRANCH   4  14
TORSDOF 1
ENDMDL
MODEL 8
REMARK VINA RESULT:      -6.8      1.958      2.448
REMARK  Name = 
REMARK  1 active torsions:
REMARK  status: ('A' for Active; 'I' for Inactive)
REMARK    1  A    between atoms: C_4  and  C_5
REMARK                            x       y       z     vdW  Elec       q    Type
REMARK                         _______ _______ _______ _____ _____    ______ ____
ROOT
ATOM      1  O   UNL     1       2.320   6.767  18.753  0.00  0.00    +0.000 OA
ATOM      2  C   UNL     1       2.943   5.725  18.603  0.00  0.00    +0.000 C 
ATOM      3  N   UNL     1       3.742   5.509  17.514  0.00  0.00    +0.000 N 
ATOM      4  C   UNL     1       4.190   4.194  17.142  0.00  0.00    +0.000 C 
ATOM      5  N   UNL     1       4.627   3.525  18.338  0.00  0.00    +0.000 N 
ATOM      6  C   UNL     1       3.718   3.542  19.385  0.00  0.00    +0.000 A 
ATOM      7  N   UNL     1       3.739   2.489  20.226  0.00  0.00    +0.000 NA
ATOM      8  C   UNL     1       2.918   2.542  21.303  0.00  0.00    +0.000 A 
ATOM      9  C   UNL     1       2.062   3.598  21.576  0.00  0.00    +0.000 A 
ATOM     10  C   UNL     1       2.040   4.671  20.694  0.00  0.00    +0.000 A 
ATOM     11  C   UNL     1       2.885   4.636  19.588  0.00  0.00    +0.000 A 
ATOM     12  H   UNL     1       3.696   6.224  16.801  0.00  0.00    +0.000 HD
ATOM     13  H   UNL     1       5.006   2.593  18.222  0.00  0.00    +0.000 HD
ENDROOT
BRANCH   4  14
ATOM     14  C   UNL     1       5.305   4.368  16.147  0.00  0.00    +0.000 A 
ATOM     15  C   UNL     1       5.246   4.198  14.775  0.00  0.00    +0.000 A 
ATOM     16  C   UNL     1       6.486   4.472  14.136  0.00  0.00    +0.000 A 
ATOM     17  C   UNL     1       7.455   4.844  15.039  0.00  0.00    +0.000 A 
ATOM     18  S   UNL     1       6.868   4.856  16.647  0.00  0.00    +0.000 S 
ENDBRANCH   4  14
TORSDOF 1
ENDMDL
MODEL 9
REMARK VINA RESULT:      -6.8      3.258      5.797
REMARK  Name = 
REMARK  1 active torsions:
REMARK  status: ('A' for Active; 'I' for Inactive)
REMARK    1  A    between atoms: C_4  and  C_5
REMARK                            x       y       z     vdW  Elec       q    Type
REMARK                         _______ _______ _______ _____ _____    ______ ____
ROOT
ATOM      1  O   UNL     1       4.553   6.901  16.044  0.00  0.00    +0.000 OA
ATOM      2  C   UNL     1       4.627   6.293  17.103  0.00  0.00    +0.000 C 
ATOM      3  N   UNL     1       3.560   5.614  17.624  0.00  0.00    +0.000 N 
ATOM      4  C   UNL     1       3.514   5.203  19.002  0.00  0.00    +0.000 C 
ATOM      5  N   UNL     1       4.795   4.638  19.335  0.00  0.00    +0.000 N 
ATOM      6  C   UNL     1       5.887   5.430  19.012  0.00  0.00    +0.000 A 
ATOM      7  N   UNL     1       6.975   5.316  19.800  0.00  0.00    +0.000 NA
ATOM      8  C   UNL     1       8.076   6.017  19.438  0.00  0.00    +0.000 A 
ATOM      9  C   UNL     1       8.140   6.844  18.326  0.00  0.00    +0.000 A 
ATOM     10  C   UNL     1       7.007   6.964  17.531  0.00  0.00    +0.000 A 
ATOM     11  C   UNL     1       5.870   6.242  17.884  0.00  0.00    +0.000 A 
ATOM     12  H   UNL     1       2.689   5.739  17.128  0.00  0.00    +0.000 HD
ATOM     13  H   UNL     1       4.897   4.270  20.272  0.00  0.00    +0.000 HD
ENDROOT
BRANCH   4  14
ATOM     14  C   UNL     1       2.400   4.201  19.131  0.00  0.00    +0.000 A 
ATOM     15  C   UNL     1       1.943   3.318  18.169  0.00  0.00    +0.000 A 
ATOM     16  C   UNL     1       0.887   2.491  18.642  0.00  0.00    +0.000 A 
ATOM     17  C   UNL     1       0.570   2.766  19.952  0.00  0.00    +0.000 A 
ATOM     18  S   UNL     1       1.540   4.020  20.601  0.00  0.00    +0.000 S 
ENDBRANCH   4  14
TORSDOF 1
ENDMDL
