MODEL 1
REMARK VINA RESULT:      -8.8      0.000      0.000
REMARK  Name = 
REMARK  5 active torsions:
REMARK  status: ('A' for Active; 'I' for Inactive)
REMARK    1  A    between atoms: C_1  and  O_2
REMARK    2  A    between atoms: O_2  and  C_3
REMARK    3  A    between atoms: C_10  and  S_11
REMARK    4  A    between atoms: S_11  and  C_13
REMARK    5  A    between atoms: C_14  and  C_15
REMARK                            x       y       z     vdW  Elec       q    Type
REMARK                         _______ _______ _______ _____ _____    ______ ____
ROOT
ATOM      1  C   UNL     1      -0.804  12.306  22.043  0.00  0.00    +0.000 C 
ATOM      2  O   UNL     1      -0.505  11.705  23.065  0.00  0.00    +0.000 OA
ATOM      3  N   UNL     1      -0.485  11.995  20.748  0.00  0.00    +0.000 N 
ATOM      4  C   UNL     1       0.168  10.838  20.426  0.00  0.00    +0.000 A 
ATOM      5  N   UNL     1       0.380   9.803  21.201  0.00  0.00    +0.000 NA
ATOM      6  C   UNL     1       1.062   8.897  20.443  0.00  0.00    +0.000 A 
ATOM      7  C   UNL     1       1.499   7.618  20.790  0.00  0.00    +0.000 A 
ATOM      8  C   UNL     1       2.240   6.883  19.859  0.00  0.00    +0.000 A 
ATOM      9  C   UNL     1       2.485   7.410  18.580  0.00  0.00    +0.000 A 
ATOM     10  C   UNL     1       2.018   8.681  18.202  0.00  0.00    +0.000 A 
ATOM     11  C   UNL     1       1.307   9.393  19.170  0.00  0.00    +0.000 A 
ATOM     12  N   UNL     1       0.689  10.620  19.173  0.00  0.00    +0.000 N 
ATOM     13  H   UNL     1      -0.725  12.681  20.051  0.00  0.00    +0.000 HD
ATOM     14  H   UNL     1       0.658  11.266  18.401  0.00  0.00    +0.000 HD
ENDROOT
BRANCH   1  16
ATOM     15  C   UNL     1      -2.528  13.534  21.054  0.00  0.00    +0.000 C 
ATOM     16  O   UNL     1      -1.490  13.481  22.039  0.00  0.00    +0.000 OA
ENDBRANCH   1  16
BRANCH   8  17
ATOM     17  S   UNL     1       2.764   5.215  20.307  0.00  0.00    +0.000 S 
ATOM     18  O   UNL     1       1.447   4.383  20.506  0.00  0.00    +0.000 OA
BRANCH  17  19
ATOM     19  C   UNL     1       3.557   4.663  18.859  0.00  0.00    +0.000 A 
ATOM     20  C   UNL     1       2.944   4.101  17.747  0.00  0.00    +0.000 A 
ATOM     21  C   UNL     1       1.544   3.751  17.395  0.00  0.00    +0.000 C 
ATOM     22  N   UNL     1       3.932   3.885  16.814  0.00  0.00    +0.000 N 
ATOM     23  C   UNL     1       5.150   4.313  17.277  0.00  0.00    +0.000 A 
ATOM     24  C   UNL     1       6.399   4.295  16.641  0.00  0.00    +0.000 A 
ATOM     25  C   UNL     1       7.491   4.803  17.345  0.00  0.00    +0.000 A 
ATOM     26  C   UNL     1       7.324   5.310  18.626  0.00  0.00    +0.000 A 
ATOM     27  F   UNL     1       8.389   5.790  19.281  0.00  0.00    +0.000 F 
ATOM     28  C   UNL     1       6.076   5.331  19.247  0.00  0.00    +0.000 A 
ATOM     29  C   UNL     1       4.951   4.817  18.566  0.00  0.00    +0.000 A 
ATOM     30  H   UNL     1       3.781   3.491  15.895  0.00  0.00    +0.000 HD
ENDBRANCH  17  19
ENDBRANCH   8  17
TORSDOF 3
ENDMDL
MODEL 2
REMARK VINA RESULT:      -8.7      4.989      7.136
REMARK  Name = 
REMARK  5 active torsions:
REMARK  status: ('A' for Active; 'I' for Inactive)
REMARK    1  A    between atoms: C_1  and  O_2
REMARK    2  A    between atoms: O_2  and  C_3
REMARK    3  A    between atoms: C_10  and  S_11
REMARK    4  A    between atoms: S_11  and  C_13
REMARK    5  A    between atoms: C_14  and  C_15
REMARK                            x       y       z     vdW  Elec       q    Type
REMARK                         _______ _______ _______ _____ _____    ______ ____
ROOT
ATOM      1  C   UNL     1       8.837  11.644  17.872  0.00  0.00    +0.000 C 
ATOM      2  O   UNL     1       7.789  11.858  17.279  0.00  0.00    +0.000 OA
ATOM      3  N   UNL     1       9.280  10.471  18.421  0.00  0.00    +0.000 N 
ATOM      4  C   UNL     1       8.591   9.300  18.270  0.00  0.00    +0.000 A 
ATOM      5  N   UNL     1       7.596   9.064  17.450  0.00  0.00    +0.000 NA
ATOM      6  C   UNL     1       7.242   7.762  17.652  0.00  0.00    +0.000 A 
ATOM      7  C   UNL     1       6.257   7.012  17.006  0.00  0.00    +0.000 A 
ATOM      8  C   UNL     1       6.027   5.698  17.424  0.00  0.00    +0.000 A 
ATOM      9  C   UNL     1       6.818   5.133  18.439  0.00  0.00    +0.000 A 
ATOM     10  C   UNL     1       7.839   5.863  19.072  0.00  0.00    +0.000 A 
ATOM     11  C   UNL     1       8.018   7.180  18.645  0.00  0.00    +0.000 A 
ATOM     12  N   UNL     1       8.900   8.174  18.994  0.00  0.00    +0.000 N 
ATOM     13  H   UNL     1      10.120  10.525  18.973  0.00  0.00    +0.000 HD
ATOM     14  H   UNL     1       9.623   8.101  19.692  0.00  0.00    +0.000 HD
ENDROOT
BRANCH   1  16
ATOM     15  C   UNL     1      11.108  12.185  17.969  0.00  0.00    +0.000 C 
ATOM     16  O   UNL     1       9.753  12.612  18.147  0.00  0.00    +0.000 OA
ENDBRANCH   1  16
BRANCH   8  17
ATOM     17  S   UNL     1       4.779   4.729  16.553  0.00  0.00    +0.000 S 
ATOM     18  O   UNL     1       5.506   3.429  16.054  0.00  0.00    +0.000 OA
BRANCH  17  19
ATOM     19  C   UNL     1       3.676   4.294  17.828  0.00  0.00    +0.000 A 
ATOM     20  C   UNL     1       3.381   3.008  18.260  0.00  0.00    +0.000 A 
ATOM     21  C   UNL     1       3.803   1.647  17.842  0.00  0.00    +0.000 C 
ATOM     22  N   UNL     1       2.526   3.133  19.330  0.00  0.00    +0.000 N 
ATOM     23  C   UNL     1       2.284   4.453  19.616  0.00  0.00    +0.000 A 
ATOM     24  C   UNL     1       1.493   5.012  20.631  0.00  0.00    +0.000 A 
ATOM     25  C   UNL     1       1.421   6.403  20.702  0.00  0.00    +0.000 A 
ATOM     26  C   UNL     1       2.121   7.187  19.796  0.00  0.00    +0.000 A 
ATOM     27  F   UNL     1       2.033   8.521  19.886  0.00  0.00    +0.000 F 
ATOM     28  C   UNL     1       2.912   6.623  18.796  0.00  0.00    +0.000 A 
ATOM     29  C   UNL     1       2.999   5.217  18.690  0.00  0.00    +0.000 A 
ATOM     30  H   UNL     1       2.147   2.359  19.858  0.00  0.00    +0.000 HD
ENDBRANCH  17  19
ENDBRANCH   8  17
TORSDOF 3
ENDMDL
MODEL 3
REMARK VINA RESULT:      -8.6      5.346      7.847
REMARK  Name = 
REMARK  5 active torsions:
REMARK  status: ('A' for Active; 'I' for Inactive)
REMARK    1  A    between atoms: C_1  and  O_2
REMARK    2  A    between atoms: O_2  and  C_3
REMARK    3  A    between atoms: C_10  and  S_11
REMARK    4  A    between atoms: S_11  and  C_13
REMARK    5  A    between atoms: C_14  and  C_15
REMARK                            x       y       z     vdW  Elec       q    Type
REMARK                         _______ _______ _______ _____ _____    ______ ____
ROOT
ATOM      1  C   UNL     1      -3.471   9.636  12.685  0.00  0.00    +0.000 C 
ATOM      2  O   UNL     1      -2.262   9.459  12.750  0.00  0.00    +0.000 OA
ATOM      3  N   UNL     1      -4.320  10.088  13.658  0.00  0.00    +0.000 N 
ATOM      4  C   UNL     1      -3.859  10.514  14.873  0.00  0.00    +0.000 A 
ATOM      5  N   UNL     1      -2.617  10.766  15.209  0.00  0.00    +0.000 NA
ATOM      6  C   UNL     1      -2.653  11.166  16.512  0.00  0.00    +0.000 A 
ATOM      7  C   UNL     1      -1.599  11.578  17.330  0.00  0.00    +0.000 A 
ATOM      8  C   UNL     1      -1.865  11.891  18.666  0.00  0.00    +0.000 A 
ATOM      9  C   UNL     1      -3.183  11.843  19.152  0.00  0.00    +0.000 A 
ATOM     10  C   UNL     1      -4.260  11.468  18.330  0.00  0.00    +0.000 A 
ATOM     11  C   UNL     1      -3.948  11.137  17.010  0.00  0.00    +0.000 A 
ATOM     12  N   UNL     1      -4.705  10.755  15.929  0.00  0.00    +0.000 N 
ATOM     13  H   UNL     1      -5.303  10.054  13.446  0.00  0.00    +0.000 HD
ATOM     14  H   UNL     1      -5.705  10.634  15.924  0.00  0.00    +0.000 HD
ENDROOT
BRANCH   1  16
ATOM     15  C   UNL     1      -5.613   9.573  11.755  0.00  0.00    +0.000 C 
ATOM     16  O   UNL     1      -4.212   9.336  11.583  0.00  0.00    +0.000 OA
ENDBRANCH   1  16
BRANCH   8  17
ATOM     17  S   UNL     1      -0.500  12.460  19.700  0.00  0.00    +0.000 S 
ATOM     18  O   UNL     1      -1.135  13.410  20.777  0.00  0.00    +0.000 OA
BRANCH  17  19
ATOM     19  C   UNL     1       0.018  10.995  20.487  0.00  0.00    +0.000 A 
ATOM     20  C   UNL     1      -0.318  10.586  21.770  0.00  0.00    +0.000 A 
ATOM     21  C   UNL     1      -1.126  11.170  22.872  0.00  0.00    +0.000 C 
ATOM     22  N   UNL     1       0.243   9.344  21.953  0.00  0.00    +0.000 N 
ATOM     23  C   UNL     1       0.904   8.930  20.823  0.00  0.00    +0.000 A 
ATOM     24  C   UNL     1       1.589   7.730  20.584  0.00  0.00    +0.000 A 
ATOM     25  C   UNL     1       2.176   7.561  19.330  0.00  0.00    +0.000 A 
ATOM     26  C   UNL     1       2.067   8.553  18.366  0.00  0.00    +0.000 A 
ATOM     27  F   UNL     1       2.641   8.366  17.170  0.00  0.00    +0.000 F 
ATOM     28  C   UNL     1       1.376   9.739  18.611  0.00  0.00    +0.000 A 
ATOM     29  C   UNL     1       0.778   9.947  19.873  0.00  0.00    +0.000 A 
ATOM     30  H   UNL     1       0.158   8.790  22.795  0.00  0.00    +0.000 HD
ENDBRANCH  17  19
ENDBRANCH   8  17
TORSDOF 3
ENDMDL
MODEL 4
REMARK VINA RESULT:      -8.4      1.043      1.084
REMARK  Name = 
REMARK  5 active torsions:
REMARK  status: ('A' for Active; 'I' for Inactive)
REMARK    1  A    between atoms: C_1  and  O_2
REMARK    2  A    between atoms: O_2  and  C_3
REMARK    3  A    between atoms: C_10  and  S_11
REMARK    4  A    between atoms: S_11  and  C_13
REMARK    5  A    between atoms: C_14  and  C_15
REMARK                            x       y       z     vdW  Elec       q    Type
REMARK                         _______ _______ _______ _____ _____    ______ ____
ROOT
ATOM      1  C   UNL     1      -1.368  12.407  21.304  0.00  0.00    +0.000 C 
ATOM      2  O   UNL     1      -0.948  11.963  22.363  0.00  0.00    +0.000 OA
ATOM      3  N   UNL     1      -1.055  12.014  20.031  0.00  0.00    +0.000 N 
ATOM      4  C   UNL     1      -0.251  10.935  19.789  0.00  0.00    +0.000 A 
ATOM      5  N   UNL     1       0.138  10.025  20.648  0.00  0.00    +0.000 NA
ATOM      6  C   UNL     1       0.917   9.153  19.947  0.00  0.00    +0.000 A 
ATOM      7  C   UNL     1       1.549   7.991  20.392  0.00  0.00    +0.000 A 
ATOM      8  C   UNL     1       2.355   7.276  19.501  0.00  0.00    +0.000 A 
ATOM      9  C   UNL     1       2.474   7.699  18.166  0.00  0.00    +0.000 A 
ATOM     10  C   UNL     1       1.812   8.845  17.692  0.00  0.00    +0.000 A 
ATOM     11  C   UNL     1       1.040   9.545  18.621  0.00  0.00    +0.000 A 
ATOM     12  N   UNL     1       0.250  10.666  18.538  0.00  0.00    +0.000 N 
ATOM     13  H   UNL     1      -1.417  12.584  19.284  0.00  0.00    +0.000 HD
ATOM     14  H   UNL     1       0.096  11.218  17.709  0.00  0.00    +0.000 HD
ENDROOT
BRANCH   1  16
ATOM     15  C   UNL     1      -3.601  13.092  21.223  0.00  0.00    +0.000 C 
ATOM     16  O   UNL     1      -2.219  13.467  21.222  0.00  0.00    +0.000 OA
ENDBRANCH   1  16
BRANCH   8  17
ATOM     17  S   UNL     1       3.133   5.755  20.080  0.00  0.00    +0.000 S 
ATOM     18  O   UNL     1       2.015   4.953  20.836  0.00  0.00    +0.000 OA
BRANCH  17  19
ATOM     19  C   UNL     1       3.503   4.927  18.593  0.00  0.00    +0.000 A 
ATOM     20  C   UNL     1       2.697   4.003  17.942  0.00  0.00    +0.000 A 
ATOM     21  C   UNL     1       1.373   3.393  18.226  0.00  0.00    +0.000 C 
ATOM     22  N   UNL     1       3.342   3.663  16.776  0.00  0.00    +0.000 N 
ATOM     23  C   UNL     1       4.519   4.356  16.643  0.00  0.00    +0.000 A 
ATOM     24  C   UNL     1       5.459   4.321  15.603  0.00  0.00    +0.000 A 
ATOM     25  C   UNL     1       6.582   5.139  15.719  0.00  0.00    +0.000 A 
ATOM     26  C   UNL     1       6.741   5.958  16.828  0.00  0.00    +0.000 A 
ATOM     27  F   UNL     1       7.830   6.734  16.915  0.00  0.00    +0.000 F 
ATOM     28  C   UNL     1       5.796   5.993  17.853  0.00  0.00    +0.000 A 
ATOM     29  C   UNL     1       4.652   5.169  17.772  0.00  0.00    +0.000 A 
ATOM     30  H   UNL     1       2.986   3.013  16.088  0.00  0.00    +0.000 HD
ENDBRANCH  17  19
ENDBRANCH   8  17
TORSDOF 3
ENDMDL
MODEL 5
REMARK VINA RESULT:      -8.3      2.219      3.078
REMARK  Name = 
REMARK  5 active torsions:
REMARK  status: ('A' for Active; 'I' for Inactive)
REMARK    1  A    between atoms: C_1  and  O_2
REMARK    2  A    between atoms: O_2  and  C_3
REMARK    3  A    between atoms: C_10  and  S_11
REMARK    4  A    between atoms: S_11  and  C_13
REMARK    5  A    between atoms: C_14  and  C_15
REMARK                            x       y       z     vdW  Elec       q    Type
REMARK                         _______ _______ _______ _____ _____    ______ ____
ROOT
ATOM      1  C   UNL     1      -0.341  10.496  22.333  0.00  0.00    +0.000 C 
ATOM      2  O   UNL     1       0.195   9.804  23.187  0.00  0.00    +0.000 OA
ATOM      3  N   UNL     1      -0.146  10.482  20.979  0.00  0.00    +0.000 N 
ATOM      4  C   UNL     1       0.661   9.556  20.378  0.00  0.00    +0.000 A 
ATOM      5  N   UNL     1       1.161   8.470  20.915  0.00  0.00    +0.000 NA
ATOM      6  C   UNL     1       1.892   7.867  19.934  0.00  0.00    +0.000 A 
ATOM      7  C   UNL     1       2.600   6.664  19.984  0.00  0.00    +0.000 A 
ATOM      8  C   UNL     1       3.333   6.266  18.862  0.00  0.00    +0.000 A 
ATOM      9  C   UNL     1       3.305   7.042  17.691  0.00  0.00    +0.000 A 
ATOM     10  C   UNL     1       2.566   8.235  17.612  0.00  0.00    +0.000 A 
ATOM     11  C   UNL     1       1.870   8.611  18.763  0.00  0.00    +0.000 A 
ATOM     12  N   UNL     1       1.042   9.666  19.062  0.00  0.00    +0.000 N 
ATOM     13  H   UNL     1      -0.598  11.212  20.453  0.00  0.00    +0.000 HD
ATOM     14  H   UNL     1       0.791  10.414  18.436  0.00  0.00    +0.000 HD
ENDROOT
BRANCH   1  16
ATOM     15  C   UNL     1      -1.164  12.593  21.715  0.00  0.00    +0.000 C 
ATOM     16  O   UNL     1      -1.227  11.488  22.622  0.00  0.00    +0.000 OA
ENDBRANCH   1  16
BRANCH   8  17
ATOM     17  S   UNL     1       4.210   4.690  18.928  0.00  0.00    +0.000 S 
ATOM     18  O   UNL     1       3.295   3.650  18.188  0.00  0.00    +0.000 OA
BRANCH  17  19
ATOM     19  C   UNL     1       5.614   4.995  17.943  0.00  0.00    +0.000 A 
ATOM     20  C   UNL     1       6.853   5.436  18.389  0.00  0.00    +0.000 A 
ATOM     21  C   UNL     1       7.409   5.815  19.713  0.00  0.00    +0.000 C 
ATOM     22  N   UNL     1       7.683   5.468  17.293  0.00  0.00    +0.000 N 
ATOM     23  C   UNL     1       7.028   5.036  16.166  0.00  0.00    +0.000 A 
ATOM     24  C   UNL     1       7.511   4.897  14.857  0.00  0.00    +0.000 A 
ATOM     25  C   UNL     1       6.624   4.427  13.888  0.00  0.00    +0.000 A 
ATOM     26  C   UNL     1       5.318   4.108  14.230  0.00  0.00    +0.000 A 
ATOM     27  F   UNL     1       4.486   3.661  13.280  0.00  0.00    +0.000 F 
ATOM     28  C   UNL     1       4.850   4.243  15.537  0.00  0.00    +0.000 A 
ATOM     29  C   UNL     1       5.719   4.724  16.541  0.00  0.00    +0.000 A 
ATOM     30  H   UNL     1       8.656   5.742  17.313  0.00  0.00    +0.000 HD
ENDBRANCH  17  19
ENDBRANCH   8  17
TORSDOF 3
ENDMDL
MODEL 6
REMARK VINA RESULT:      -8.3      2.688      3.796
REMARK  Name = 
REMARK  5 active torsions:
REMARK  status: ('A' for Active; 'I' for Inactive)
REMARK    1  A    between atoms: C_1  and  O_2
REMARK    2  A    between atoms: O_2  and  C_3
REMARK    3  A    between atoms: C_10  and  S_11
REMARK    4  A    between atoms: S_11  and  C_13
REMARK    5  A    between atoms: C_14  and  C_15
REMARK                            x       y       z     vdW  Elec       q    Type
REMARK                         _______ _______ _______ _____ _____    ______ ____
ROOT
ATOM      1  C   UNL     1      -1.593  12.215  19.230  0.00  0.00    +0.000 C 
ATOM      2  O   UNL     1      -1.499  12.115  18.015  0.00  0.00    +0.000 OA
ATOM      3  N   UNL     1      -1.013  11.438  20.196  0.00  0.00    +0.000 N 
ATOM      4  C   UNL     1      -0.119  10.451  19.885  0.00  0.00    +0.000 A 
ATOM      5  N   UNL     1       0.467  10.246  18.731  0.00  0.00    +0.000 NA
ATOM      6  C   UNL     1       1.271   9.157  18.905  0.00  0.00    +0.000 A 
ATOM      7  C   UNL     1       2.132   8.549  17.990  0.00  0.00    +0.000 A 
ATOM      8  C   UNL     1       2.821   7.396  18.375  0.00  0.00    +0.000 A 
ATOM      9  C   UNL     1       2.685   6.898  19.682  0.00  0.00    +0.000 A 
ATOM     10  C   UNL     1       1.852   7.521  20.627  0.00  0.00    +0.000 A 
ATOM     11  C   UNL     1       1.160   8.654  20.194  0.00  0.00    +0.000 A 
ATOM     12  N   UNL     1       0.296   9.525  20.811  0.00  0.00    +0.000 N 
ATOM     13  H   UNL     1      -1.308  11.607  21.144  0.00  0.00    +0.000 HD
ATOM     14  H   UNL     1      -0.012   9.470  21.769  0.00  0.00    +0.000 HD
ENDROOT
BRANCH   1  16
ATOM     15  C   UNL     1      -3.715  12.664  20.099  0.00  0.00    +0.000 C 
ATOM     16  O   UNL     1      -2.387  13.134  19.846  0.00  0.00    +0.000 OA
ENDBRANCH   1  16
BRANCH   8  17
ATOM     17  S   UNL     1       3.960   6.644  17.195  0.00  0.00    +0.000 S 
ATOM     18  O   UNL     1       5.230   7.568  17.166  0.00  0.00    +0.000 OA
BRANCH  17  19
ATOM     19  C   UNL     1       4.380   5.144  17.974  0.00  0.00    +0.000 A 
ATOM     20  C   UNL     1       5.625   4.801  18.483  0.00  0.00    +0.000 A 
ATOM     21  C   UNL     1       6.951   5.471  18.535  0.00  0.00    +0.000 C 
ATOM     22  N   UNL     1       5.488   3.566  19.072  0.00  0.00    +0.000 N 
ATOM     23  C   UNL     1       4.194   3.117  18.983  0.00  0.00    +0.000 A 
ATOM     24  C   UNL     1       3.630   1.928  19.467  0.00  0.00    +0.000 A 
ATOM     25  C   UNL     1       2.270   1.719  19.240  0.00  0.00    +0.000 A 
ATOM     26  C   UNL     1       1.519   2.670  18.564  0.00  0.00    +0.000 A 
ATOM     27  F   UNL     1       0.214   2.443  18.358  0.00  0.00    +0.000 F 
ATOM     28  C   UNL     1       2.087   3.853  18.094  0.00  0.00    +0.000 A 
ATOM     29  C   UNL     1       3.464   4.093  18.299  0.00  0.00    +0.000 A 
ATOM     30  H   UNL     1       6.232   3.063  19.538  0.00  0.00    +0.000 HD
ENDBRANCH  17  19
ENDBRANCH   8  17
TORSDOF 3
ENDMDL
MODEL 7
REMARK VINA RESULT:      -8.3      4.080      9.126
REMARK  Name = 
REMARK  5 active torsions:
REMARK  status: ('A' for Active; 'I' for Inactive)
REMARK    1  A    between atoms: C_1  and  O_2
REMARK    2  A    between atoms: O_2  and  C_3
REMARK    3  A    between atoms: C_10  and  S_11
REMARK    4  A    between atoms: S_11  and  C_13
REMARK    5  A    between atoms: C_14  and  C_15
REMARK                            x       y       z     vdW  Elec       q    Type
REMARK                         _______ _______ _______ _____ _____    ______ ____
ROOT
ATOM      1  C   UNL     1       3.721   5.994  18.198  0.00  0.00    +0.000 C 
ATOM      2  O   UNL     1       4.028   6.922  17.463  0.00  0.00    +0.000 OA
ATOM      3  N   UNL     1       2.918   6.014  19.306  0.00  0.00    +0.000 N 
ATOM      4  C   UNL     1       2.242   7.141  19.683  0.00  0.00    +0.000 A 
ATOM      5  N   UNL     1       2.071   8.237  18.985  0.00  0.00    +0.000 NA
ATOM      6  C   UNL     1       1.332   9.073  19.770  0.00  0.00    +0.000 A 
ATOM      7  C   UNL     1       0.854  10.352  19.479  0.00  0.00    +0.000 A 
ATOM      8  C   UNL     1       0.161  11.054  20.469  0.00  0.00    +0.000 A 
ATOM      9  C   UNL     1      -0.095  10.451  21.713  0.00  0.00    +0.000 A 
ATOM     10  C   UNL     1       0.346   9.149  22.007  0.00  0.00    +0.000 A 
ATOM     11  C   UNL     1       1.059   8.493  21.001  0.00  0.00    +0.000 A 
ATOM     12  N   UNL     1       1.618   7.241  20.904  0.00  0.00    +0.000 N 
ATOM     13  H   UNL     1       2.881   5.166  19.848  0.00  0.00    +0.000 HD
ATOM     14  H   UNL     1       1.606   6.534  21.621  0.00  0.00    +0.000 HD
ENDROOT
BRANCH   1  16
ATOM     15  C   UNL     1       5.340   4.456  18.887  0.00  0.00    +0.000 C 
ATOM     16  O   UNL     1       4.209   4.731  18.052  0.00  0.00    +0.000 OA
ENDBRANCH   1  16
BRANCH   8  17
ATOM     17  S   UNL     1      -0.486  12.690  20.065  0.00  0.00    +0.000 S 
ATOM     18  O   UNL     1       0.234  13.128  18.740  0.00  0.00    +0.000 OA
BRANCH  17  19
ATOM     19  C   UNL     1      -2.158  12.361  19.708  0.00  0.00    +0.000 A 
ATOM     20  C   UNL     1      -3.247  12.657  20.517  0.00  0.00    +0.000 A 
ATOM     21  C   UNL     1      -3.410  13.267  21.862  0.00  0.00    +0.000 C 
ATOM     22  N   UNL     1      -4.374  12.296  19.816  0.00  0.00    +0.000 N 
ATOM     23  C   UNL     1      -4.048  11.804  18.577  0.00  0.00    +0.000 A 
ATOM     24  C   UNL     1      -4.890  11.348  17.552  0.00  0.00    +0.000 A 
ATOM     25  C   UNL     1      -4.291  10.898  16.376  0.00  0.00    +0.000 A 
ATOM     26  C   UNL     1      -2.910  10.917  16.242  0.00  0.00    +0.000 A 
ATOM     27  F   UNL     1      -2.359  10.478  15.102  0.00  0.00    +0.000 F 
ATOM     28  C   UNL     1      -2.081  11.381  17.264  0.00  0.00    +0.000 A 
ATOM     29  C   UNL     1      -2.655  11.835  18.472  0.00  0.00    +0.000 A 
ATOM     30  H   UNL     1      -5.321  12.405  20.152  0.00  0.00    +0.000 HD
ENDBRANCH  17  19
ENDBRANCH   8  17
TORSDOF 3
ENDMDL
MODEL 8
REMARK VINA RESULT:      -8.2      5.425      7.249
REMARK  Name = 
REMARK  5 active torsions:
REMARK  status: ('A' for Active; 'I' for Inactive)
REMARK    1  A    between atoms: C_1  and  O_2
REMARK    2  A    between atoms: O_2  and  C_3
REMARK    3  A    between atoms: C_10  and  S_11
REMARK    4  A    between atoms: S_11  and  C_13
REMARK    5  A    between atoms: C_14  and  C_15
REMARK                            x       y       z     vdW  Elec       q    Type
REMARK                         _______ _______ _______ _____ _____    ______ ____
ROOT
ATOM      1  C   UNL     1       9.320  12.409  18.234  0.00  0.00    +0.000 C 
ATOM      2  O   UNL     1       8.297  12.688  17.624  0.00  0.00    +0.000 OA
ATOM      3  N   UNL     1       9.718  11.192  18.718  0.00  0.00    +0.000 N 
ATOM      4  C   UNL     1       9.007  10.051  18.469  0.00  0.00    +0.000 A 
ATOM      5  N   UNL     1       8.034   9.894  17.605  0.00  0.00    +0.000 NA
ATOM      6  C   UNL     1       7.643   8.592  17.711  0.00  0.00    +0.000 A 
ATOM      7  C   UNL     1       6.662   7.911  16.987  0.00  0.00    +0.000 A 
ATOM      8  C   UNL     1       6.388   6.579  17.310  0.00  0.00    +0.000 A 
ATOM      9  C   UNL     1       7.132   5.929  18.310  0.00  0.00    +0.000 A 
ATOM     10  C   UNL     1       8.149   6.590  19.021  0.00  0.00    +0.000 A 
ATOM     11  C   UNL     1       8.372   7.927  18.687  0.00  0.00    +0.000 A 
ATOM     12  N   UNL     1       9.265   8.873  19.128  0.00  0.00    +0.000 N 
ATOM     13  H   UNL     1      10.541  11.188  19.299  0.00  0.00    +0.000 HD
ATOM     14  H   UNL     1       9.964   8.737  19.841  0.00  0.00    +0.000 HD
ENDROOT
BRANCH   1  16
ATOM     15  C   UNL     1      10.981  13.876  17.496  0.00  0.00    +0.000 C 
ATOM     16  O   UNL     1      10.249  13.334  18.600  0.00  0.00    +0.000 OA
ENDBRANCH   1  16
BRANCH   8  17
ATOM     17  S   UNL     1       5.147   5.700  16.339  0.00  0.00    +0.000 S 
ATOM     18  O   UNL     1       5.779   4.308  15.978  0.00  0.00    +0.000 OA
BRANCH  17  19
ATOM     19  C   UNL     1       3.868   5.448  17.494  0.00  0.00    +0.000 A 
ATOM     20  C   UNL     1       2.995   6.411  17.980  0.00  0.00    +0.000 A 
ATOM     21  C   UNL     1       2.835   7.873  17.770  0.00  0.00    +0.000 C 
ATOM     22  N   UNL     1       2.106   5.764  18.806  0.00  0.00    +0.000 N 
ATOM     23  C   UNL     1       2.361   4.416  18.845  0.00  0.00    +0.000 A 
ATOM     24  C   UNL     1       1.686   3.403  19.541  0.00  0.00    +0.000 A 
ATOM     25  C   UNL     1       2.157   2.098  19.401  0.00  0.00    +0.000 A 
ATOM     26  C   UNL     1       3.251   1.832  18.591  0.00  0.00    +0.000 A 
ATOM     27  F   UNL     1       3.684   0.569  18.475  0.00  0.00    +0.000 F 
ATOM     28  C   UNL     1       3.911   2.844  17.896  0.00  0.00    +0.000 A 
ATOM     29  C   UNL     1       3.466   4.179  18.022  0.00  0.00    +0.000 A 
ATOM     30  H   UNL     1       1.345   6.211  19.298  0.00  0.00    +0.000 HD
ENDBRANCH  17  19
ENDBRANCH   8  17
TORSDOF 3
ENDMDL
MODEL 9
REMARK VINA RESULT:      -8.1      1.219      1.382
REMARK  Name = 
REMARK  5 active torsions:
REMARK  status: ('A' for Active; 'I' for Inactive)
REMARK    1  A    between atoms: C_1  and  O_2
REMARK    2  A    between atoms: O_2  and  C_3
REMARK    3  A    between atoms: C_10  and  S_11
REMARK    4  A    between atoms: S_11  and  C_13
REMARK    5  A    between atoms: C_14  and  C_15
REMARK                            x       y       z     vdW  Elec       q    Type
REMARK                         _______ _______ _______ _____ _____    ______ ____
ROOT
ATOM      1  C   UNL     1      -0.489  10.628  23.016  0.00  0.00    +0.000 C 
ATOM      2  O   UNL     1      -0.073   9.918  23.921  0.00  0.00    +0.000 OA
ATOM      3  N   UNL     1      -0.260  10.518  21.672  0.00  0.00    +0.000 N 
ATOM      4  C   UNL     1       0.432   9.463  21.144  0.00  0.00    +0.000 A 
ATOM      5  N   UNL     1       0.767   8.350  21.750  0.00  0.00    +0.000 NA
ATOM      6  C   UNL     1       1.437   7.605  20.824  0.00  0.00    +0.000 A 
ATOM      7  C   UNL     1       1.976   6.324  20.956  0.00  0.00    +0.000 A 
ATOM      8  C   UNL     1       2.679   5.774  19.881  0.00  0.00    +0.000 A 
ATOM      9  C   UNL     1       2.787   6.484  18.673  0.00  0.00    +0.000 A 
ATOM     10  C   UNL     1       2.217   7.759  18.512  0.00  0.00    +0.000 A 
ATOM     11  C   UNL     1       1.547   8.283  19.618  0.00  0.00    +0.000 A 
ATOM     12  N   UNL     1       0.860   9.453  19.838  0.00  0.00    +0.000 N 
ATOM     13  H   UNL     1      -0.596  11.273  21.096  0.00  0.00    +0.000 HD
ATOM     14  H   UNL     1       0.727  10.193  19.168  0.00  0.00    +0.000 HD
ENDROOT
BRANCH   1  16
ATOM     15  C   UNL     1      -1.723  12.345  22.020  0.00  0.00    +0.000 C 
ATOM     16  O   UNL     1      -1.242  11.743  23.227  0.00  0.00    +0.000 OA
ENDBRANCH   1  16
BRANCH   8  17
ATOM     17  S   UNL     1       3.336   4.102  20.052  0.00  0.00    +0.000 S 
ATOM     18  O   UNL     1       2.094   3.140  20.026  0.00  0.00    +0.000 OA
BRANCH  17  19
ATOM     19  C   UNL     1       4.233   3.892  18.574  0.00  0.00    +0.000 A 
ATOM     20  C   UNL     1       3.877   3.086  17.502  0.00  0.00    +0.000 A 
ATOM     21  C   UNL     1       2.747   2.163  17.222  0.00  0.00    +0.000 C 
ATOM     22  N   UNL     1       4.826   3.279  16.525  0.00  0.00    +0.000 N 
ATOM     23  C   UNL     1       5.763   4.200  16.923  0.00  0.00    +0.000 A 
ATOM     24  C   UNL     1       6.876   4.693  16.227  0.00  0.00    +0.000 A 
ATOM     25  C   UNL     1       7.673   5.639  16.871  0.00  0.00    +0.000 A 
ATOM     26  C   UNL     1       7.354   6.069  18.151  0.00  0.00    +0.000 A 
ATOM     27  F   UNL     1       8.137   6.978  18.748  0.00  0.00    +0.000 F 
ATOM     28  C   UNL     1       6.240   5.579  18.832  0.00  0.00    +0.000 A 
ATOM     29  C   UNL     1       5.416   4.613  18.213  0.00  0.00    +0.000 A 
ATOM     30  H   UNL     1       4.823   2.829  15.620  0.00  0.00    +0.000 HD
ENDBRANCH  17  19
ENDBRANCH   8  17
TORSDOF 3
ENDMDL
