MODEL 1
REMARK VINA RESULT:      -7.7      0.000      0.000
REMARK  Name = 
REMARK  5 active torsions:
REMARK  status: ('A' for Active; 'I' for Inactive)
REMARK    1  A    between atoms: C_1  and  C_2
REMARK    2  A    between atoms: C_5  and  C_6
REMARK    3  A    between atoms: C_6  and  N_7
REMARK    4  A    between atoms: N_7  and  C_8
REMARK    5  A    between atoms: N_11  and  C_12
REMARK                            x       y       z     vdW  Elec       q    Type
REMARK                         _______ _______ _______ _____ _____    ______ ____
ROOT
ATOM      1  N   UNL     1       6.736   6.157  18.457  0.00  0.00    +0.000 N 
ATOM      2  C   UNL     1       8.177   5.986  18.599  0.00  0.00    +0.000 C 
ATOM      3  C   UNL     1       5.928   5.412  19.301  0.00  0.00    +0.000 C 
ATOM      4  O   UNL     1       6.368   4.707  20.201  0.00  0.00    +0.000 OA
ATOM      5  N   UNL     1       4.586   5.509  19.058  0.00  0.00    +0.000 N 
ATOM      6  H   UNL     1       4.274   6.290  18.512  0.00  0.00    +0.000 HD
ENDROOT
BRANCH   5   7
ATOM      7  C   UNL     1       3.548   4.830  19.831  0.00  0.00    +0.000 C 
ATOM      8  C   UNL     1       2.169   5.538  19.729  0.00  0.00    +0.000 C 
ATOM      9  C   UNL     1       1.679   5.635  18.263  0.00  0.00    +0.000 C 
ATOM     10  C   UNL     1       1.617   4.282  17.518  0.00  0.00    +0.000 C 
ATOM     11  C   UNL     1       2.589   3.323  18.092  0.00  0.00    +0.000 A 
ATOM     12  O   UNL     1       2.693   2.072  17.589  0.00  0.00    +0.000 OA
ATOM     13  C   UNL     1       3.559   1.411  18.407  0.00  0.00    +0.000 A 
ATOM     14  C   UNL     1       3.990   2.229  19.433  0.00  0.00    +0.000 A 
ATOM     15  C   UNL     1       3.417   3.496  19.180  0.00  0.00    +0.000 A 
ENDBRANCH   5   7
BRANCH   1  16
ATOM     16  C   UNL     1       6.304   6.821  17.214  0.00  0.00    +0.000 C 
BRANCH  16  21
ATOM     17  C   UNL     1       6.260   3.182  12.708  0.00  0.00    +0.000 C 
ATOM     18  C   UNL     1       6.199   4.148  13.854  0.00  0.00    +0.000 A 
ATOM     19  C   UNL     1       5.025   4.372  14.568  0.00  0.00    +0.000 A 
ATOM     20  C   UNL     1       5.017   5.267  15.642  0.00  0.00    +0.000 A 
ATOM     21  C   UNL     1       6.192   5.934  15.984  0.00  0.00    +0.000 A 
ATOM     22  N   UNL     1       7.342   5.737  15.287  0.00  0.00    +0.000 NA
ATOM     23  C   UNL     1       7.320   4.867  14.245  0.00  0.00    +0.000 A 
ENDBRANCH  16  21
ENDBRANCH   1  16
TORSDOF 3
ENDMDL
MODEL 2
REMARK VINA RESULT:      -7.4      2.212      5.942
REMARK  Name = 
REMARK  5 active torsions:
REMARK  status: ('A' for Active; 'I' for Inactive)
REMARK    1  A    between atoms: C_1  and  C_2
REMARK    2  A    between atoms: C_5  and  C_6
REMARK    3  A    between atoms: C_6  and  N_7
REMARK    4  A    between atoms: N_7  and  C_8
REMARK    5  A    between atoms: N_11  and  C_12
REMARK                            x       y       z     vdW  Elec       q    Type
REMARK                         _______ _______ _______ _____ _____    ______ ____
ROOT
ATOM      1  N   UNL     1       2.799   3.846  19.338  0.00  0.00    +0.000 N 
ATOM      2  C   UNL     1       1.753   2.855  19.557  0.00  0.00    +0.000 C 
ATOM      3  C   UNL     1       3.872   3.465  18.547  0.00  0.00    +0.000 C 
ATOM      4  O   UNL     1       3.925   2.390  17.963  0.00  0.00    +0.000 OA
ATOM      5  N   UNL     1       4.887   4.377  18.463  0.00  0.00    +0.000 N 
ATOM      6  H   UNL     1       4.677   5.323  18.722  0.00  0.00    +0.000 HD
ENDROOT
BRANCH   5   7
ATOM      7  C   UNL     1       6.104   4.199  17.673  0.00  0.00    +0.000 C 
ATOM      8  C   UNL     1       5.806   3.933  16.172  0.00  0.00    +0.000 C 
ATOM      9  C   UNL     1       4.992   5.084  15.533  0.00  0.00    +0.000 C 
ATOM     10  C   UNL     1       5.631   6.483  15.688  0.00  0.00    +0.000 C 
ATOM     11  C   UNL     1       6.492   6.535  16.892  0.00  0.00    +0.000 A 
ATOM     12  O   UNL     1       7.154   7.671  17.210  0.00  0.00    +0.000 OA
ATOM     13  C   UNL     1       7.947   7.356  18.272  0.00  0.00    +0.000 A 
ATOM     14  C   UNL     1       7.805   6.027  18.617  0.00  0.00    +0.000 A 
ATOM     15  C   UNL     1       6.799   5.515  17.766  0.00  0.00    +0.000 A 
ENDBRANCH   5   7
BRANCH   1  16
ATOM     16  C   UNL     1       2.774   4.998  20.258  0.00  0.00    +0.000 C 
BRANCH  16  21
ATOM     17  C   UNL     1       1.391  10.281  18.331  0.00  0.00    +0.000 C 
ATOM     18  C   UNL     1       1.728   8.884  18.760  0.00  0.00    +0.000 A 
ATOM     19  C   UNL     1       2.298   7.961  17.887  0.00  0.00    +0.000 A 
ATOM     20  C   UNL     1       2.613   6.674  18.334  0.00  0.00    +0.000 A 
ATOM     21  C   UNL     1       2.345   6.327  19.657  0.00  0.00    +0.000 A 
ATOM     22  N   UNL     1       1.775   7.212  20.517  0.00  0.00    +0.000 NA
ATOM     23  C   UNL     1       1.474   8.452  20.054  0.00  0.00    +0.000 A 
ENDBRANCH  16  21
ENDBRANCH   1  16
TORSDOF 3
ENDMDL
MODEL 3
REMARK VINA RESULT:      -7.2      2.094      5.832
REMARK  Name = 
REMARK  5 active torsions:
REMARK  status: ('A' for Active; 'I' for Inactive)
REMARK    1  A    between atoms: C_1  and  C_2
REMARK    2  A    between atoms: C_5  and  C_6
REMARK    3  A    between atoms: C_6  and  N_7
REMARK    4  A    between atoms: N_7  and  C_8
REMARK    5  A    between atoms: N_11  and  C_12
REMARK                            x       y       z     vdW  Elec       q    Type
REMARK                         _______ _______ _______ _____ _____    ______ ____
ROOT
ATOM      1  N   UNL     1       2.695   3.753  19.372  0.00  0.00    +0.000 N 
ATOM      2  C   UNL     1       1.602   2.800  19.523  0.00  0.00    +0.000 C 
ATOM      3  C   UNL     1       3.744   3.383  18.544  0.00  0.00    +0.000 C 
ATOM      4  O   UNL     1       3.741   2.354  17.880  0.00  0.00    +0.000 OA
ATOM      5  N   UNL     1       4.802   4.248  18.522  0.00  0.00    +0.000 N 
ATOM      6  H   UNL     1       4.640   5.181  18.854  0.00  0.00    +0.000 HD
ENDROOT
BRANCH   5   7
ATOM      7  C   UNL     1       6.004   4.073  17.710  0.00  0.00    +0.000 C 
ATOM      8  C   UNL     1       5.691   3.985  16.191  0.00  0.00    +0.000 C 
ATOM      9  C   UNL     1       4.956   5.249  15.681  0.00  0.00    +0.000 C 
ATOM     10  C   UNL     1       5.687   6.578  15.977  0.00  0.00    +0.000 C 
ATOM     11  C   UNL     1       6.549   6.447  17.174  0.00  0.00    +0.000 A 
ATOM     12  O   UNL     1       7.285   7.496  17.605  0.00  0.00    +0.000 OA
ATOM     13  C   UNL     1       8.055   7.019  18.622  0.00  0.00    +0.000 A 
ATOM     14  C   UNL     1       7.824   5.674  18.828  0.00  0.00    +0.000 A 
ATOM     15  C   UNL     1       6.786   5.322  17.935  0.00  0.00    +0.000 A 
ENDBRANCH   5   7
BRANCH   1  16
ATOM     16  C   UNL     1       2.731   4.831  20.378  0.00  0.00    +0.000 C 
BRANCH  16  21
ATOM     17  C   UNL     1       1.515   9.981  18.024  0.00  0.00    +0.000 C 
ATOM     18  C   UNL     1       1.841   8.683  18.703  0.00  0.00    +0.000 A 
ATOM     19  C   UNL     1       1.435   8.410  20.006  0.00  0.00    +0.000 A 
ATOM     20  C   UNL     1       1.745   7.180  20.594  0.00  0.00    +0.000 A 
ATOM     21  C   UNL     1       2.466   6.237  19.864  0.00  0.00    +0.000 A 
ATOM     22  N   UNL     1       2.883   6.495  18.597  0.00  0.00    +0.000 NA
ATOM     23  C   UNL     1       2.573   7.700  18.053  0.00  0.00    +0.000 A 
ENDBRANCH  16  21
ENDBRANCH   1  16
TORSDOF 3
ENDMDL
MODEL 4
REMARK VINA RESULT:      -7.1      0.617      1.031
REMARK  Name = 
REMARK  5 active torsions:
REMARK  status: ('A' for Active; 'I' for Inactive)
REMARK    1  A    between atoms: C_1  and  C_2
REMARK    2  A    between atoms: C_5  and  C_6
REMARK    3  A    between atoms: C_6  and  N_7
REMARK    4  A    between atoms: N_7  and  C_8
REMARK    5  A    between atoms: N_11  and  C_12
REMARK                            x       y       z     vdW  Elec       q    Type
REMARK                         _______ _______ _______ _____ _____    ______ ____
ROOT
ATOM      1  N   UNL     1       6.717   6.137  18.359  0.00  0.00    +0.000 N 
ATOM      2  C   UNL     1       8.163   6.058  18.535  0.00  0.00    +0.000 C 
ATOM      3  C   UNL     1       5.935   5.417  19.248  0.00  0.00    +0.000 C 
ATOM      4  O   UNL     1       6.396   4.811  20.207  0.00  0.00    +0.000 OA
ATOM      5  N   UNL     1       4.594   5.421  18.979  0.00  0.00    +0.000 N 
ATOM      6  H   UNL     1       4.250   6.138  18.368  0.00  0.00    +0.000 HD
ENDROOT
BRANCH   5   7
ATOM      7  C   UNL     1       3.580   4.749  19.790  0.00  0.00    +0.000 C 
ATOM      8  C   UNL     1       2.192   5.438  19.699  0.00  0.00    +0.000 C 
ATOM      9  C   UNL     1       1.671   5.494  18.242  0.00  0.00    +0.000 C 
ATOM     10  C   UNL     1       1.610   4.123  17.530  0.00  0.00    +0.000 C 
ATOM     11  C   UNL     1       2.605   3.189  18.107  0.00  0.00    +0.000 A 
ATOM     12  O   UNL     1       2.714   1.928  17.631  0.00  0.00    +0.000 OA
ATOM     13  C   UNL     1       3.604   1.297  18.447  0.00  0.00    +0.000 A 
ATOM     14  C   UNL     1       4.046   2.143  19.443  0.00  0.00    +0.000 A 
ATOM     15  C   UNL     1       3.452   3.398  19.173  0.00  0.00    +0.000 A 
ENDBRANCH   5   7
BRANCH   1  16
ATOM     16  C   UNL     1       6.273   6.676  17.061  0.00  0.00    +0.000 C 
BRANCH  16  21
ATOM     17  C   UNL     1       5.804   3.150  12.490  0.00  0.00    +0.000 C 
ATOM     18  C   UNL     1       6.002   4.044  13.678  0.00  0.00    +0.000 A 
ATOM     19  C   UNL     1       7.171   4.776  13.864  0.00  0.00    +0.000 A 
ATOM     20  C   UNL     1       7.305   5.612  14.978  0.00  0.00    +0.000 A 
ATOM     21  C   UNL     1       6.262   5.697  15.897  0.00  0.00    +0.000 A 
ATOM     22  N   UNL     1       5.121   4.976  15.737  0.00  0.00    +0.000 NA
ATOM     23  C   UNL     1       5.019   4.169  14.651  0.00  0.00    +0.000 A 
ENDBRANCH  16  21
ENDBRANCH   1  16
TORSDOF 3
ENDMDL
MODEL 5
REMARK VINA RESULT:      -7.0      1.736      2.473
REMARK  Name = 
REMARK  5 active torsions:
REMARK  status: ('A' for Active; 'I' for Inactive)
REMARK    1  A    between atoms: C_1  and  C_2
REMARK    2  A    between atoms: C_5  and  C_6
REMARK    3  A    between atoms: C_6  and  N_7
REMARK    4  A    between atoms: N_7  and  C_8
REMARK    5  A    between atoms: N_11  and  C_12
REMARK                            x       y       z     vdW  Elec       q    Type
REMARK                         _______ _______ _______ _____ _____    ______ ____
ROOT
ATOM      1  N   UNL     1       5.471   6.428  17.395  0.00  0.00    +0.000 N 
ATOM      2  C   UNL     1       6.187   7.680  17.606  0.00  0.00    +0.000 C 
ATOM      3  C   UNL     1       4.161   6.367  17.846  0.00  0.00    +0.000 C 
ATOM      4  O   UNL     1       3.570   7.332  18.315  0.00  0.00    +0.000 OA
ATOM      5  N   UNL     1       3.564   5.142  17.738  0.00  0.00    +0.000 N 
ATOM      6  H   UNL     1       3.982   4.481  17.110  0.00  0.00    +0.000 HD
ENDROOT
BRANCH   5   7
ATOM      7  C   UNL     1       2.187   4.850  18.129  0.00  0.00    +0.000 C 
ATOM      8  C   UNL     1       1.561   3.700  17.293  0.00  0.00    +0.000 C 
ATOM      9  C   UNL     1       2.375   2.389  17.416  0.00  0.00    +0.000 C 
ATOM     10  C   UNL     1       2.595   1.906  18.868  0.00  0.00    +0.000 C 
ATOM     11  C   UNL     1       2.558   3.048  19.812  0.00  0.00    +0.000 A 
ATOM     12  O   UNL     1       2.723   2.843  21.138  0.00  0.00    +0.000 OA
ATOM     13  C   UNL     1       2.503   4.049  21.731  0.00  0.00    +0.000 A 
ATOM     14  C   UNL     1       2.185   5.011  20.793  0.00  0.00    +0.000 A 
ATOM     15  C   UNL     1       2.297   4.373  19.537  0.00  0.00    +0.000 A 
ENDBRANCH   5   7
BRANCH   1  16
ATOM     16  C   UNL     1       6.320   5.270  17.056  0.00  0.00    +0.000 C 
BRANCH  16  21
ATOM     17  C   UNL     1       7.013   3.668  11.533  0.00  0.00    +0.000 C 
ATOM     18  C   UNL     1       6.756   4.087  12.951  0.00  0.00    +0.000 A 
ATOM     19  C   UNL     1       5.638   3.652  13.658  0.00  0.00    +0.000 A 
ATOM     20  C   UNL     1       5.447   4.053  14.983  0.00  0.00    +0.000 A 
ATOM     21  C   UNL     1       6.382   4.894  15.584  0.00  0.00    +0.000 A 
ATOM     22  N   UNL     1       7.470   5.339  14.902  0.00  0.00    +0.000 NA
ATOM     23  C   UNL     1       7.628   4.939  13.614  0.00  0.00    +0.000 A 
ENDBRANCH  16  21
ENDBRANCH   1  16
TORSDOF 3
ENDMDL
MODEL 6
REMARK VINA RESULT:      -6.6      2.735      5.085
REMARK  Name = 
REMARK  5 active torsions:
REMARK  status: ('A' for Active; 'I' for Inactive)
REMARK    1  A    between atoms: C_1  and  C_2
REMARK    2  A    between atoms: C_5  and  C_6
REMARK    3  A    between atoms: C_6  and  N_7
REMARK    4  A    between atoms: N_7  and  C_8
REMARK    5  A    between atoms: N_11  and  C_12
REMARK                            x       y       z     vdW  Elec       q    Type
REMARK                         _______ _______ _______ _____ _____    ______ ____
ROOT
ATOM      1  N   UNL     1       4.450   6.750  18.041  0.00  0.00    +0.000 N 
ATOM      2  C   UNL     1       5.648   7.217  17.353  0.00  0.00    +0.000 C 
ATOM      3  C   UNL     1       4.612   5.729  18.963  0.00  0.00    +0.000 C 
ATOM      4  O   UNL     1       5.706   5.282  19.283  0.00  0.00    +0.000 OA
ATOM      5  N   UNL     1       3.453   5.238  19.498  0.00  0.00    +0.000 N 
ATOM      6  H   UNL     1       2.632   5.809  19.417  0.00  0.00    +0.000 HD
ENDROOT
BRANCH   5   7
ATOM      7  C   UNL     1       3.382   4.178  20.502  0.00  0.00    +0.000 C 
ATOM      8  C   UNL     1       2.062   4.218  21.320  0.00  0.00    +0.000 C 
ATOM      9  C   UNL     1       0.816   4.091  20.409  0.00  0.00    +0.000 C 
ATOM     10  C   UNL     1       0.816   2.844  19.496  0.00  0.00    +0.000 C 
ATOM     11  C   UNL     1       2.200   2.401  19.212  0.00  0.00    +0.000 A 
ATOM     12  O   UNL     1       2.425   1.318  18.434  0.00  0.00    +0.000 OA
ATOM     13  C   UNL     1       3.769   1.099  18.480  0.00  0.00    +0.000 A 
ATOM     14  C   UNL     1       4.393   2.024  19.292  0.00  0.00    +0.000 A 
ATOM     15  C   UNL     1       3.379   2.918  19.706  0.00  0.00    +0.000 A 
ENDBRANCH   5   7
BRANCH   1  16
ATOM     16  C   UNL     1       3.174   7.164  17.427  0.00  0.00    +0.000 C 
BRANCH  16  21
ATOM     17  C   UNL     1       0.300  10.854  20.843  0.00  0.00    +0.000 C 
ATOM     18  C   UNL     1       1.001   9.924  19.898  0.00  0.00    +0.000 A 
ATOM     19  C   UNL     1       1.298  10.289  18.587  0.00  0.00    +0.000 A 
ATOM     20  C   UNL     1       1.969   9.397  17.746  0.00  0.00    +0.000 A 
ATOM     21  C   UNL     1       2.331   8.141  18.231  0.00  0.00    +0.000 A 
ATOM     22  N   UNL     1       2.034   7.765  19.502  0.00  0.00    +0.000 NA
ATOM     23  C   UNL     1       1.376   8.648  20.296  0.00  0.00    +0.000 A 
ENDBRANCH  16  21
ENDBRANCH   1  16
TORSDOF 3
ENDMDL
MODEL 7
REMARK VINA RESULT:      -6.6      1.795      2.628
REMARK  Name = 
REMARK  5 active torsions:
REMARK  status: ('A' for Active; 'I' for Inactive)
REMARK    1  A    between atoms: C_1  and  C_2
REMARK    2  A    between atoms: C_5  and  C_6
REMARK    3  A    between atoms: C_6  and  N_7
REMARK    4  A    between atoms: N_7  and  C_8
REMARK    5  A    between atoms: N_11  and  C_12
REMARK                            x       y       z     vdW  Elec       q    Type
REMARK                         _______ _______ _______ _____ _____    ______ ____
ROOT
ATOM      1  N   UNL     1       5.608   6.466  17.487  0.00  0.00    +0.000 N 
ATOM      2  C   UNL     1       6.297   7.738  17.674  0.00  0.00    +0.000 C 
ATOM      3  C   UNL     1       4.273   6.413  17.857  0.00  0.00    +0.000 C 
ATOM      4  O   UNL     1       3.643   7.393  18.233  0.00  0.00    +0.000 OA
ATOM      5  N   UNL     1       3.697   5.175  17.779  0.00  0.00    +0.000 N 
ATOM      6  H   UNL     1       4.161   4.487  17.216  0.00  0.00    +0.000 HD
ENDROOT
BRANCH   5   7
ATOM      7  C   UNL     1       2.300   4.886  18.098  0.00  0.00    +0.000 C 
ATOM      8  C   UNL     1       1.715   3.740  17.228  0.00  0.00    +0.000 C 
ATOM      9  C   UNL     1       2.518   2.427  17.389  0.00  0.00    +0.000 C 
ATOM     10  C   UNL     1       2.662   1.940  18.850  0.00  0.00    +0.000 C 
ATOM     11  C   UNL     1       2.579   3.079  19.793  0.00  0.00    +0.000 A 
ATOM     12  O   UNL     1       2.675   2.870  21.126  0.00  0.00    +0.000 OA
ATOM     13  C   UNL     1       2.428   4.076  21.710  0.00  0.00    +0.000 A 
ATOM     14  C   UNL     1       2.161   5.040  20.759  0.00  0.00    +0.000 A 
ATOM     15  C   UNL     1       2.337   4.405  19.508  0.00  0.00    +0.000 A 
ENDBRANCH   5   7
BRANCH   1  16
ATOM     16  C   UNL     1       6.489   5.304  17.267  0.00  0.00    +0.000 C 
BRANCH  16  21
ATOM     17  C   UNL     1       6.033   3.229  11.878  0.00  0.00    +0.000 C 
ATOM     18  C   UNL     1       6.229   3.764  13.266  0.00  0.00    +0.000 A 
ATOM     19  C   UNL     1       7.256   4.651  13.577  0.00  0.00    +0.000 A 
ATOM     20  C   UNL     1       7.392   5.139  14.880  0.00  0.00    +0.000 A 
ATOM     21  C   UNL     1       6.493   4.724  15.861  0.00  0.00    +0.000 A 
ATOM     22  N   UNL     1       5.495   3.846  15.577  0.00  0.00    +0.000 NA
ATOM     23  C   UNL     1       5.391   3.383  14.305  0.00  0.00    +0.000 A 
ENDBRANCH  16  21
ENDBRANCH   1  16
TORSDOF 3
ENDMDL
MODEL 8
REMARK VINA RESULT:      -6.6      2.115      5.516
REMARK  Name = 
REMARK  5 active torsions:
REMARK  status: ('A' for Active; 'I' for Inactive)
REMARK    1  A    between atoms: C_1  and  C_2
REMARK    2  A    between atoms: C_5  and  C_6
REMARK    3  A    between atoms: C_6  and  N_7
REMARK    4  A    between atoms: N_7  and  C_8
REMARK    5  A    between atoms: N_11  and  C_12
REMARK                            x       y       z     vdW  Elec       q    Type
REMARK                         _______ _______ _______ _____ _____    ______ ____
ROOT
ATOM      1  N   UNL     1       3.220   3.393  19.612  0.00  0.00    +0.000 N 
ATOM      2  C   UNL     1       2.989   3.048  21.009  0.00  0.00    +0.000 C 
ATOM      3  C   UNL     1       4.527   3.325  19.155  0.00  0.00    +0.000 C 
ATOM      4  O   UNL     1       5.454   2.907  19.837  0.00  0.00    +0.000 OA
ATOM      5  N   UNL     1       4.721   3.769  17.876  0.00  0.00    +0.000 N 
ATOM      6  H   UNL     1       3.913   3.835  17.286  0.00  0.00    +0.000 HD
ENDROOT
BRANCH   5   7
ATOM      7  C   UNL     1       6.007   3.772  17.182  0.00  0.00    +0.000 C 
ATOM      8  C   UNL     1       5.856   3.586  15.647  0.00  0.00    +0.000 C 
ATOM      9  C   UNL     1       4.976   4.692  15.016  0.00  0.00    +0.000 C 
ATOM     10  C   UNL     1       5.448   6.133  15.313  0.00  0.00    +0.000 C 
ATOM     11  C   UNL     1       6.203   6.186  16.586  0.00  0.00    +0.000 A 
ATOM     12  O   UNL     1       6.714   7.357  17.030  0.00  0.00    +0.000 OA
ATOM     13  C   UNL     1       7.452   7.047  18.133  0.00  0.00    +0.000 A 
ATOM     14  C   UNL     1       7.426   5.690  18.380  0.00  0.00    +0.000 A 
ATOM     15  C   UNL     1       6.549   5.141  17.416  0.00  0.00    +0.000 A 
ENDBRANCH   5   7
BRANCH   1  16
ATOM     16  C   UNL     1       2.112   4.106  18.950  0.00  0.00    +0.000 C 
BRANCH  16  21
ATOM     17  C   UNL     1       2.320   9.852  18.250  0.00  0.00    +0.000 C 
ATOM     18  C   UNL     1       2.291   8.374  18.505  0.00  0.00    +0.000 A 
ATOM     19  C   UNL     1       1.907   7.845  19.734  0.00  0.00    +0.000 A 
ATOM     20  C   UNL     1       1.878   6.459  19.923  0.00  0.00    +0.000 A 
ATOM     21  C   UNL     1       2.241   5.619  18.872  0.00  0.00    +0.000 A 
ATOM     22  N   UNL     1       2.633   6.121  17.672  0.00  0.00    +0.000 NA
ATOM     23  C   UNL     1       2.658   7.470  17.518  0.00  0.00    +0.000 A 
ENDBRANCH  16  21
ENDBRANCH   1  16
TORSDOF 3
ENDMDL
MODEL 9
REMARK VINA RESULT:      -6.6      1.866      2.929
REMARK  Name = 
REMARK  5 active torsions:
REMARK  status: ('A' for Active; 'I' for Inactive)
REMARK    1  A    between atoms: C_1  and  C_2
REMARK    2  A    between atoms: C_5  and  C_6
REMARK    3  A    between atoms: C_6  and  N_7
REMARK    4  A    between atoms: N_7  and  C_8
REMARK    5  A    between atoms: N_11  and  C_12
REMARK                            x       y       z     vdW  Elec       q    Type
REMARK                         _______ _______ _______ _____ _____    ______ ____
ROOT
ATOM      1  N   UNL     1       4.298   6.429  17.341  0.00  0.00    +0.000 N 
ATOM      2  C   UNL     1       4.299   7.883  17.442  0.00  0.00    +0.000 C 
ATOM      3  C   UNL     1       3.156   5.769  17.767  0.00  0.00    +0.000 C 
ATOM      4  O   UNL     1       2.141   6.351  18.126  0.00  0.00    +0.000 OA
ATOM      5  N   UNL     1       3.239   4.404  17.769  0.00  0.00    +0.000 N 
ATOM      6  H   UNL     1       3.966   3.987  17.218  0.00  0.00    +0.000 HD
ENDROOT
BRANCH   5   7
ATOM      7  C   UNL     1       2.154   3.504  18.158  0.00  0.00    +0.000 C 
ATOM      8  C   UNL     1       2.339   2.069  17.595  0.00  0.00    +0.000 C 
ATOM      9  C   UNL     1       3.671   1.433  18.063  0.00  0.00    +0.000 C 
ATOM     10  C   UNL     1       3.866   1.411  19.596  0.00  0.00    +0.000 C 
ATOM     11  C   UNL     1       3.105   2.509  20.237  0.00  0.00    +0.000 A 
ATOM     12  O   UNL     1       3.132   2.666  21.580  0.00  0.00    +0.000 OA
ATOM     13  C   UNL     1       2.241   3.658  21.857  0.00  0.00    +0.000 A 
ATOM     14  C   UNL     1       1.639   4.118  20.704  0.00  0.00    +0.000 A 
ATOM     15  C   UNL     1       2.260   3.421  19.642  0.00  0.00    +0.000 A 
ENDBRANCH   5   7
BRANCH   1  16
ATOM     16  C   UNL     1       5.623   5.814  17.136  0.00  0.00    +0.000 C 
BRANCH  16  21
ATOM     17  C   UNL     1       7.160   3.693  11.970  0.00  0.00    +0.000 C 
ATOM     18  C   UNL     1       6.688   4.247  13.282  0.00  0.00    +0.000 A 
ATOM     19  C   UNL     1       5.452   3.907  13.825  0.00  0.00    +0.000 A 
ATOM     20  C   UNL     1       5.059   4.432  15.059  0.00  0.00    +0.000 A 
ATOM     21  C   UNL     1       5.914   5.302  15.734  0.00  0.00    +0.000 A 
ATOM     22  N   UNL     1       7.117   5.657  15.209  0.00  0.00    +0.000 NA
ATOM     23  C   UNL     1       7.470   5.136  14.006  0.00  0.00    +0.000 A 
ENDBRANCH  16  21
ENDBRANCH   1  16
TORSDOF 3
ENDMDL
