MODEL 1
REMARK VINA RESULT:      -6.2      0.000      0.000
REMARK  Name = 
REMARK  7 active torsions:
REMARK  status: ('A' for Active; 'I' for Inactive)
REMARK    1  A    between atoms: C_1  and  O_2
REMARK    2  A    between atoms: O_2  and  C_3
REMARK    3  A    between atoms: C_6  and  C_7
REMARK    4  A    between atoms: N_9  and  C_10
REMARK    5  A    between atoms: N_9  and  C_11
REMARK    6  A    between atoms: C_11  and  C_12
REMARK    7  A    between atoms: C_12  and  O_14
REMARK                            x       y       z     vdW  Elec       q    Type
REMARK                         _______ _______ _______ _____ _____    ______ ____
ROOT
ATOM      1  C   UNL     1       3.846   4.410  19.103  0.00  0.00    +0.000 C 
ATOM      2  O   UNL     1       3.620   5.319  19.906  0.00  0.00    +0.000 OA
ATOM      3  N   UNL     1       3.130   3.215  19.192  0.00  0.00    +0.000 N 
ATOM      4  C   UNL     1       3.469   1.930  18.579  0.00  0.00    +0.000 C 
ENDROOT
BRANCH   1   8
ATOM      5  C   UNL     1       6.812   5.046  16.014  0.00  0.00    +0.000 A 
ATOM      6  C   UNL     1       5.450   5.025  15.724  0.00  0.00    +0.000 A 
ATOM      7  C   UNL     1       4.508   4.855  16.748  0.00  0.00    +0.000 A 
ATOM      8  C   UNL     1       4.911   4.671  18.081  0.00  0.00    +0.000 A 
ATOM      9  C   UNL     1       6.282   4.604  18.345  0.00  0.00    +0.000 A 
ATOM     10  C   UNL     1       7.225   4.831  17.328  0.00  0.00    +0.000 A 
BRANCH   5  12
ATOM     11  C   UNL     1       7.127   4.794  13.678  0.00  0.00    +0.000 C 
ATOM     12  O   UNL     1       7.637   5.219  14.937  0.00  0.00    +0.000 OA
ENDBRANCH   5  12
ENDBRANCH   1   8
BRANCH   3  13
ATOM     13  C   UNL     1       1.909   3.205  20.035  0.00  0.00    +0.000 C 
BRANCH  13  14
ATOM     14  C   UNL     1       2.098   2.682  21.458  0.00  0.00    +0.000 C 
ATOM     15  O   UNL     1       3.175   2.332  21.920  0.00  0.00    +0.000 OA
BRANCH  14  16
ATOM     16  O   UNL     1       0.942   2.571  22.154  0.00  0.00    +0.000 OA
ATOM     17  H   UNL     1       1.130   2.288  23.073  0.00  0.00    +0.000 HD
ENDBRANCH  14  16
ENDBRANCH  13  14
ENDBRANCH   3  13
TORSDOF 5
ENDMDL
MODEL 2
REMARK VINA RESULT:      -6.2      1.912      2.447
REMARK  Name = 
REMARK  7 active torsions:
REMARK  status: ('A' for Active; 'I' for Inactive)
REMARK    1  A    between atoms: C_1  and  O_2
REMARK    2  A    between atoms: O_2  and  C_3
REMARK    3  A    between atoms: C_6  and  C_7
REMARK    4  A    between atoms: N_9  and  C_10
REMARK    5  A    between atoms: N_9  and  C_11
REMARK    6  A    between atoms: C_11  and  C_12
REMARK    7  A    between atoms: C_12  and  O_14
REMARK                            x       y       z     vdW  Elec       q    Type
REMARK                         _______ _______ _______ _____ _____    ______ ____
ROOT
ATOM      1  C   UNL     1       4.382   3.505  19.007  0.00  0.00    +0.000 C 
ATOM      2  O   UNL     1       4.981   2.870  19.877  0.00  0.00    +0.000 OA
ATOM      3  N   UNL     1       3.079   3.143  18.660  0.00  0.00    +0.000 N 
ATOM      4  C   UNL     1       2.340   3.531  17.458  0.00  0.00    +0.000 C 
ENDROOT
BRANCH   1   8
ATOM      5  C   UNL     1       6.702   6.740  17.307  0.00  0.00    +0.000 A 
ATOM      6  C   UNL     1       7.308   5.578  17.779  0.00  0.00    +0.000 A 
ATOM      7  C   UNL     1       6.531   4.530  18.291  0.00  0.00    +0.000 A 
ATOM      8  C   UNL     1       5.132   4.635  18.369  0.00  0.00    +0.000 A 
ATOM      9  C   UNL     1       4.545   5.841  17.975  0.00  0.00    +0.000 A 
ATOM     10  C   UNL     1       5.318   6.869  17.410  0.00  0.00    +0.000 A 
BRANCH   5  12
ATOM     11  C   UNL     1       7.988   8.679  17.764  0.00  0.00    +0.000 C 
ATOM     12  O   UNL     1       7.558   7.694  16.830  0.00  0.00    +0.000 OA
ENDBRANCH   5  12
ENDBRANCH   1   8
BRANCH   3  13
ATOM     13  C   UNL     1       2.353   2.224  19.572  0.00  0.00    +0.000 C 
BRANCH  13  14
ATOM     14  C   UNL     1       1.671   2.888  20.766  0.00  0.00    +0.000 C 
ATOM     15  O   UNL     1       2.087   2.824  21.914  0.00  0.00    +0.000 OA
BRANCH  14  16
ATOM     16  O   UNL     1       0.507   3.507  20.452  0.00  0.00    +0.000 OA
ATOM     17  H   UNL     1       0.138   3.949  21.244  0.00  0.00    +0.000 HD
ENDBRANCH  14  16
ENDBRANCH  13  14
ENDBRANCH   3  13
TORSDOF 5
ENDMDL
MODEL 3
REMARK VINA RESULT:      -6.2      1.192      1.901
REMARK  Name = 
REMARK  7 active torsions:
REMARK  status: ('A' for Active; 'I' for Inactive)
REMARK    1  A    between atoms: C_1  and  O_2
REMARK    2  A    between atoms: O_2  and  C_3
REMARK    3  A    between atoms: C_6  and  C_7
REMARK    4  A    between atoms: N_9  and  C_10
REMARK    5  A    between atoms: N_9  and  C_11
REMARK    6  A    between atoms: C_11  and  C_12
REMARK    7  A    between atoms: C_12  and  O_14
REMARK                            x       y       z     vdW  Elec       q    Type
REMARK                         _______ _______ _______ _____ _____    ______ ____
ROOT
ATOM      1  C   UNL     1       4.096   3.815  19.367  0.00  0.00    +0.000 C 
ATOM      2  O   UNL     1       4.352   2.802  20.022  0.00  0.00    +0.000 OA
ATOM      3  N   UNL     1       3.023   4.628  19.738  0.00  0.00    +0.000 N 
ATOM      4  C   UNL     1       2.360   5.649  18.927  0.00  0.00    +0.000 C 
ENDROOT
BRANCH   1   8
ATOM      5  C   UNL     1       6.687   4.784  16.036  0.00  0.00    +0.000 A 
ATOM      6  C   UNL     1       7.017   5.135  17.343  0.00  0.00    +0.000 A 
ATOM      7  C   UNL     1       6.179   4.776  18.408  0.00  0.00    +0.000 A 
ATOM      8  C   UNL     1       4.977   4.086  18.184  0.00  0.00    +0.000 A 
ATOM      9  C   UNL     1       4.614   3.819  16.861  0.00  0.00    +0.000 A 
ATOM     10  C   UNL     1       5.480   4.128  15.799  0.00  0.00    +0.000 A 
BRANCH   5  12
ATOM     11  C   UNL     1       7.240   4.873  13.732  0.00  0.00    +0.000 C 
ATOM     12  O   UNL     1       7.578   5.185  15.080  0.00  0.00    +0.000 OA
ENDBRANCH   5  12
ENDBRANCH   1   8
BRANCH   3  13
ATOM     13  C   UNL     1       2.439   4.422  21.087  0.00  0.00    +0.000 C 
BRANCH  13  14
ATOM     14  C   UNL     1       1.461   3.254  21.206  0.00  0.00    +0.000 C 
ATOM     15  O   UNL     1       1.593   2.329  21.995  0.00  0.00    +0.000 OA
BRANCH  14  16
ATOM     16  O   UNL     1       0.453   3.295  20.302  0.00  0.00    +0.000 OA
ATOM     17  H   UNL     1      -0.363   3.629  20.726  0.00  0.00    +0.000 HD
ENDBRANCH  14  16
ENDBRANCH  13  14
ENDBRANCH   3  13
TORSDOF 5
ENDMDL
MODEL 4
REMARK VINA RESULT:      -6.2      1.647      2.355
REMARK  Name = 
REMARK  7 active torsions:
REMARK  status: ('A' for Active; 'I' for Inactive)
REMARK    1  A    between atoms: C_1  and  O_2
REMARK    2  A    between atoms: O_2  and  C_3
REMARK    3  A    between atoms: C_6  and  C_7
REMARK    4  A    between atoms: N_9  and  C_10
REMARK    5  A    between atoms: N_9  and  C_11
REMARK    6  A    between atoms: C_11  and  C_12
REMARK    7  A    between atoms: C_12  and  O_14
REMARK                            x       y       z     vdW  Elec       q    Type
REMARK                         _______ _______ _______ _____ _____    ______ ____
ROOT
ATOM      1  C   UNL     1       3.789   3.222  18.223  0.00  0.00    +0.000 C 
ATOM      2  O   UNL     1       3.947   2.038  17.918  0.00  0.00    +0.000 OA
ATOM      3  N   UNL     1       2.689   3.597  18.997  0.00  0.00    +0.000 N 
ATOM      4  C   UNL     1       2.146   4.944  19.174  0.00  0.00    +0.000 C 
ENDROOT
BRANCH   1   8
ATOM      5  C   UNL     1       6.733   6.115  16.918  0.00  0.00    +0.000 A 
ATOM      6  C   UNL     1       6.685   5.668  18.236  0.00  0.00    +0.000 A 
ATOM      7  C   UNL     1       5.746   4.703  18.624  0.00  0.00    +0.000 A 
ATOM      8  C   UNL     1       4.814   4.187  17.708  0.00  0.00    +0.000 A 
ATOM      9  C   UNL     1       4.815   4.710  16.412  0.00  0.00    +0.000 A 
ATOM     10  C   UNL     1       5.792   5.635  16.008  0.00  0.00    +0.000 A 
BRANCH   5  12
ATOM     11  C   UNL     1       7.836   8.093  17.618  0.00  0.00    +0.000 C 
ATOM     12  O   UNL     1       7.690   7.056  16.654  0.00  0.00    +0.000 OA
ENDBRANCH   5  12
ENDBRANCH   1   8
BRANCH   3  13
ATOM     13  C   UNL     1       1.937   2.522  19.691  0.00  0.00    +0.000 C 
BRANCH  13  14
ATOM     14  C   UNL     1       1.984   2.570  21.218  0.00  0.00    +0.000 C 
ATOM     15  O   UNL     1       3.005   2.424  21.875  0.00  0.00    +0.000 OA
BRANCH  14  16
ATOM     16  O   UNL     1       0.768   2.720  21.794  0.00  0.00    +0.000 OA
ATOM     17  H   UNL     1       0.834   2.570  22.760  0.00  0.00    +0.000 HD
ENDBRANCH  14  16
ENDBRANCH  13  14
ENDBRANCH   3  13
TORSDOF 5
ENDMDL
MODEL 5
REMARK VINA RESULT:      -6.2      1.163      1.838
REMARK  Name = 
REMARK  7 active torsions:
REMARK  status: ('A' for Active; 'I' for Inactive)
REMARK    1  A    between atoms: C_1  and  O_2
REMARK    2  A    between atoms: O_2  and  C_3
REMARK    3  A    between atoms: C_6  and  C_7
REMARK    4  A    between atoms: N_9  and  C_10
REMARK    5  A    between atoms: N_9  and  C_11
REMARK    6  A    between atoms: C_11  and  C_12
REMARK    7  A    between atoms: C_12  and  O_14
REMARK                            x       y       z     vdW  Elec       q    Type
REMARK                         _______ _______ _______ _____ _____    ______ ____
ROOT
ATOM      1  C   UNL     1       4.000   3.898  19.033  0.00  0.00    +0.000 C 
ATOM      2  O   UNL     1       3.818   4.787  19.868  0.00  0.00    +0.000 OA
ATOM      3  N   UNL     1       3.395   2.652  19.207  0.00  0.00    +0.000 N 
ATOM      4  C   UNL     1       3.743   1.395  18.542  0.00  0.00    +0.000 C 
ENDROOT
BRANCH   1   8
ATOM      5  C   UNL     1       6.685   5.017  15.827  0.00  0.00    +0.000 A 
ATOM      6  C   UNL     1       7.129   4.898  17.142  0.00  0.00    +0.000 A 
ATOM      7  C   UNL     1       6.248   4.497  18.156  0.00  0.00    +0.000 A 
ATOM      8  C   UNL     1       4.895   4.237  17.880  0.00  0.00    +0.000 A 
ATOM      9  C   UNL     1       4.443   4.448  16.574  0.00  0.00    +0.000 A 
ATOM     10  C   UNL     1       5.338   4.794  15.548  0.00  0.00    +0.000 A 
BRANCH   5  12
ATOM     11  C   UNL     1       7.451   4.966  13.584  0.00  0.00    +0.000 C 
ATOM     12  O   UNL     1       7.632   5.413  14.924  0.00  0.00    +0.000 OA
ENDBRANCH   5  12
ENDBRANCH   1   8
BRANCH   3  13
ATOM     13  C   UNL     1       2.303   2.550  20.206  0.00  0.00    +0.000 C 
BRANCH  13  14
ATOM     14  C   UNL     1       0.910   2.917  19.696  0.00  0.00    +0.000 C 
ATOM     15  O   UNL     1       0.328   2.315  18.805  0.00  0.00    +0.000 OA
BRANCH  14  16
ATOM     16  O   UNL     1       0.395   4.028  20.275  0.00  0.00    +0.000 OA
ATOM     17  H   UNL     1      -0.433   3.806  20.748  0.00  0.00    +0.000 HD
ENDBRANCH  14  16
ENDBRANCH  13  14
ENDBRANCH   3  13
TORSDOF 5
ENDMDL
MODEL 6
REMARK VINA RESULT:      -6.2      1.694      2.317
REMARK  Name = 
REMARK  7 active torsions:
REMARK  status: ('A' for Active; 'I' for Inactive)
REMARK    1  A    between atoms: C_1  and  O_2
REMARK    2  A    between atoms: O_2  and  C_3
REMARK    3  A    between atoms: C_6  and  C_7
REMARK    4  A    between atoms: N_9  and  C_10
REMARK    5  A    between atoms: N_9  and  C_11
REMARK    6  A    between atoms: C_11  and  C_12
REMARK    7  A    between atoms: C_12  and  O_14
REMARK                            x       y       z     vdW  Elec       q    Type
REMARK                         _______ _______ _______ _____ _____    ______ ____
ROOT
ATOM      1  C   UNL     1       4.282   3.183  19.039  0.00  0.00    +0.000 C 
ATOM      2  O   UNL     1       4.798   2.350  19.788  0.00  0.00    +0.000 OA
ATOM      3  N   UNL     1       2.897   3.194  18.865  0.00  0.00    +0.000 N 
ATOM      4  C   UNL     1       2.141   3.849  17.797  0.00  0.00    +0.000 C 
ENDROOT
BRANCH   1   8
ATOM      5  C   UNL     1       6.909   6.072  17.170  0.00  0.00    +0.000 A 
ATOM      6  C   UNL     1       6.662   6.091  18.541  0.00  0.00    +0.000 A 
ATOM      7  C   UNL     1       5.837   5.121  19.127  0.00  0.00    +0.000 A 
ATOM      8  C   UNL     1       5.216   4.130  18.349  0.00  0.00    +0.000 A 
ATOM      9  C   UNL     1       5.402   4.177  16.964  0.00  0.00    +0.000 A 
ATOM     10  C   UNL     1       6.273   5.113  16.383  0.00  0.00    +0.000 A 
BRANCH   5  12
ATOM     11  C   UNL     1       7.866   8.208  17.548  0.00  0.00    +0.000 C 
ATOM     12  O   UNL     1       7.729   7.065  16.710  0.00  0.00    +0.000 OA
ENDBRANCH   5  12
ENDBRANCH   1   8
BRANCH   3  13
ATOM     13  C   UNL     1       2.076   2.421  19.831  0.00  0.00    +0.000 C 
BRANCH  13  14
ATOM     14  C   UNL     1       1.741   3.147  21.133  0.00  0.00    +0.000 C 
ATOM     15  O   UNL     1       1.684   4.363  21.243  0.00  0.00    +0.000 OA
BRANCH  14  16
ATOM     16  O   UNL     1       1.577   2.316  22.191  0.00  0.00    +0.000 OA
ATOM     17  H   UNL     1       2.394   2.295  22.729  0.00  0.00    +0.000 HD
ENDBRANCH  14  16
ENDBRANCH  13  14
ENDBRANCH   3  13
TORSDOF 5
ENDMDL
MODEL 7
REMARK VINA RESULT:      -6.2      1.866      2.458
REMARK  Name = 
REMARK  7 active torsions:
REMARK  status: ('A' for Active; 'I' for Inactive)
REMARK    1  A    between atoms: C_1  and  O_2
REMARK    2  A    between atoms: O_2  and  C_3
REMARK    3  A    between atoms: C_6  and  C_7
REMARK    4  A    between atoms: N_9  and  C_10
REMARK    5  A    between atoms: N_9  and  C_11
REMARK    6  A    between atoms: C_11  and  C_12
REMARK    7  A    between atoms: C_12  and  O_14
REMARK                            x       y       z     vdW  Elec       q    Type
REMARK                         _______ _______ _______ _____ _____    ______ ____
ROOT
ATOM      1  C   UNL     1       3.725   4.014  18.591  0.00  0.00    +0.000 C 
ATOM      2  O   UNL     1       3.749   2.945  17.976  0.00  0.00    +0.000 OA
ATOM      3  N   UNL     1       2.706   4.258  19.515  0.00  0.00    +0.000 N 
ATOM      4  C   UNL     1       2.310   5.548  20.079  0.00  0.00    +0.000 C 
ENDROOT
BRANCH   1   8
ATOM      5  C   UNL     1       6.834   6.809  17.467  0.00  0.00    +0.000 A 
ATOM      6  C   UNL     1       5.630   6.737  16.770  0.00  0.00    +0.000 A 
ATOM      7  C   UNL     1       4.625   5.850  17.177  0.00  0.00    +0.000 A 
ATOM      8  C   UNL     1       4.814   4.992  18.274  0.00  0.00    +0.000 A 
ATOM      9  C   UNL     1       6.060   5.011  18.908  0.00  0.00    +0.000 A 
ATOM     10  C   UNL     1       7.046   5.940  18.536  0.00  0.00    +0.000 A 
BRANCH   5  12
ATOM     11  C   UNL     1       8.051   8.811  17.828  0.00  0.00    +0.000 C 
ATOM     12  O   UNL     1       7.739   7.710  16.980  0.00  0.00    +0.000 OA
ENDBRANCH   5  12
ENDBRANCH   1   8
BRANCH   3  13
ATOM     13  C   UNL     1       1.886   3.102  19.957  0.00  0.00    +0.000 C 
BRANCH  13  14
ATOM     14  C   UNL     1       2.150   2.617  21.381  0.00  0.00    +0.000 C 
ATOM     15  O   UNL     1       1.304   2.594  22.263  0.00  0.00    +0.000 OA
BRANCH  14  16
ATOM     16  O   UNL     1       3.441   2.273  21.607  0.00  0.00    +0.000 OA
ATOM     17  H   UNL     1       3.557   1.309  21.478  0.00  0.00    +0.000 HD
ENDBRANCH  14  16
ENDBRANCH  13  14
ENDBRANCH   3  13
TORSDOF 5
ENDMDL
MODEL 8
REMARK VINA RESULT:      -6.1      1.082      1.225
REMARK  Name = 
REMARK  7 active torsions:
REMARK  status: ('A' for Active; 'I' for Inactive)
REMARK    1  A    between atoms: C_1  and  O_2
REMARK    2  A    between atoms: O_2  and  C_3
REMARK    3  A    between atoms: C_6  and  C_7
REMARK    4  A    between atoms: N_9  and  C_10
REMARK    5  A    between atoms: N_9  and  C_11
REMARK    6  A    between atoms: C_11  and  C_12
REMARK    7  A    between atoms: C_12  and  O_14
REMARK                            x       y       z     vdW  Elec       q    Type
REMARK                         _______ _______ _______ _____ _____    ______ ____
ROOT
ATOM      1  C   UNL     1       3.414   4.515  18.411  0.00  0.00    +0.000 C 
ATOM      2  O   UNL     1       2.466   5.304  18.425  0.00  0.00    +0.000 OA
ATOM      3  N   UNL     1       3.397   3.398  19.248  0.00  0.00    +0.000 N 
ATOM      4  C   UNL     1       4.532   2.554  19.626  0.00  0.00    +0.000 C 
ENDROOT
BRANCH   1   8
ATOM      5  C   UNL     1       6.694   5.256  15.684  0.00  0.00    +0.000 A 
ATOM      6  C   UNL     1       5.739   4.274  15.427  0.00  0.00    +0.000 A 
ATOM      7  C   UNL     1       4.666   4.080  16.308  0.00  0.00    +0.000 A 
ATOM      8  C   UNL     1       4.542   4.843  17.481  0.00  0.00    +0.000 A 
ATOM      9  C   UNL     1       5.555   5.762  17.771  0.00  0.00    +0.000 A 
ATOM     10  C   UNL     1       6.599   5.996  16.861  0.00  0.00    +0.000 A 
BRANCH   5  12
ATOM     11  C   UNL     1       7.384   4.898  13.445  0.00  0.00    +0.000 C 
ATOM     12  O   UNL     1       7.693   5.356  14.757  0.00  0.00    +0.000 OA
ENDBRANCH   5  12
ENDBRANCH   1   8
BRANCH   3  13
ATOM     13  C   UNL     1       2.105   3.029  19.878  0.00  0.00    +0.000 C 
BRANCH  13  14
ATOM     14  C   UNL     1       1.947   3.442  21.341  0.00  0.00    +0.000 C 
ATOM     15  O   UNL     1       1.513   2.706  22.216  0.00  0.00    +0.000 OA
BRANCH  14  16
ATOM     16  O   UNL     1       2.269   4.736  21.577  0.00  0.00    +0.000 OA
ATOM     17  H   UNL     1       1.455   5.264  21.711  0.00  0.00    +0.000 HD
ENDBRANCH  14  16
ENDBRANCH  13  14
ENDBRANCH   3  13
TORSDOF 5
ENDMDL
MODEL 9
REMARK VINA RESULT:      -6.1      1.046      1.127
REMARK  Name = 
REMARK  7 active torsions:
REMARK  status: ('A' for Active; 'I' for Inactive)
REMARK    1  A    between atoms: C_1  and  O_2
REMARK    2  A    between atoms: O_2  and  C_3
REMARK    3  A    between atoms: C_6  and  C_7
REMARK    4  A    between atoms: N_9  and  C_10
REMARK    5  A    between atoms: N_9  and  C_11
REMARK    6  A    between atoms: C_11  and  C_12
REMARK    7  A    between atoms: C_12  and  O_14
REMARK                            x       y       z     vdW  Elec       q    Type
REMARK                         _______ _______ _______ _____ _____    ______ ____
ROOT
ATOM      1  C   UNL     1       3.946   5.039  19.310  0.00  0.00    +0.000 C 
ATOM      2  O   UNL     1       3.655   6.191  19.639  0.00  0.00    +0.000 OA
ATOM      3  N   UNL     1       3.453   3.962  20.050  0.00  0.00    +0.000 N 
ATOM      4  C   UNL     1       3.938   2.581  20.039  0.00  0.00    +0.000 C 
ENDROOT
BRANCH   1   8
ATOM      5  C   UNL     1       6.413   4.454  15.801  0.00  0.00    +0.000 A 
ATOM      6  C   UNL     1       5.026   4.350  15.743  0.00  0.00    +0.000 A 
ATOM      7  C   UNL     1       4.247   4.581  16.885  0.00  0.00    +0.000 A 
ATOM      8  C   UNL     1       4.843   4.891  18.119  0.00  0.00    +0.000 A 
ATOM      9  C   UNL     1       6.240   4.903  18.184  0.00  0.00    +0.000 A 
ATOM     10  C   UNL     1       7.018   4.728  17.027  0.00  0.00    +0.000 A 
BRANCH   5  12
ATOM     11  C   UNL     1       6.255   3.860  13.512  0.00  0.00    +0.000 C 
ATOM     12  O   UNL     1       7.069   4.208  14.627  0.00  0.00    +0.000 OA
ENDBRANCH   5  12
ENDBRANCH   1   8
BRANCH   3  13
ATOM     13  C   UNL     1       2.342   4.229  20.997  0.00  0.00    +0.000 C 
BRANCH  13  14
ATOM     14  C   UNL     1       1.376   3.067  21.219  0.00  0.00    +0.000 C 
ATOM     15  O   UNL     1       1.428   2.307  22.176  0.00  0.00    +0.000 OA
BRANCH  14  16
ATOM     16  O   UNL     1       0.483   2.904  20.213  0.00  0.00    +0.000 OA
ATOM     17  H   UNL     1      -0.425   2.847  20.577  0.00  0.00    +0.000 HD
ENDBRANCH  14  16
ENDBRANCH  13  14
ENDBRANCH   3  13
TORSDOF 5
ENDMDL
