MODEL 1
REMARK VINA RESULT:      -7.0      0.000      0.000
REMARK  Name = 
REMARK  10 active torsions:
REMARK  status: ('A' for Active; 'I' for Inactive)
REMARK    1  A    between atoms: C_1  and  O_2
REMARK    2  A    between atoms: O_2  and  C_3
REMARK    3  A    between atoms: C_5  and  C_6
REMARK    4  A    between atoms: C_6  and  C_8
REMARK    5  A    between atoms: C_16  and  C_17
REMARK    6  A    between atoms: C_20  and  C_21
REMARK    7  A    between atoms: C_25  and  O_26
REMARK    8  A    between atoms: O_26  and  C_27
REMARK    9  A    between atoms: C_28  and  O_29
REMARK   10  A    between atoms: O_29  and  C_30
REMARK                            x       y       z     vdW  Elec       q    Type
REMARK                         _______ _______ _______ _____ _____    ______ ____
ROOT
ATOM      1  C   UNL     1       5.907   5.131  16.855  0.00  0.00    +0.000 A 
ATOM      2  S   UNL     1       7.247   5.663  15.936  0.00  0.00    +0.000 S 
ATOM      3  C   UNL     1       6.786   4.791  14.557  0.00  0.00    +0.000 A 
ATOM      4  C   UNL     1       7.518   4.747  13.348  0.00  0.00    +0.000 A 
ATOM      5  C   UNL     1       6.967   4.111  12.242  0.00  0.00    +0.000 A 
ATOM      6  C   UNL     1       5.722   3.516  12.342  0.00  0.00    +0.000 A 
ATOM      7  C   UNL     1       5.037   3.495  13.571  0.00  0.00    +0.000 A 
ATOM      8  C   UNL     1       5.566   4.136  14.730  0.00  0.00    +0.000 A 
ATOM      9  C   UNL     1       5.097   4.234  16.131  0.00  0.00    +0.000 A 
ENDROOT
BRANCH   9  10
ATOM     10  C   UNL     1       3.929   3.564  16.761  0.00  0.00    +0.000 A 
ATOM     11  C   UNL     1       4.108   2.369  17.477  0.00  0.00    +0.000 A 
ATOM     12  C   UNL     1       3.088   1.824  18.264  0.00  0.00    +0.000 A 
ATOM     13  C   UNL     1       1.829   2.421  18.301  0.00  0.00    +0.000 A 
ATOM     14  C   UNL     1       0.825   1.988  19.330  0.00  0.00    +0.000 C 
ATOM     15  C   UNL     1       1.589   3.519  17.469  0.00  0.00    +0.000 A 
ATOM     16  C   UNL     1       2.633   4.090  16.717  0.00  0.00    +0.000 A 
ENDBRANCH   9  10
BRANCH   1  17
ATOM     17  C   UNL     1       5.721   5.734  18.182  0.00  0.00    +0.000 C 
ATOM     18  O   UNL     1       6.585   5.739  19.054  0.00  0.00    +0.000 OA
BRANCH  17  21
ATOM     19  C   UNL     1       2.670   8.058  18.176  0.00  0.00    +0.000 A 
ATOM     20  C   UNL     1       3.901   7.477  17.838  0.00  0.00    +0.000 A 
ATOM     21  C   UNL     1       4.404   6.382  18.553  0.00  0.00    +0.000 A 
ATOM     22  C   UNL     1       3.662   5.873  19.623  0.00  0.00    +0.000 A 
ATOM     23  C   UNL     1       2.429   6.447  19.965  0.00  0.00    +0.000 A 
ATOM     24  C   UNL     1       1.971   7.605  19.310  0.00  0.00    +0.000 A 
BRANCH  19  26
ATOM     25  C   UNL     1       2.327  10.393  17.906  0.00  0.00    +0.000 C 
ATOM     26  O   UNL     1       2.110   9.067  17.433  0.00  0.00    +0.000 OA
ENDBRANCH  19  26
BRANCH  23  27
ATOM     27  O   UNL     1       1.766   5.807  20.987  0.00  0.00    +0.000 OA
ATOM     28  C   UNL     1       2.242   4.492  21.290  0.00  0.00    +0.000 C 
ENDBRANCH  23  27
BRANCH  24  29
ATOM     29  O   UNL     1       0.818   8.172  19.793  0.00  0.00    +0.000 OA
ATOM     30  C   UNL     1       0.908   9.060  20.902  0.00  0.00    +0.000 C 
ENDBRANCH  24  29
ENDBRANCH  17  21
ENDBRANCH   1  17
TORSDOF 6
ENDMDL
MODEL 2
REMARK VINA RESULT:      -6.6      2.047      4.037
REMARK  Name = 
REMARK  10 active torsions:
REMARK  status: ('A' for Active; 'I' for Inactive)
REMARK    1  A    between atoms: C_1  and  O_2
REMARK    2  A    between atoms: O_2  and  C_3
REMARK    3  A    between atoms: C_5  and  C_6
REMARK    4  A    between atoms: C_6  and  C_8
REMARK    5  A    between atoms: C_16  and  C_17
REMARK    6  A    between atoms: C_20  and  C_21
REMARK    7  A    between atoms: C_25  and  O_26
REMARK    8  A    between atoms: O_26  and  C_27
REMARK    9  A    between atoms: C_28  and  O_29
REMARK   10  A    between atoms: O_29  and  C_30
REMARK                            x       y       z     vdW  Elec       q    Type
REMARK                         _______ _______ _______ _____ _____    ______ ____
ROOT
ATOM      1  C   UNL     1       5.689   4.437  16.818  0.00  0.00    +0.000 A 
ATOM      2  S   UNL     1       5.176   3.314  15.634  0.00  0.00    +0.000 S 
ATOM      3  C   UNL     1       6.106   4.023  14.405  0.00  0.00    +0.000 A 
ATOM      4  C   UNL     1       6.131   3.587  13.060  0.00  0.00    +0.000 A 
ATOM      5  C   UNL     1       7.039   4.158  12.176  0.00  0.00    +0.000 A 
ATOM      6  C   UNL     1       7.891   5.156  12.618  0.00  0.00    +0.000 A 
ATOM      7  C   UNL     1       7.803   5.638  13.937  0.00  0.00    +0.000 A 
ATOM      8  C   UNL     1       6.886   5.079  14.875  0.00  0.00    +0.000 A 
ATOM      9  C   UNL     1       6.555   5.409  16.280  0.00  0.00    +0.000 A 
ENDROOT
BRANCH   9  10
ATOM     10  C   UNL     1       7.049   6.545  17.101  0.00  0.00    +0.000 A 
ATOM     11  C   UNL     1       7.843   6.299  18.234  0.00  0.00    +0.000 A 
ATOM     12  C   UNL     1       8.507   7.332  18.904  0.00  0.00    +0.000 A 
ATOM     13  C   UNL     1       8.338   8.657  18.504  0.00  0.00    +0.000 A 
ATOM     14  C   UNL     1       9.238   9.725  19.054  0.00  0.00    +0.000 C 
ATOM     15  C   UNL     1       7.425   8.931  17.481  0.00  0.00    +0.000 A 
ATOM     16  C   UNL     1       6.798   7.884  16.780  0.00  0.00    +0.000 A 
ENDBRANCH   9  10
BRANCH   1  17
ATOM     17  C   UNL     1       5.265   4.191  18.203  0.00  0.00    +0.000 C 
ATOM     18  O   UNL     1       5.803   3.374  18.945  0.00  0.00    +0.000 OA
BRANCH  17  21
ATOM     19  C   UNL     1       2.463   6.762  18.705  0.00  0.00    +0.000 A 
ATOM     20  C   UNL     1       3.563   6.080  18.163  0.00  0.00    +0.000 A 
ATOM     21  C   UNL     1       4.092   4.946  18.792  0.00  0.00    +0.000 A 
ATOM     22  C   UNL     1       3.512   4.500  19.983  0.00  0.00    +0.000 A 
ATOM     23  C   UNL     1       2.410   5.174  20.529  0.00  0.00    +0.000 A 
ATOM     24  C   UNL     1       1.941   6.368  19.950  0.00  0.00    +0.000 A 
BRANCH  19  26
ATOM     25  C   UNL     1       2.648   8.998  17.927  0.00  0.00    +0.000 C 
ATOM     26  O   UNL     1       1.866   7.815  18.058  0.00  0.00    +0.000 OA
ENDBRANCH  19  26
BRANCH  23  27
ATOM     27  O   UNL     1       1.889   4.591  21.661  0.00  0.00    +0.000 OA
ATOM     28  C   UNL     1       2.010   3.166  21.721  0.00  0.00    +0.000 C 
ENDBRANCH  23  27
BRANCH  24  29
ATOM     29  O   UNL     1       0.943   7.028  20.621  0.00  0.00    +0.000 OA
ATOM     30  C   UNL     1       1.274   8.208  21.347  0.00  0.00    +0.000 C 
ENDBRANCH  24  29
ENDBRANCH  17  21
ENDBRANCH   1  17
TORSDOF 6
ENDMDL
MODEL 3
REMARK VINA RESULT:      -6.5      5.358      9.381
REMARK  Name = 
REMARK  10 active torsions:
REMARK  status: ('A' for Active; 'I' for Inactive)
REMARK    1  A    between atoms: C_1  and  O_2
REMARK    2  A    between atoms: O_2  and  C_3
REMARK    3  A    between atoms: C_5  and  C_6
REMARK    4  A    between atoms: C_6  and  C_8
REMARK    5  A    between atoms: C_16  and  C_17
REMARK    6  A    between atoms: C_20  and  C_21
REMARK    7  A    between atoms: C_25  and  O_26
REMARK    8  A    between atoms: O_26  and  C_27
REMARK    9  A    between atoms: C_28  and  O_29
REMARK   10  A    between atoms: O_29  and  C_30
REMARK                            x       y       z     vdW  Elec       q    Type
REMARK                         _______ _______ _______ _____ _____    ______ ____
ROOT
ATOM      1  C   UNL     1       0.245  10.889  18.908  0.00  0.00    +0.000 A 
ATOM      2  S   UNL     1       1.064   9.869  17.806  0.00  0.00    +0.000 S 
ATOM      3  C   UNL     1       1.537   8.771  19.009  0.00  0.00    +0.000 A 
ATOM      4  C   UNL     1       2.330   7.622  18.785  0.00  0.00    +0.000 A 
ATOM      5  C   UNL     1       2.535   6.723  19.824  0.00  0.00    +0.000 A 
ATOM      6  C   UNL     1       1.978   6.972  21.066  0.00  0.00    +0.000 A 
ATOM      7  C   UNL     1       1.258   8.158  21.301  0.00  0.00    +0.000 A 
ATOM      8  C   UNL     1       1.024   9.106  20.262  0.00  0.00    +0.000 A 
ATOM      9  C   UNL     1       0.356  10.427  20.234  0.00  0.00    +0.000 A 
ENDROOT
BRANCH   9  10
ATOM     10  C   UNL     1      -0.193  11.206  21.374  0.00  0.00    +0.000 A 
ATOM     11  C   UNL     1       0.171  12.553  21.544  0.00  0.00    +0.000 A 
ATOM     12  C   UNL     1      -0.482  13.380  22.463  0.00  0.00    +0.000 A 
ATOM     13  C   UNL     1      -1.476  12.867  23.295  0.00  0.00    +0.000 A 
ATOM     14  C   UNL     1      -2.342  13.800  24.091  0.00  0.00    +0.000 C 
ATOM     15  C   UNL     1      -1.737  11.493  23.249  0.00  0.00    +0.000 A 
ATOM     16  C   UNL     1      -1.110  10.677  22.290  0.00  0.00    +0.000 A 
ENDBRANCH   9  10
BRANCH   1  17
ATOM     17  C   UNL     1      -0.526  12.005  18.342  0.00  0.00    +0.000 C 
ATOM     18  O   UNL     1      -0.040  13.099  18.072  0.00  0.00    +0.000 OA
BRANCH  17  21
ATOM     19  C   UNL     1      -3.864  11.275  16.600  0.00  0.00    +0.000 A 
ATOM     20  C   UNL     1      -2.488  11.430  16.831  0.00  0.00    +0.000 A 
ATOM     21  C   UNL     1      -2.008  11.858  18.076  0.00  0.00    +0.000 A 
ATOM     22  C   UNL     1      -2.924  12.139  19.093  0.00  0.00    +0.000 A 
ATOM     23  C   UNL     1      -4.300  11.985  18.871  0.00  0.00    +0.000 A 
ATOM     24  C   UNL     1      -4.786  11.649  17.593  0.00  0.00    +0.000 A 
BRANCH  19  26
ATOM     25  C   UNL     1      -3.400  10.154  14.557  0.00  0.00    +0.000 C 
ATOM     26  O   UNL     1      -4.353  10.766  15.423  0.00  0.00    +0.000 OA
ENDBRANCH  19  26
BRANCH  23  27
ATOM     27  O   UNL     1      -5.087  12.223  19.974  0.00  0.00    +0.000 OA
ATOM     28  C   UNL     1      -4.427  12.881  21.060  0.00  0.00    +0.000 C 
ENDBRANCH  23  27
BRANCH  24  29
ATOM     29  O   UNL     1      -6.149  11.644  17.433  0.00  0.00    +0.000 OA
ATOM     30  C   UNL     1      -6.801  12.865  17.099  0.00  0.00    +0.000 C 
ENDBRANCH  24  29
ENDBRANCH  17  21
ENDBRANCH   1  17
TORSDOF 6
ENDMDL
MODEL 4
REMARK VINA RESULT:      -6.5      3.730      6.663
REMARK  Name = 
REMARK  10 active torsions:
REMARK  status: ('A' for Active; 'I' for Inactive)
REMARK    1  A    between atoms: C_1  and  O_2
REMARK    2  A    between atoms: O_2  and  C_3
REMARK    3  A    between atoms: C_5  and  C_6
REMARK    4  A    between atoms: C_6  and  C_8
REMARK    5  A    between atoms: C_16  and  C_17
REMARK    6  A    between atoms: C_20  and  C_21
REMARK    7  A    between atoms: C_25  and  O_26
REMARK    8  A    between atoms: O_26  and  C_27
REMARK    9  A    between atoms: C_28  and  O_29
REMARK   10  A    between atoms: O_29  and  C_30
REMARK                            x       y       z     vdW  Elec       q    Type
REMARK                         _______ _______ _______ _____ _____    ______ ____
ROOT
ATOM      1  C   UNL     1       2.426   7.401  18.804  0.00  0.00    +0.000 A 
ATOM      2  S   UNL     1       3.258   6.175  17.951  0.00  0.00    +0.000 S 
ATOM      3  C   UNL     1       2.778   4.953  19.024  0.00  0.00    +0.000 A 
ATOM      4  C   UNL     1       3.166   3.597  18.928  0.00  0.00    +0.000 A 
ATOM      5  C   UNL     1       2.596   2.663  19.784  0.00  0.00    +0.000 A 
ATOM      6  C   UNL     1       1.672   3.073  20.729  0.00  0.00    +0.000 A 
ATOM      7  C   UNL     1       1.352   4.436  20.870  0.00  0.00    +0.000 A 
ATOM      8  C   UNL     1       1.914   5.427  20.012  0.00  0.00    +0.000 A 
ATOM      9  C   UNL     1       1.795   6.902  19.960  0.00  0.00    +0.000 A 
ENDROOT
BRANCH   9  10
ATOM     10  C   UNL     1       1.095   7.803  20.912  0.00  0.00    +0.000 A 
ATOM     11  C   UNL     1       1.836   8.683  21.720  0.00  0.00    +0.000 A 
ATOM     12  C   UNL     1       1.218   9.694  22.464  0.00  0.00    +0.000 A 
ATOM     13  C   UNL     1      -0.171   9.812  22.479  0.00  0.00    +0.000 A 
ATOM     14  C   UNL     1      -0.811  11.038  23.064  0.00  0.00    +0.000 C 
ATOM     15  C   UNL     1      -0.927   8.846  21.808  0.00  0.00    +0.000 A 
ATOM     16  C   UNL     1      -0.299   7.860  21.024  0.00  0.00    +0.000 A 
ENDBRANCH   9  10
BRANCH   1  17
ATOM     17  C   UNL     1       2.387   8.737  18.191  0.00  0.00    +0.000 C 
ATOM     18  O   UNL     1       3.322   9.225  17.565  0.00  0.00    +0.000 OA
BRANCH  17  21
ATOM     19  C   UNL     1      -1.208  10.042  17.901  0.00  0.00    +0.000 A 
ATOM     20  C   UNL     1      -0.067   9.239  17.752  0.00  0.00    +0.000 A 
ATOM     21  C   UNL     1       1.156   9.608  18.327  0.00  0.00    +0.000 A 
ATOM     22  C   UNL     1       1.231  10.800  19.052  0.00  0.00    +0.000 A 
ATOM     23  C   UNL     1       0.095  11.607  19.207  0.00  0.00    +0.000 A 
ATOM     24  C   UNL     1      -1.108  11.286  18.549  0.00  0.00    +0.000 A 
BRANCH  19  26
ATOM     25  C   UNL     1      -2.713   9.954  16.065  0.00  0.00    +0.000 C 
ATOM     26  O   UNL     1      -2.438   9.656  17.431  0.00  0.00    +0.000 OA
ENDBRANCH  19  26
BRANCH  23  27
ATOM     27  O   UNL     1       0.285  12.713  20.003  0.00  0.00    +0.000 OA
ATOM     28  C   UNL     1       0.931  13.818  19.362  0.00  0.00    +0.000 C 
ENDBRANCH  23  27
BRANCH  24  29
ATOM     29  O   UNL     1      -2.129  12.196  18.653  0.00  0.00    +0.000 OA
ATOM     30  C   UNL     1      -2.914  12.209  19.842  0.00  0.00    +0.000 C 
ENDBRANCH  24  29
ENDBRANCH  17  21
ENDBRANCH   1  17
TORSDOF 6
ENDMDL
MODEL 5
REMARK VINA RESULT:      -6.4      0.866      2.514
REMARK  Name = 
REMARK  10 active torsions:
REMARK  status: ('A' for Active; 'I' for Inactive)
REMARK    1  A    between atoms: C_1  and  O_2
REMARK    2  A    between atoms: O_2  and  C_3
REMARK    3  A    between atoms: C_5  and  C_6
REMARK    4  A    between atoms: C_6  and  C_8
REMARK    5  A    between atoms: C_16  and  C_17
REMARK    6  A    between atoms: C_20  and  C_21
REMARK    7  A    between atoms: C_25  and  O_26
REMARK    8  A    between atoms: O_26  and  C_27
REMARK    9  A    between atoms: C_28  and  O_29
REMARK   10  A    between atoms: O_29  and  C_30
REMARK                            x       y       z     vdW  Elec       q    Type
REMARK                         _______ _______ _______ _____ _____    ______ ____
ROOT
ATOM      1  C   UNL     1       6.000   4.702  17.171  0.00  0.00    +0.000 A 
ATOM      2  S   UNL     1       7.408   5.165  16.318  0.00  0.00    +0.000 S 
ATOM      3  C   UNL     1       6.829   4.588  14.833  0.00  0.00    +0.000 A 
ATOM      4  C   UNL     1       7.551   4.621  13.618  0.00  0.00    +0.000 A 
ATOM      5  C   UNL     1       6.917   4.247  12.439  0.00  0.00    +0.000 A 
ATOM      6  C   UNL     1       5.598   3.832  12.471  0.00  0.00    +0.000 A 
ATOM      7  C   UNL     1       4.912   3.727  13.696  0.00  0.00    +0.000 A 
ATOM      8  C   UNL     1       5.525   4.100  14.928  0.00  0.00    +0.000 A 
ATOM      9  C   UNL     1       5.070   4.053  16.336  0.00  0.00    +0.000 A 
ENDROOT
BRANCH   9  10
ATOM     10  C   UNL     1       3.813   3.474  16.879  0.00  0.00    +0.000 A 
ATOM     11  C   UNL     1       3.839   2.229  17.530  0.00  0.00    +0.000 A 
ATOM     12  C   UNL     1       2.735   1.750  18.243  0.00  0.00    +0.000 A 
ATOM     13  C   UNL     1       1.542   2.471  18.267  0.00  0.00    +0.000 A 
ATOM     14  C   UNL     1       0.455   2.088  19.229  0.00  0.00    +0.000 C 
ATOM     15  C   UNL     1       1.452   3.632  17.492  0.00  0.00    +0.000 A 
ATOM     16  C   UNL     1       2.580   4.132  16.816  0.00  0.00    +0.000 A 
ENDBRANCH   9  10
BRANCH   1  17
ATOM     17  C   UNL     1       5.900   5.118  18.577  0.00  0.00    +0.000 C 
ATOM     18  O   UNL     1       6.853   5.137  19.350  0.00  0.00    +0.000 OA
BRANCH  17  21
ATOM     19  C   UNL     1       2.671   5.145  20.647  0.00  0.00    +0.000 A 
ATOM     20  C   UNL     1       3.896   4.739  20.096  0.00  0.00    +0.000 A 
ATOM     21  C   UNL     1       4.568   5.537  19.161  0.00  0.00    +0.000 A 
ATOM     22  C   UNL     1       3.996   6.751  18.772  0.00  0.00    +0.000 A 
ATOM     23  C   UNL     1       2.774   7.166  19.321  0.00  0.00    +0.000 A 
ATOM     24  C   UNL     1       2.053   6.321  20.185  0.00  0.00    +0.000 A 
BRANCH  19  26
ATOM     25  C   UNL     1       2.432   3.066  21.769  0.00  0.00    +0.000 C 
ATOM     26  O   UNL     1       2.043   4.430  21.635  0.00  0.00    +0.000 OA
ENDBRANCH  19  26
BRANCH  23  27
ATOM     27  O   UNL     1       2.357   8.412  18.911  0.00  0.00    +0.000 OA
ATOM     28  C   UNL     1       1.774   8.458  17.606  0.00  0.00    +0.000 C 
ENDBRANCH  23  27
BRANCH  24  29
ATOM     29  O   UNL     1       0.809   6.751  20.574  0.00  0.00    +0.000 OA
ATOM     30  C   UNL     1       0.718   7.848  21.477  0.00  0.00    +0.000 C 
ENDBRANCH  24  29
ENDBRANCH  17  21
ENDBRANCH   1  17
TORSDOF 6
ENDMDL
MODEL 6
REMARK VINA RESULT:      -6.4      5.359      9.450
REMARK  Name = 
REMARK  10 active torsions:
REMARK  status: ('A' for Active; 'I' for Inactive)
REMARK    1  A    between atoms: C_1  and  O_2
REMARK    2  A    between atoms: O_2  and  C_3
REMARK    3  A    between atoms: C_5  and  C_6
REMARK    4  A    between atoms: C_6  and  C_8
REMARK    5  A    between atoms: C_16  and  C_17
REMARK    6  A    between atoms: C_20  and  C_21
REMARK    7  A    between atoms: C_25  and  O_26
REMARK    8  A    between atoms: O_26  and  C_27
REMARK    9  A    between atoms: C_28  and  O_29
REMARK   10  A    between atoms: O_29  and  C_30
REMARK                            x       y       z     vdW  Elec       q    Type
REMARK                         _______ _______ _______ _____ _____    ______ ____
ROOT
ATOM      1  C   UNL     1       0.241  10.882  18.947  0.00  0.00    +0.000 A 
ATOM      2  S   UNL     1       1.066   9.868  17.846  0.00  0.00    +0.000 S 
ATOM      3  C   UNL     1       1.523   8.758  19.043  0.00  0.00    +0.000 A 
ATOM      4  C   UNL     1       2.313   7.607  18.817  0.00  0.00    +0.000 A 
ATOM      5  C   UNL     1       2.503   6.698  19.851  0.00  0.00    +0.000 A 
ATOM      6  C   UNL     1       1.934   6.940  21.090  0.00  0.00    +0.000 A 
ATOM      7  C   UNL     1       1.217   8.127  21.327  0.00  0.00    +0.000 A 
ATOM      8  C   UNL     1       0.998   9.085  20.294  0.00  0.00    +0.000 A 
ATOM      9  C   UNL     1       0.336  10.409  20.270  0.00  0.00    +0.000 A 
ENDROOT
BRANCH   9  10
ATOM     10  C   UNL     1      -0.221  11.181  21.412  0.00  0.00    +0.000 A 
ATOM     11  C   UNL     1       0.142  12.527  21.591  0.00  0.00    +0.000 A 
ATOM     12  C   UNL     1      -0.517  13.349  22.511  0.00  0.00    +0.000 A 
ATOM     13  C   UNL     1      -1.516  12.830  23.334  0.00  0.00    +0.000 A 
ATOM     14  C   UNL     1      -2.388  13.757  24.129  0.00  0.00    +0.000 C 
ATOM     15  C   UNL     1      -1.776  11.457  23.278  0.00  0.00    +0.000 A 
ATOM     16  C   UNL     1      -1.143  10.646  22.318  0.00  0.00    +0.000 A 
ENDBRANCH   9  10
BRANCH   1  17
ATOM     17  C   UNL     1      -0.519  12.008  18.383  0.00  0.00    +0.000 C 
ATOM     18  O   UNL     1      -0.002  13.051  17.998  0.00  0.00    +0.000 OA
BRANCH  17  21
ATOM     19  C   UNL     1      -4.259  12.398  19.139  0.00  0.00    +0.000 A 
ATOM     20  C   UNL     1      -2.862  12.451  19.265  0.00  0.00    +0.000 A 
ATOM     21  C   UNL     1      -2.026  11.934  18.267  0.00  0.00    +0.000 A 
ATOM     22  C   UNL     1      -2.603  11.351  17.136  0.00  0.00    +0.000 A 
ATOM     23  C   UNL     1      -3.998  11.296  17.001  0.00  0.00    +0.000 A 
ATOM     24  C   UNL     1      -4.837  11.727  18.046  0.00  0.00    +0.000 A 
BRANCH  19  26
ATOM     25  C   UNL     1      -4.870  12.648  21.421  0.00  0.00    +0.000 C 
ATOM     26  O   UNL     1      -5.097  12.983  20.055  0.00  0.00    +0.000 OA
ENDBRANCH  19  26
BRANCH  23  27
ATOM     27  O   UNL     1      -4.436  10.765  15.810  0.00  0.00    +0.000 OA
ATOM     28  C   UNL     1      -3.401  10.352  14.912  0.00  0.00    +0.000 C 
ENDBRANCH  23  27
BRANCH  24  29
ATOM     29  O   UNL     1      -6.183  11.520  17.882  0.00  0.00    +0.000 OA
ATOM     30  C   UNL     1      -6.810  10.483  18.630  0.00  0.00    +0.000 C 
ENDBRANCH  24  29
ENDBRANCH  17  21
ENDBRANCH   1  17
TORSDOF 6
ENDMDL
MODEL 7
REMARK VINA RESULT:      -6.4      2.520      5.582
REMARK  Name = 
REMARK  10 active torsions:
REMARK  status: ('A' for Active; 'I' for Inactive)
REMARK    1  A    between atoms: C_1  and  O_2
REMARK    2  A    between atoms: O_2  and  C_3
REMARK    3  A    between atoms: C_5  and  C_6
REMARK    4  A    between atoms: C_6  and  C_8
REMARK    5  A    between atoms: C_16  and  C_17
REMARK    6  A    between atoms: C_20  and  C_21
REMARK    7  A    between atoms: C_25  and  O_26
REMARK    8  A    between atoms: O_26  and  C_27
REMARK    9  A    between atoms: C_28  and  O_29
REMARK   10  A    between atoms: O_29  and  C_30
REMARK                            x       y       z     vdW  Elec       q    Type
REMARK                         _______ _______ _______ _____ _____    ______ ____
ROOT
ATOM      1  C   UNL     1       2.606   6.436  18.954  0.00  0.00    +0.000 A 
ATOM      2  S   UNL     1       1.576   6.098  20.276  0.00  0.00    +0.000 S 
ATOM      3  C   UNL     1       2.231   4.555  20.533  0.00  0.00    +0.000 A 
ATOM      4  C   UNL     1       1.789   3.645  21.520  0.00  0.00    +0.000 A 
ATOM      5  C   UNL     1       2.496   2.467  21.726  0.00  0.00    +0.000 A 
ATOM      6  C   UNL     1       3.610   2.192  20.952  0.00  0.00    +0.000 A 
ATOM      7  C   UNL     1       3.996   3.066  19.918  0.00  0.00    +0.000 A 
ATOM      8  C   UNL     1       3.297   4.286  19.674  0.00  0.00    +0.000 A 
ATOM      9  C   UNL     1       3.449   5.347  18.654  0.00  0.00    +0.000 A 
ENDROOT
BRANCH   9  10
ATOM     10  C   UNL     1       4.361   5.375  17.481  0.00  0.00    +0.000 A 
ATOM     11  C   UNL     1       5.539   6.141  17.526  0.00  0.00    +0.000 A 
ATOM     12  C   UNL     1       6.527   6.026  16.542  0.00  0.00    +0.000 A 
ATOM     13  C   UNL     1       6.336   5.191  15.442  0.00  0.00    +0.000 A 
ATOM     14  C   UNL     1       7.489   4.878  14.532  0.00  0.00    +0.000 C 
ATOM     15  C   UNL     1       5.104   4.546  15.303  0.00  0.00    +0.000 A 
ATOM     16  C   UNL     1       4.133   4.629  16.319  0.00  0.00    +0.000 A 
ENDBRANCH   9  10
BRANCH   1  17
ATOM     17  C   UNL     1       2.557   7.794  18.395  0.00  0.00    +0.000 C 
ATOM     18  O   UNL     1       3.302   8.190  17.504  0.00  0.00    +0.000 OA
BRANCH  17  21
ATOM     19  C   UNL     1      -0.317  10.326  18.590  0.00  0.00    +0.000 A 
ATOM     20  C   UNL     1       0.613   9.404  18.086  0.00  0.00    +0.000 A 
ATOM     21  C   UNL     1       1.564   8.806  18.924  0.00  0.00    +0.000 A 
ATOM     22  C   UNL     1       1.582   9.147  20.279  0.00  0.00    +0.000 A 
ATOM     23  C   UNL     1       0.653  10.065  20.790  0.00  0.00    +0.000 A 
ATOM     24  C   UNL     1      -0.237  10.738  19.932  0.00  0.00    +0.000 A 
BRANCH  19  26
ATOM     25  C   UNL     1      -2.166   9.910  17.157  0.00  0.00    +0.000 C 
ATOM     26  O   UNL     1      -1.319  10.850  17.812  0.00  0.00    +0.000 OA
ENDBRANCH  19  26
BRANCH  23  27
ATOM     27  O   UNL     1       0.731  10.258  22.150  0.00  0.00    +0.000 OA
ATOM     28  C   UNL     1      -0.116   9.410  22.932  0.00  0.00    +0.000 C 
ENDBRANCH  23  27
BRANCH  24  29
ATOM     29  O   UNL     1      -1.022  11.711  20.497  0.00  0.00    +0.000 OA
ATOM     30  C   UNL     1      -0.556  13.056  20.485  0.00  0.00    +0.000 C 
ENDBRANCH  24  29
ENDBRANCH  17  21
ENDBRANCH   1  17
TORSDOF 6
ENDMDL
MODEL 8
REMARK VINA RESULT:      -6.3      2.512      5.854
REMARK  Name = 
REMARK  10 active torsions:
REMARK  status: ('A' for Active; 'I' for Inactive)
REMARK    1  A    between atoms: C_1  and  O_2
REMARK    2  A    between atoms: O_2  and  C_3
REMARK    3  A    between atoms: C_5  and  C_6
REMARK    4  A    between atoms: C_6  and  C_8
REMARK    5  A    between atoms: C_16  and  C_17
REMARK    6  A    between atoms: C_20  and  C_21
REMARK    7  A    between atoms: C_25  and  O_26
REMARK    8  A    between atoms: O_26  and  C_27
REMARK    9  A    between atoms: C_28  and  O_29
REMARK   10  A    between atoms: O_29  and  C_30
REMARK                            x       y       z     vdW  Elec       q    Type
REMARK                         _______ _______ _______ _____ _____    ______ ____
ROOT
ATOM      1  C   UNL     1       2.612   6.359  19.012  0.00  0.00    +0.000 A 
ATOM      2  S   UNL     1       1.589   5.989  20.331  0.00  0.00    +0.000 S 
ATOM      3  C   UNL     1       2.270   4.453  20.566  0.00  0.00    +0.000 A 
ATOM      4  C   UNL     1       1.843   3.523  21.542  0.00  0.00    +0.000 A 
ATOM      5  C   UNL     1       2.570   2.353  21.731  0.00  0.00    +0.000 A 
ATOM      6  C   UNL     1       3.686   2.106  20.951  0.00  0.00    +0.000 A 
ATOM      7  C   UNL     1       4.056   3.000  19.929  0.00  0.00    +0.000 A 
ATOM      8  C   UNL     1       3.338   4.211  19.702  0.00  0.00    +0.000 A 
ATOM      9  C   UNL     1       3.471   5.289  18.696  0.00  0.00    +0.000 A 
ENDROOT
BRANCH   9  10
ATOM     10  C   UNL     1       4.380   5.346  17.522  0.00  0.00    +0.000 A 
ATOM     11  C   UNL     1       5.574   6.084  17.594  0.00  0.00    +0.000 A 
ATOM     12  C   UNL     1       6.557   5.990  16.603  0.00  0.00    +0.000 A 
ATOM     13  C   UNL     1       6.345   5.206  15.470  0.00  0.00    +0.000 A 
ATOM     14  C   UNL     1       7.488   4.907  14.543  0.00  0.00    +0.000 C 
ATOM     15  C   UNL     1       5.098   4.595  15.308  0.00  0.00    +0.000 A 
ATOM     16  C   UNL     1       4.132   4.655  16.330  0.00  0.00    +0.000 A 
ENDBRANCH   9  10
BRANCH   1  17
ATOM     17  C   UNL     1       2.541   7.724  18.471  0.00  0.00    +0.000 C 
ATOM     18  O   UNL     1       3.269   8.140  17.575  0.00  0.00    +0.000 OA
BRANCH  17  21
ATOM     19  C   UNL     1       0.613   9.993  20.889  0.00  0.00    +0.000 A 
ATOM     20  C   UNL     1       1.527   9.054  20.387  0.00  0.00    +0.000 A 
ATOM     21  C   UNL     1       1.544   8.719  19.026  0.00  0.00    +0.000 A 
ATOM     22  C   UNL     1       0.626   9.329  18.168  0.00  0.00    +0.000 A 
ATOM     23  C   UNL     1      -0.288  10.271  18.662  0.00  0.00    +0.000 A 
ATOM     24  C   UNL     1      -0.370  10.535  20.042  0.00  0.00    +0.000 A 
BRANCH  19  26
ATOM     25  C   UNL     1      -0.035   9.580  23.137  0.00  0.00    +0.000 C 
ATOM     26  O   UNL     1       0.640  10.410  22.197  0.00  0.00    +0.000 OA
ENDBRANCH  19  26
BRANCH  23  27
ATOM     27  O   UNL     1      -1.085  10.851  17.702  0.00  0.00    +0.000 OA
ATOM     28  C   UNL     1      -2.124  10.012  17.187  0.00  0.00    +0.000 C 
ENDBRANCH  23  27
BRANCH  24  29
ATOM     29  O   UNL     1      -1.376  11.372  20.451  0.00  0.00    +0.000 OA
ATOM     30  C   UNL     1      -1.121  12.773  20.504  0.00  0.00    +0.000 C 
ENDBRANCH  24  29
ENDBRANCH  17  21
ENDBRANCH   1  17
TORSDOF 6
ENDMDL
MODEL 9
REMARK VINA RESULT:      -6.3      3.680      7.058
REMARK  Name = 
REMARK  10 active torsions:
REMARK  status: ('A' for Active; 'I' for Inactive)
REMARK    1  A    between atoms: C_1  and  O_2
REMARK    2  A    between atoms: O_2  and  C_3
REMARK    3  A    between atoms: C_5  and  C_6
REMARK    4  A    between atoms: C_6  and  C_8
REMARK    5  A    between atoms: C_16  and  C_17
REMARK    6  A    between atoms: C_20  and  C_21
REMARK    7  A    between atoms: C_25  and  O_26
REMARK    8  A    between atoms: O_26  and  C_27
REMARK    9  A    between atoms: C_28  and  O_29
REMARK   10  A    between atoms: O_29  and  C_30
REMARK                            x       y       z     vdW  Elec       q    Type
REMARK                         _______ _______ _______ _____ _____    ______ ____
ROOT
ATOM      1  C   UNL     1       2.100   8.297  18.690  0.00  0.00    +0.000 A 
ATOM      2  S   UNL     1       3.045   7.251  17.723  0.00  0.00    +0.000 S 
ATOM      3  C   UNL     1       2.938   5.963  18.821  0.00  0.00    +0.000 A 
ATOM      4  C   UNL     1       3.565   4.706  18.654  0.00  0.00    +0.000 A 
ATOM      5  C   UNL     1       3.288   3.683  19.553  0.00  0.00    +0.000 A 
ATOM      6  C   UNL     1       2.421   3.912  20.606  0.00  0.00    +0.000 A 
ATOM      7  C   UNL     1       1.865   5.188  20.810  0.00  0.00    +0.000 A 
ATOM      8  C   UNL     1       2.122   6.265  19.911  0.00  0.00    +0.000 A 
ATOM      9  C   UNL     1       1.718   7.689  19.902  0.00  0.00    +0.000 A 
ENDROOT
BRANCH   9  10
ATOM     10  C   UNL     1       0.975   8.443  20.946  0.00  0.00    +0.000 A 
ATOM     11  C   UNL     1       1.558   9.575  21.542  0.00  0.00    +0.000 A 
ATOM     12  C   UNL     1       0.819  10.435  22.361  0.00  0.00    +0.000 A 
ATOM     13  C   UNL     1      -0.511  10.151  22.669  0.00  0.00    +0.000 A 
ATOM     14  C   UNL     1      -1.366  11.193  23.329  0.00  0.00    +0.000 C 
ATOM     15  C   UNL     1      -1.055   8.945  22.213  0.00  0.00    +0.000 A 
ATOM     16  C   UNL     1      -0.322   8.108  21.352  0.00  0.00    +0.000 A 
ENDBRANCH   9  10
BRANCH   1  17
ATOM     17  C   UNL     1       1.735   9.598  18.112  0.00  0.00    +0.000 C 
ATOM     18  O   UNL     1       2.550  10.390  17.650  0.00  0.00    +0.000 OA
BRANCH  17  21
ATOM     19  C   UNL     1      -1.953   9.941  17.116  0.00  0.00    +0.000 A 
ATOM     20  C   UNL     1      -0.609   9.539  17.127  0.00  0.00    +0.000 A 
ATOM     21  C   UNL     1       0.288  10.043  18.078  0.00  0.00    +0.000 A 
ATOM     22  C   UNL     1      -0.172  10.966  19.020  0.00  0.00    +0.000 A 
ATOM     23  C   UNL     1      -1.515  11.371  19.018  0.00  0.00    +0.000 A 
ATOM     24  C   UNL     1      -2.392  10.940  18.004  0.00  0.00    +0.000 A 
BRANCH  19  26
ATOM     25  C   UNL     1      -2.990  10.007  14.979  0.00  0.00    +0.000 C 
ATOM     26  O   UNL     1      -2.872   9.390  16.258  0.00  0.00    +0.000 OA
ENDBRANCH  19  26
BRANCH  23  27
ATOM     27  O   UNL     1      -1.856  12.225  20.041  0.00  0.00    +0.000 OA
ATOM     28  C   UNL     1      -1.348  13.556  19.915  0.00  0.00    +0.000 C 
ENDBRANCH  23  27
BRANCH  24  29
ATOM     29  O   UNL     1      -3.651  11.484  18.004  0.00  0.00    +0.000 OA
ATOM     30  C   UNL     1      -4.738  10.689  18.468  0.00  0.00    +0.000 C 
ENDBRANCH  24  29
ENDBRANCH  17  21
ENDBRANCH   1  17
TORSDOF 6
ENDMDL
