MODEL 1
REMARK VINA RESULT:      -7.8      0.000      0.000
REMARK  Name = 
REMARK  9 active torsions:
REMARK  status: ('A' for Active; 'I' for Inactive)
REMARK    1  A    between atoms: C_1  and  O_2
REMARK    2  A    between atoms: O_2  and  C_3
REMARK    3  A    between atoms: C_11  and  C_12
REMARK    4  A    between atoms: C_12  and  O_13
REMARK    5  A    between atoms: C_12  and  C_14
REMARK    6  A    between atoms: C_14  and  N_15
REMARK    7  A    between atoms: C_18  and  N_19
REMARK    8  A    between atoms: N_19  and  C_20
REMARK    9  A    between atoms: C_20  and  C_21
REMARK                            x       y       z     vdW  Elec       q    Type
REMARK                         _______ _______ _______ _____ _____    ______ ____
ROOT
ATOM      1  N   UNL     1       1.593   8.290  19.124  0.00  0.00    +0.000 NA
ATOM      2  C   UNL     1       2.407   7.626  18.094  0.00  0.00    +0.000 C 
ATOM      3  C   UNL     1       2.222   6.100  18.112  0.00  0.00    +0.000 C 
ATOM      4  C   UNL     1       2.557   5.471  19.481  0.00  0.00    +0.000 C 
ATOM      5  C   UNL     1       1.692   6.201  20.516  0.00  0.00    +0.000 C 
ATOM      6  C   UNL     1       1.864   7.724  20.460  0.00  0.00    +0.000 C 
ENDROOT
BRANCH   4   7
ATOM      7  N   UNL     1       4.010   5.517  19.718  0.00  0.00    +0.000 NA
ATOM      8  H   UNL     1       4.206   5.953  20.620  0.00  0.00    +0.000 HD
BRANCH   7   9
ATOM      9  C   UNL     1       4.699   4.207  19.729  0.00  0.00    +0.000 C 
BRANCH   9  10
ATOM     10  C   UNL     1       5.559   4.087  18.478  0.00  0.00    +0.000 A 
ATOM     11  C   UNL     1       5.013   3.798  17.212  0.00  0.00    +0.000 A 
ATOM     12  C   UNL     1       5.757   4.133  16.080  0.00  0.00    +0.000 A 
ATOM     13  C   UNL     1       6.979   4.745  16.242  0.00  0.00    +0.000 A 
ATOM     14  C   UNL     1       7.509   4.854  17.513  0.00  0.00    +0.000 A 
ATOM     15  N   UNL     1       6.827   4.535  18.632  0.00  0.00    +0.000 NA
ATOM     16  O   UNL     1       7.706   5.328  15.251  0.00  0.00    +0.000 OA
ATOM     17  C   UNL     1       7.229   5.111  13.936  0.00  0.00    +0.000 C 
ATOM     18  C   UNL     1       6.165   4.031  13.776  0.00  0.00    +0.000 C 
ATOM     19  O   UNL     1       5.202   3.932  14.837  0.00  0.00    +0.000 OA
ENDBRANCH   9  10
ENDBRANCH   7   9
ENDBRANCH   4   7
BRANCH   1  20
ATOM     20  C   UNL     1       1.809   9.768  19.147  0.00  0.00    +0.000 C 
BRANCH  20  21
ATOM     21  C   UNL     1       0.561  10.701  18.997  0.00  0.00    +0.000 C 
BRANCH  21  30
ATOM     22  C   UNL     1       1.180  14.704  19.966  0.00  0.00    +0.000 A 
ATOM     23  C   UNL     1       0.761  15.305  21.129  0.00  0.00    +0.000 A 
ATOM     24  C   UNL     1       0.175  14.501  22.102  0.00  0.00    +0.000 A 
ATOM     25  C   UNL     1      -0.019  13.136  21.888  0.00  0.00    +0.000 A 
ATOM     26  N   UNL     1      -0.565  12.384  22.849  0.00  0.00    +0.000 NA
ATOM     27  C   UNL     1      -0.764  11.079  22.559  0.00  0.00    +0.000 A 
ATOM     28  C   UNL     1      -0.451  10.517  21.339  0.00  0.00    +0.000 A 
ATOM     29  F   UNL     1      -0.755   9.230  21.108  0.00  0.00    +0.000 F 
ATOM     30  C   UNL     1       0.149  11.288  20.344  0.00  0.00    +0.000 A 
ATOM     31  C   UNL     1       0.398  12.635  20.625  0.00  0.00    +0.000 A 
ATOM     32  N   UNL     1       1.002  13.406  19.707  0.00  0.00    +0.000 NA
BRANCH  22  34
ATOM     33  C   UNL     1       2.769  14.771  18.267  0.00  0.00    +0.000 C 
ATOM     34  O   UNL     1       1.801  15.506  19.023  0.00  0.00    +0.000 OA
ENDBRANCH  22  34
ENDBRANCH  21  30
BRANCH  21  35
ATOM     35  O   UNL     1      -0.511  10.007  18.344  0.00  0.00    +0.000 OA
ATOM     36  H   UNL     1      -1.308  10.561  18.350  0.00  0.00    +0.000 HD
ENDBRANCH  21  35
ENDBRANCH  20  21
ENDBRANCH   1  20
TORSDOF 8
ENDMDL
MODEL 2
REMARK VINA RESULT:      -7.8      3.941     10.325
REMARK  Name = 
REMARK  9 active torsions:
REMARK  status: ('A' for Active; 'I' for Inactive)
REMARK    1  A    between atoms: C_1  and  O_2
REMARK    2  A    between atoms: O_2  and  C_3
REMARK    3  A    between atoms: C_11  and  C_12
REMARK    4  A    between atoms: C_12  and  O_13
REMARK    5  A    between atoms: C_12  and  C_14
REMARK    6  A    between atoms: C_14  and  N_15
REMARK    7  A    between atoms: C_18  and  N_19
REMARK    8  A    between atoms: N_19  and  C_20
REMARK    9  A    between atoms: C_20  and  C_21
REMARK                            x       y       z     vdW  Elec       q    Type
REMARK                         _______ _______ _______ _____ _____    ______ ____
ROOT
ATOM      1  N   UNL     1       1.614   8.113  20.228  0.00  0.00    +0.000 NA
ATOM      2  C   UNL     1       1.462   8.372  18.788  0.00  0.00    +0.000 C 
ATOM      3  C   UNL     1       1.648   9.861  18.450  0.00  0.00    +0.000 C 
ATOM      4  C   UNL     1       0.673  10.777  19.218  0.00  0.00    +0.000 C 
ATOM      5  C   UNL     1       0.865  10.462  20.707  0.00  0.00    +0.000 C 
ATOM      6  C   UNL     1       0.709   8.969  21.019  0.00  0.00    +0.000 C 
ENDROOT
BRANCH   4   7
ATOM      7  N   UNL     1      -0.696  10.607  18.702  0.00  0.00    +0.000 NA
ATOM      8  H   UNL     1      -1.315  10.281  19.445  0.00  0.00    +0.000 HD
BRANCH   7   9
ATOM      9  C   UNL     1      -1.325  11.823  18.138  0.00  0.00    +0.000 C 
BRANCH   9  10
ATOM     10  C   UNL     1      -2.835  11.631  18.104  0.00  0.00    +0.000 A 
ATOM     11  C   UNL     1      -3.667  11.992  19.182  0.00  0.00    +0.000 A 
ATOM     12  C   UNL     1      -5.023  12.203  18.927  0.00  0.00    +0.000 A 
ATOM     13  C   UNL     1      -5.490  12.066  17.640  0.00  0.00    +0.000 A 
ATOM     14  C   UNL     1      -4.643  11.561  16.672  0.00  0.00    +0.000 A 
ATOM     15  N   UNL     1      -3.329  11.337  16.878  0.00  0.00    +0.000 NA
ATOM     16  O   UNL     1      -6.717  12.453  17.202  0.00  0.00    +0.000 OA
ATOM     17  C   UNL     1      -7.627  12.854  18.209  0.00  0.00    +0.000 C 
ATOM     18  C   UNL     1      -7.229  12.524  19.644  0.00  0.00    +0.000 C 
ATOM     19  O   UNL     1      -5.831  12.637  19.953  0.00  0.00    +0.000 OA
ENDBRANCH   9  10
ENDBRANCH   7   9
ENDBRANCH   4   7
BRANCH   1  20
ATOM     20  C   UNL     1       1.381   6.677  20.570  0.00  0.00    +0.000 C 
BRANCH  20  21
ATOM     21  C   UNL     1       2.606   5.704  20.549  0.00  0.00    +0.000 C 
BRANCH  21  30
ATOM     22  C   UNL     1       5.382   5.890  17.450  0.00  0.00    +0.000 A 
ATOM     23  C   UNL     1       5.425   5.028  16.380  0.00  0.00    +0.000 A 
ATOM     24  C   UNL     1       4.409   4.084  16.264  0.00  0.00    +0.000 A 
ATOM     25  C   UNL     1       3.402   3.987  17.225  0.00  0.00    +0.000 A 
ATOM     26  N   UNL     1       2.427   3.085  17.077  0.00  0.00    +0.000 NA
ATOM     27  C   UNL     1       1.509   3.016  18.066  0.00  0.00    +0.000 A 
ATOM     28  C   UNL     1       1.552   3.805  19.197  0.00  0.00    +0.000 A 
ATOM     29  F   UNL     1       0.644   3.616  20.168  0.00  0.00    +0.000 F 
ATOM     30  C   UNL     1       2.547   4.771  19.342  0.00  0.00    +0.000 A 
ATOM     31  C   UNL     1       3.494   4.890  18.320  0.00  0.00    +0.000 A 
ATOM     32  N   UNL     1       4.450   5.826  18.404  0.00  0.00    +0.000 NA
BRANCH  22  34
ATOM     33  C   UNL     1       7.600   6.302  18.023  0.00  0.00    +0.000 C 
ATOM     34  O   UNL     1       6.374   6.853  17.530  0.00  0.00    +0.000 OA
ENDBRANCH  22  34
ENDBRANCH  21  30
BRANCH  21  35
ATOM     35  O   UNL     1       2.708   4.995  21.792  0.00  0.00    +0.000 OA
ATOM     36  H   UNL     1       2.177   5.445  22.467  0.00  0.00    +0.000 HD
ENDBRANCH  21  35
ENDBRANCH  20  21
ENDBRANCH   1  20
TORSDOF 8
ENDMDL
MODEL 3
REMARK VINA RESULT:      -7.8      1.630      2.733
REMARK  Name = 
REMARK  9 active torsions:
REMARK  status: ('A' for Active; 'I' for Inactive)
REMARK    1  A    between atoms: C_1  and  O_2
REMARK    2  A    between atoms: O_2  and  C_3
REMARK    3  A    between atoms: C_11  and  C_12
REMARK    4  A    between atoms: C_12  and  O_13
REMARK    5  A    between atoms: C_12  and  C_14
REMARK    6  A    between atoms: C_14  and  N_15
REMARK    7  A    between atoms: C_18  and  N_19
REMARK    8  A    between atoms: N_19  and  C_20
REMARK    9  A    between atoms: C_20  and  C_21
REMARK                            x       y       z     vdW  Elec       q    Type
REMARK                         _______ _______ _______ _____ _____    ______ ____
ROOT
ATOM      1  N   UNL     1       1.378   8.390  19.557  0.00  0.00    +0.000 NA
ATOM      2  C   UNL     1       2.272   8.023  18.447  0.00  0.00    +0.000 C 
ATOM      3  C   UNL     1       2.207   6.521  18.129  0.00  0.00    +0.000 C 
ATOM      4  C   UNL     1       2.548   5.634  19.344  0.00  0.00    +0.000 C 
ATOM      5  C   UNL     1       1.598   6.060  20.471  0.00  0.00    +0.000 C 
ATOM      6  C   UNL     1       1.653   7.567  20.751  0.00  0.00    +0.000 C 
ENDROOT
BRANCH   4   7
ATOM      7  N   UNL     1       3.986   5.729  19.653  0.00  0.00    +0.000 NA
ATOM      8  H   UNL     1       4.125   6.215  20.539  0.00  0.00    +0.000 HD
BRANCH   7   9
ATOM      9  C   UNL     1       4.703   4.438  19.768  0.00  0.00    +0.000 C 
BRANCH   9  10
ATOM     10  C   UNL     1       5.529   4.216  18.508  0.00  0.00    +0.000 A 
ATOM     11  C   UNL     1       4.941   3.952  17.257  0.00  0.00    +0.000 A 
ATOM     12  C   UNL     1       5.696   4.195  16.108  0.00  0.00    +0.000 A 
ATOM     13  C   UNL     1       6.970   4.696  16.241  0.00  0.00    +0.000 A 
ATOM     14  C   UNL     1       7.527   4.781  17.503  0.00  0.00    +0.000 A 
ATOM     15  N   UNL     1       6.835   4.549  18.637  0.00  0.00    +0.000 NA
ATOM     16  O   UNL     1       7.732   5.190  15.229  0.00  0.00    +0.000 OA
ATOM     17  C   UNL     1       7.219   4.990  13.925  0.00  0.00    +0.000 C 
ATOM     18  C   UNL     1       6.059   4.009  13.802  0.00  0.00    +0.000 C 
ATOM     19  O   UNL     1       5.106   4.020  14.877  0.00  0.00    +0.000 OA
ENDBRANCH   9  10
ENDBRANCH   7   9
ENDBRANCH   4   7
BRANCH   1  20
ATOM     20  C   UNL     1       1.478   9.839  19.905  0.00  0.00    +0.000 C 
BRANCH  20  21
ATOM     21  C   UNL     1       0.657  10.863  19.053  0.00  0.00    +0.000 C 
BRANCH  21  30
ATOM     22  C   UNL     1      -1.103  12.407  22.497  0.00  0.00    +0.000 A 
ATOM     23  C   UNL     1      -0.857  13.658  23.012  0.00  0.00    +0.000 A 
ATOM     24  C   UNL     1      -0.040  14.513  22.281  0.00  0.00    +0.000 A 
ATOM     25  C   UNL     1       0.547  14.102  21.084  0.00  0.00    +0.000 A 
ATOM     26  N   UNL     1       1.310  14.953  20.391  0.00  0.00    +0.000 NA
ATOM     27  C   UNL     1       1.882  14.475  19.264  0.00  0.00    +0.000 A 
ATOM     28  C   UNL     1       1.726  13.176  18.826  0.00  0.00    +0.000 A 
ATOM     29  F   UNL     1       2.394  12.763  17.737  0.00  0.00    +0.000 F 
ATOM     30  C   UNL     1       0.903  12.293  19.525  0.00  0.00    +0.000 A 
ATOM     31  C   UNL     1       0.272  12.767  20.679  0.00  0.00    +0.000 A 
ATOM     32  N   UNL     1      -0.552  11.961  21.365  0.00  0.00    +0.000 NA
BRANCH  22  34
ATOM     33  C   UNL     1      -3.186  12.238  23.520  0.00  0.00    +0.000 C 
ATOM     34  O   UNL     1      -1.953  11.580  23.212  0.00  0.00    +0.000 OA
ENDBRANCH  22  34
ENDBRANCH  21  30
BRANCH  21  35
ATOM     35  O   UNL     1      -0.734  10.514  19.047  0.00  0.00    +0.000 OA
ATOM     36  H   UNL     1      -0.884   9.766  19.646  0.00  0.00    +0.000 HD
ENDBRANCH  21  35
ENDBRANCH  20  21
ENDBRANCH   1  20
TORSDOF 8
ENDMDL
MODEL 4
REMARK VINA RESULT:      -7.7      3.649     10.673
REMARK  Name = 
REMARK  9 active torsions:
REMARK  status: ('A' for Active; 'I' for Inactive)
REMARK    1  A    between atoms: C_1  and  O_2
REMARK    2  A    between atoms: O_2  and  C_3
REMARK    3  A    between atoms: C_11  and  C_12
REMARK    4  A    between atoms: C_12  and  O_13
REMARK    5  A    between atoms: C_12  and  C_14
REMARK    6  A    between atoms: C_14  and  N_15
REMARK    7  A    between atoms: C_18  and  N_19
REMARK    8  A    between atoms: N_19  and  C_20
REMARK    9  A    between atoms: C_20  and  C_21
REMARK                            x       y       z     vdW  Elec       q    Type
REMARK                         _______ _______ _______ _____ _____    ______ ____
ROOT
ATOM      1  N   UNL     1       1.901   8.802  19.184  0.00  0.00    +0.000 NA
ATOM      2  C   UNL     1       1.327   9.732  18.198  0.00  0.00    +0.000 C 
ATOM      3  C   UNL     1       1.161  11.148  18.774  0.00  0.00    +0.000 C 
ATOM      4  C   UNL     1       0.287  11.181  20.045  0.00  0.00    +0.000 C 
ATOM      5  C   UNL     1       0.921  10.193  21.032  0.00  0.00    +0.000 C 
ATOM      6  C   UNL     1       1.109   8.796  20.429  0.00  0.00    +0.000 C 
ENDROOT
BRANCH   4   7
ATOM      7  N   UNL     1      -1.121  10.921  19.699  0.00  0.00    +0.000 NA
ATOM      8  H   UNL     1      -1.685  10.846  20.546  0.00  0.00    +0.000 HD
BRANCH   7   9
ATOM      9  C   UNL     1      -1.773  11.947  18.853  0.00  0.00    +0.000 C 
BRANCH   9  10
ATOM     10  C   UNL     1      -3.078  12.376  19.511  0.00  0.00    +0.000 A 
ATOM     11  C   UNL     1      -4.338  12.062  18.964  0.00  0.00    +0.000 A 
ATOM     12  C   UNL     1      -5.449  12.088  19.808  0.00  0.00    +0.000 A 
ATOM     13  C   UNL     1      -5.271  12.400  21.136  0.00  0.00    +0.000 A 
ATOM     14  C   UNL     1      -4.032  12.844  21.558  0.00  0.00    +0.000 A 
ATOM     15  N   UNL     1      -2.936  12.842  20.773  0.00  0.00    +0.000 NA
ATOM     16  O   UNL     1      -6.204  12.248  22.113  0.00  0.00    +0.000 OA
ATOM     17  C   UNL     1      -7.505  11.913  21.668  0.00  0.00    +0.000 C 
ATOM     18  C   UNL     1      -7.762  12.059  20.172  0.00  0.00    +0.000 C 
ATOM     19  O   UNL     1      -6.672  11.704  19.307  0.00  0.00    +0.000 OA
ENDBRANCH   9  10
ENDBRANCH   7   9
ENDBRANCH   4   7
BRANCH   1  20
ATOM     20  C   UNL     1       2.014   7.413  18.647  0.00  0.00    +0.000 C 
BRANCH  20  21
ATOM     21  C   UNL     1       3.098   6.468  19.264  0.00  0.00    +0.000 C 
BRANCH  21  30
ATOM     22  C   UNL     1       6.468   6.251  16.827  0.00  0.00    +0.000 A 
ATOM     23  C   UNL     1       6.806   5.172  16.046  0.00  0.00    +0.000 A 
ATOM     24  C   UNL     1       5.909   4.111  15.981  0.00  0.00    +0.000 A 
ATOM     25  C   UNL     1       4.724   4.121  16.719  0.00  0.00    +0.000 A 
ATOM     26  N   UNL     1       3.871   3.097  16.620  0.00  0.00    +0.000 NA
ATOM     27  C   UNL     1       2.765   3.153  17.395  0.00  0.00    +0.000 A 
ATOM     28  C   UNL     1       2.502   4.187  18.269  0.00  0.00    +0.000 A 
ATOM     29  F   UNL     1       1.418   4.124  19.059  0.00  0.00    +0.000 F 
ATOM     30  C   UNL     1       3.371   5.275  18.351  0.00  0.00    +0.000 A 
ATOM     31  C   UNL     1       4.509   5.262  17.539  0.00  0.00    +0.000 A 
ATOM     32  N   UNL     1       5.356   6.302  17.564  0.00  0.00    +0.000 NA
BRANCH  22  34
ATOM     33  C   UNL     1       7.954   7.474  18.137  0.00  0.00    +0.000 C 
ATOM     34  O   UNL     1       7.348   7.320  16.849  0.00  0.00    +0.000 OA
ENDBRANCH  22  34
ENDBRANCH  21  30
BRANCH  21  35
ATOM     35  O   UNL     1       2.727   6.074  20.593  0.00  0.00    +0.000 OA
ATOM     36  H   UNL     1       3.316   6.501  21.235  0.00  0.00    +0.000 HD
ENDBRANCH  21  35
ENDBRANCH  20  21
ENDBRANCH   1  20
TORSDOF 8
ENDMDL
MODEL 5
REMARK VINA RESULT:      -7.6      4.016     10.769
REMARK  Name = 
REMARK  9 active torsions:
REMARK  status: ('A' for Active; 'I' for Inactive)
REMARK    1  A    between atoms: C_1  and  O_2
REMARK    2  A    between atoms: O_2  and  C_3
REMARK    3  A    between atoms: C_11  and  C_12
REMARK    4  A    between atoms: C_12  and  O_13
REMARK    5  A    between atoms: C_12  and  C_14
REMARK    6  A    between atoms: C_14  and  N_15
REMARK    7  A    between atoms: C_18  and  N_19
REMARK    8  A    between atoms: N_19  and  C_20
REMARK    9  A    between atoms: C_20  and  C_21
REMARK                            x       y       z     vdW  Elec       q    Type
REMARK                         _______ _______ _______ _____ _____    ______ ____
ROOT
ATOM      1  N   UNL     1       1.934   8.684  18.999  0.00  0.00    +0.000 NA
ATOM      2  C   UNL     1       1.533   9.691  18.003  0.00  0.00    +0.000 C 
ATOM      3  C   UNL     1       1.190  11.039  18.657  0.00  0.00    +0.000 C 
ATOM      4  C   UNL     1       0.074  10.927  19.716  0.00  0.00    +0.000 C 
ATOM      5  C   UNL     1       0.536   9.864  20.721  0.00  0.00    +0.000 C 
ATOM      6  C   UNL     1       0.905   8.537  20.047  0.00  0.00    +0.000 C 
ENDROOT
BRANCH   4   7
ATOM      7  N   UNL     1      -1.221  10.667  19.063  0.00  0.00    +0.000 NA
ATOM      8  H   UNL     1      -1.926  10.426  19.760  0.00  0.00    +0.000 HD
BRANCH   7   9
ATOM      9  C   UNL     1      -1.779  11.790  18.275  0.00  0.00    +0.000 C 
BRANCH   9  10
ATOM     10  C   UNL     1      -3.298  11.754  18.369  0.00  0.00    +0.000 A 
ATOM     11  C   UNL     1      -3.997  12.236  19.493  0.00  0.00    +0.000 A 
ATOM     12  C   UNL     1      -5.341  12.578  19.338  0.00  0.00    +0.000 A 
ATOM     13  C   UNL     1      -5.925  12.448  18.099  0.00  0.00    +0.000 A 
ATOM     14  C   UNL     1      -5.216  11.825  17.089  0.00  0.00    +0.000 A 
ATOM     15  N   UNL     1      -3.919  11.473  17.199  0.00  0.00    +0.000 NA
ATOM     16  O   UNL     1      -7.139  12.946  17.743  0.00  0.00    +0.000 OA
ATOM     17  C   UNL     1      -7.916  13.472  18.802  0.00  0.00    +0.000 C 
ATOM     18  C   UNL     1      -7.437  13.150  20.213  0.00  0.00    +0.000 C 
ATOM     19  O   UNL     1      -6.014  13.127  20.406  0.00  0.00    +0.000 OA
ENDBRANCH   9  10
ENDBRANCH   7   9
ENDBRANCH   4   7
BRANCH   1  20
ATOM     20  C   UNL     1       2.216   7.356  18.375  0.00  0.00    +0.000 C 
BRANCH  20  21
ATOM     21  C   UNL     1       3.312   6.450  19.028  0.00  0.00    +0.000 C 
BRANCH  21  30
ATOM     22  C   UNL     1       6.641   5.877  16.592  0.00  0.00    +0.000 A 
ATOM     23  C   UNL     1       6.922   4.721  15.904  0.00  0.00    +0.000 A 
ATOM     24  C   UNL     1       5.979   3.699  15.939  0.00  0.00    +0.000 A 
ATOM     25  C   UNL     1       4.805   3.824  16.682  0.00  0.00    +0.000 A 
ATOM     26  N   UNL     1       3.908   2.834  16.679  0.00  0.00    +0.000 NA
ATOM     27  C   UNL     1       2.814   3.005  17.455  0.00  0.00    +0.000 A 
ATOM     28  C   UNL     1       2.607   4.121  18.239  0.00  0.00    +0.000 A 
ATOM     29  F   UNL     1       1.530   4.174  19.040  0.00  0.00    +0.000 F 
ATOM     30  C   UNL     1       3.523   5.173  18.220  0.00  0.00    +0.000 A 
ATOM     31  C   UNL     1       4.650   5.040  17.402  0.00  0.00    +0.000 A 
ATOM     32  N   UNL     1       5.541   6.040  17.330  0.00  0.00    +0.000 NA
BRANCH  22  34
ATOM     33  C   UNL     1       7.538   7.725  17.687  0.00  0.00    +0.000 C 
ATOM     34  O   UNL     1       7.566   6.905  16.514  0.00  0.00    +0.000 OA
ENDBRANCH  22  34
ENDBRANCH  21  30
BRANCH  21  35
ATOM     35  O   UNL     1       2.997   6.189  20.403  0.00  0.00    +0.000 OA
ATOM     36  H   UNL     1       3.478   6.811  20.971  0.00  0.00    +0.000 HD
ENDBRANCH  21  35
ENDBRANCH  20  21
ENDBRANCH   1  20
TORSDOF 8
ENDMDL
MODEL 6
REMARK VINA RESULT:      -7.6      2.249      3.119
REMARK  Name = 
REMARK  9 active torsions:
REMARK  status: ('A' for Active; 'I' for Inactive)
REMARK    1  A    between atoms: C_1  and  O_2
REMARK    2  A    between atoms: O_2  and  C_3
REMARK    3  A    between atoms: C_11  and  C_12
REMARK    4  A    between atoms: C_12  and  O_13
REMARK    5  A    between atoms: C_12  and  C_14
REMARK    6  A    between atoms: C_14  and  N_15
REMARK    7  A    between atoms: C_18  and  N_19
REMARK    8  A    between atoms: N_19  and  C_20
REMARK    9  A    between atoms: C_20  and  C_21
REMARK                            x       y       z     vdW  Elec       q    Type
REMARK                         _______ _______ _______ _____ _____    ______ ____
ROOT
ATOM      1  N   UNL     1       1.387   8.366  19.553  0.00  0.00    +0.000 NA
ATOM      2  C   UNL     1       2.324   8.011  18.475  0.00  0.00    +0.000 C 
ATOM      3  C   UNL     1       2.269   6.513  18.137  0.00  0.00    +0.000 C 
ATOM      4  C   UNL     1       2.559   5.611  19.354  0.00  0.00    +0.000 C 
ATOM      5  C   UNL     1       1.565   6.025  20.447  0.00  0.00    +0.000 C 
ATOM      6  C   UNL     1       1.611   7.528  20.747  0.00  0.00    +0.000 C 
ENDROOT
BRANCH   4   7
ATOM      7  N   UNL     1       3.983   5.698  19.722  0.00  0.00    +0.000 NA
ATOM      8  H   UNL     1       4.085   6.153  20.630  0.00  0.00    +0.000 HD
BRANCH   7   9
ATOM      9  C   UNL     1       4.700   4.406  19.820  0.00  0.00    +0.000 C 
BRANCH   9  10
ATOM     10  C   UNL     1       5.531   4.203  18.560  0.00  0.00    +0.000 A 
ATOM     11  C   UNL     1       4.948   3.931  17.307  0.00  0.00    +0.000 A 
ATOM     12  C   UNL     1       5.698   4.192  16.159  0.00  0.00    +0.000 A 
ATOM     13  C   UNL     1       6.962   4.718  16.294  0.00  0.00    +0.000 A 
ATOM     14  C   UNL     1       7.517   4.811  17.556  0.00  0.00    +0.000 A 
ATOM     15  N   UNL     1       6.830   4.562  18.689  0.00  0.00    +0.000 NA
ATOM     16  O   UNL     1       7.715   5.229  15.283  0.00  0.00    +0.000 OA
ATOM     17  C   UNL     1       7.205   5.023  13.979  0.00  0.00    +0.000 C 
ATOM     18  C   UNL     1       6.065   4.019  13.853  0.00  0.00    +0.000 C 
ATOM     19  O   UNL     1       5.112   4.008  14.928  0.00  0.00    +0.000 OA
ENDBRANCH   9  10
ENDBRANCH   7   9
ENDBRANCH   4   7
BRANCH   1  20
ATOM     20  C   UNL     1       1.475   9.811  19.923  0.00  0.00    +0.000 C 
BRANCH  20  21
ATOM     21  C   UNL     1       0.808  10.860  18.972  0.00  0.00    +0.000 C 
BRANCH  21  30
ATOM     22  C   UNL     1      -2.664  11.117  16.686  0.00  0.00    +0.000 A 
ATOM     23  C   UNL     1      -3.898  11.485  17.168  0.00  0.00    +0.000 A 
ATOM     24  C   UNL     1      -3.980  11.899  18.493  0.00  0.00    +0.000 A 
ATOM     25  C   UNL     1      -2.856  11.902  19.320  0.00  0.00    +0.000 A 
ATOM     26  N   UNL     1      -2.961  12.326  20.583  0.00  0.00    +0.000 NA
ATOM     27  C   UNL     1      -1.843  12.261  21.339  0.00  0.00    +0.000 A 
ATOM     28  C   UNL     1      -0.640  11.772  20.874  0.00  0.00    +0.000 A 
ATOM     29  F   UNL     1       0.400  11.670  21.717  0.00  0.00    +0.000 F 
ATOM     30  C   UNL     1      -0.515  11.360  19.548  0.00  0.00    +0.000 A 
ATOM     31  C   UNL     1      -1.646  11.444  18.730  0.00  0.00    +0.000 A 
ATOM     32  N   UNL     1      -1.562  11.087  17.440  0.00  0.00    +0.000 NA
BRANCH  22  34
ATOM     33  C   UNL     1      -3.779  10.087  14.922  0.00  0.00    +0.000 C 
ATOM     34  O   UNL     1      -2.586  10.749  15.353  0.00  0.00    +0.000 OA
ENDBRANCH  22  34
ENDBRANCH  21  30
BRANCH  21  35
ATOM     35  O   UNL     1       0.668  10.324  17.649  0.00  0.00    +0.000 OA
ATOM     36  H   UNL     1       0.791  11.032  16.997  0.00  0.00    +0.000 HD
ENDBRANCH  21  35
ENDBRANCH  20  21
ENDBRANCH   1  20
TORSDOF 8
ENDMDL
MODEL 7
REMARK VINA RESULT:      -7.5      3.670     10.181
REMARK  Name = 
REMARK  9 active torsions:
REMARK  status: ('A' for Active; 'I' for Inactive)
REMARK    1  A    between atoms: C_1  and  O_2
REMARK    2  A    between atoms: O_2  and  C_3
REMARK    3  A    between atoms: C_11  and  C_12
REMARK    4  A    between atoms: C_12  and  O_13
REMARK    5  A    between atoms: C_12  and  C_14
REMARK    6  A    between atoms: C_14  and  N_15
REMARK    7  A    between atoms: C_18  and  N_19
REMARK    8  A    between atoms: N_19  and  C_20
REMARK    9  A    between atoms: C_20  and  C_21
REMARK                            x       y       z     vdW  Elec       q    Type
REMARK                         _______ _______ _______ _____ _____    ______ ____
ROOT
ATOM      1  N   UNL     1       1.500   7.667  20.714  0.00  0.00    +0.000 NA
ATOM      2  C   UNL     1       1.533   8.062  19.297  0.00  0.00    +0.000 C 
ATOM      3  C   UNL     1       1.738   9.576  19.127  0.00  0.00    +0.000 C 
ATOM      4  C   UNL     1       0.658  10.413  19.842  0.00  0.00    +0.000 C 
ATOM      5  C   UNL     1       0.658   9.958  21.308  0.00  0.00    +0.000 C 
ATOM      6  C   UNL     1       0.486   8.442  21.456  0.00  0.00    +0.000 C 
ENDROOT
BRANCH   4   7
ATOM      7  N   UNL     1      -0.630  10.287  19.137  0.00  0.00    +0.000 NA
ATOM      8  H   UNL     1      -1.397  10.243  19.808  0.00  0.00    +0.000 HD
BRANCH   7   9
ATOM      9  C   UNL     1      -0.957  11.387  18.201  0.00  0.00    +0.000 C 
BRANCH   9  10
ATOM     10  C   UNL     1      -2.356  11.903  18.511  0.00  0.00    +0.000 A 
ATOM     11  C   UNL     1      -3.486  11.516  17.766  0.00  0.00    +0.000 A 
ATOM     12  C   UNL     1      -4.745  11.659  18.352  0.00  0.00    +0.000 A 
ATOM     13  C   UNL     1      -4.832  12.153  19.633  0.00  0.00    +0.000 A 
ATOM     14  C   UNL     1      -3.693  12.652  20.236  0.00  0.00    +0.000 A 
ATOM     15  N   UNL     1      -2.460  12.540  19.701  0.00  0.00    +0.000 NA
ATOM     16  O   UNL     1      -5.948  12.138  20.409  0.00  0.00    +0.000 OA
ATOM     17  C   UNL     1      -7.140  11.745  19.756  0.00  0.00    +0.000 C 
ATOM     18  C   UNL     1      -7.083  11.681  18.234  0.00  0.00    +0.000 C 
ATOM     19  O   UNL     1      -5.851  11.208  17.668  0.00  0.00    +0.000 OA
ENDBRANCH   9  10
ENDBRANCH   7   9
ENDBRANCH   4   7
BRANCH   1  20
ATOM     20  C   UNL     1       1.247   6.205  20.886  0.00  0.00    +0.000 C 
BRANCH  20  21
ATOM     21  C   UNL     1       2.470   5.231  20.827  0.00  0.00    +0.000 C 
BRANCH  21  30
ATOM     22  C   UNL     1       5.363   5.581  17.852  0.00  0.00    +0.000 A 
ATOM     23  C   UNL     1       5.432   4.796  16.726  0.00  0.00    +0.000 A 
ATOM     24  C   UNL     1       4.405   3.884  16.506  0.00  0.00    +0.000 A 
ATOM     25  C   UNL     1       3.361   3.738  17.420  0.00  0.00    +0.000 A 
ATOM     26  N   UNL     1       2.377   2.868  17.172  0.00  0.00    +0.000 NA
ATOM     27  C   UNL     1       1.421   2.748  18.121  0.00  0.00    +0.000 A 
ATOM     28  C   UNL     1       1.435   3.454  19.305  0.00  0.00    +0.000 A 
ATOM     29  F   UNL     1       0.487   3.214  20.226  0.00  0.00    +0.000 F 
ATOM     30  C   UNL     1       2.440   4.387  19.555  0.00  0.00    +0.000 A 
ATOM     31  C   UNL     1       3.427   4.559  18.579  0.00  0.00    +0.000 A 
ATOM     32  N   UNL     1       4.395   5.468  18.765  0.00  0.00    +0.000 NA
BRANCH  22  34
ATOM     33  C   UNL     1       7.320   6.480  16.970  0.00  0.00    +0.000 C 
ATOM     34  O   UNL     1       6.367   6.516  18.038  0.00  0.00    +0.000 OA
ENDBRANCH  22  34
ENDBRANCH  21  30
BRANCH  21  35
ATOM     35  O   UNL     1       2.537   4.434  22.018  0.00  0.00    +0.000 OA
ATOM     36  H   UNL     1       1.800   4.663  22.605  0.00  0.00    +0.000 HD
ENDBRANCH  21  35
ENDBRANCH  20  21
ENDBRANCH   1  20
TORSDOF 8
ENDMDL
MODEL 8
REMARK VINA RESULT:      -7.5      3.023     10.449
REMARK  Name = 
REMARK  9 active torsions:
REMARK  status: ('A' for Active; 'I' for Inactive)
REMARK    1  A    between atoms: C_1  and  O_2
REMARK    2  A    between atoms: O_2  and  C_3
REMARK    3  A    between atoms: C_11  and  C_12
REMARK    4  A    between atoms: C_12  and  O_13
REMARK    5  A    between atoms: C_12  and  C_14
REMARK    6  A    between atoms: C_14  and  N_15
REMARK    7  A    between atoms: C_18  and  N_19
REMARK    8  A    between atoms: N_19  and  C_20
REMARK    9  A    between atoms: C_20  and  C_21
REMARK                            x       y       z     vdW  Elec       q    Type
REMARK                         _______ _______ _______ _____ _____    ______ ____
ROOT
ATOM      1  N   UNL     1       1.233   8.185  20.031  0.00  0.00    +0.000 NA
ATOM      2  C   UNL     1       1.369   8.468  21.469  0.00  0.00    +0.000 C 
ATOM      3  C   UNL     1       0.115   9.146  22.041  0.00  0.00    +0.000 C 
ATOM      4  C   UNL     1      -0.242  10.460  21.316  0.00  0.00    +0.000 C 
ATOM      5  C   UNL     1      -0.363  10.113  19.826  0.00  0.00    +0.000 C 
ATOM      6  C   UNL     1       0.884   9.407  19.282  0.00  0.00    +0.000 C 
ENDROOT
BRANCH   4   7
ATOM      7  N   UNL     1       0.741  11.506  21.648  0.00  0.00    +0.000 NA
ATOM      8  H   UNL     1       1.652  11.272  21.252  0.00  0.00    +0.000 HD
BRANCH   7   9
ATOM      9  C   UNL     1       0.415  12.868  21.168  0.00  0.00    +0.000 C 
BRANCH   9  10
ATOM     10  C   UNL     1      -0.872  13.335  21.836  0.00  0.00    +0.000 A 
ATOM     11  C   UNL     1      -2.142  13.094  21.278  0.00  0.00    +0.000 A 
ATOM     12  C   UNL     1      -3.253  13.144  22.121  0.00  0.00    +0.000 A 
ATOM     13  C   UNL     1      -3.066  13.409  23.458  0.00  0.00    +0.000 A 
ATOM     14  C   UNL     1      -1.810  13.785  23.895  0.00  0.00    +0.000 A 
ATOM     15  N   UNL     1      -0.712  13.756  23.113  0.00  0.00    +0.000 NA
ATOM     16  O   UNL     1      -4.007  13.269  24.429  0.00  0.00    +0.000 OA
ATOM     17  C   UNL     1      -5.321  13.006  23.971  0.00  0.00    +0.000 C 
ATOM     18  C   UNL     1      -5.567  13.207  22.480  0.00  0.00    +0.000 C 
ATOM     19  O   UNL     1      -4.491  12.830  21.607  0.00  0.00    +0.000 OA
ENDBRANCH   9  10
ENDBRANCH   7   9
ENDBRANCH   4   7
BRANCH   1  20
ATOM     20  C   UNL     1       2.470   7.575  19.458  0.00  0.00    +0.000 C 
BRANCH  20  21
ATOM     21  C   UNL     1       2.456   7.150  17.951  0.00  0.00    +0.000 C 
BRANCH  21  30
ATOM     22  C   UNL     1       6.529   6.839  17.138  0.00  0.00    +0.000 A 
ATOM     23  C   UNL     1       7.221   5.656  17.028  0.00  0.00    +0.000 A 
ATOM     24  C   UNL     1       6.495   4.471  17.091  0.00  0.00    +0.000 A 
ATOM     25  C   UNL     1       5.116   4.479  17.302  0.00  0.00    +0.000 A 
ATOM     26  N   UNL     1       4.442   3.326  17.337  0.00  0.00    +0.000 NA
ATOM     27  C   UNL     1       3.116   3.405  17.589  0.00  0.00    +0.000 A 
ATOM     28  C   UNL     1       2.459   4.595  17.822  0.00  0.00    +0.000 A 
ATOM     29  F   UNL     1       1.155   4.576  18.142  0.00  0.00    +0.000 F 
ATOM     30  C   UNL     1       3.149   5.805  17.753  0.00  0.00    +0.000 A 
ATOM     31  C   UNL     1       4.517   5.759  17.463  0.00  0.00    +0.000 A 
ATOM     32  N   UNL     1       5.213   6.900  17.357  0.00  0.00    +0.000 NA
BRANCH  22  34
ATOM     33  C   UNL     1       8.150   8.180  18.133  0.00  0.00    +0.000 C 
ATOM     34  O   UNL     1       7.255   8.013  17.029  0.00  0.00    +0.000 OA
ENDBRANCH  22  34
ENDBRANCH  21  30
BRANCH  21  35
ATOM     35  O   UNL     1       3.013   8.186  17.130  0.00  0.00    +0.000 OA
ATOM     36  H   UNL     1       2.473   8.293  16.331  0.00  0.00    +0.000 HD
ENDBRANCH  21  35
ENDBRANCH  20  21
ENDBRANCH   1  20
TORSDOF 8
ENDMDL
MODEL 9
REMARK VINA RESULT:      -7.5      2.568      3.446
REMARK  Name = 
REMARK  9 active torsions:
REMARK  status: ('A' for Active; 'I' for Inactive)
REMARK    1  A    between atoms: C_1  and  O_2
REMARK    2  A    between atoms: O_2  and  C_3
REMARK    3  A    between atoms: C_11  and  C_12
REMARK    4  A    between atoms: C_12  and  O_13
REMARK    5  A    between atoms: C_12  and  C_14
REMARK    6  A    between atoms: C_14  and  N_15
REMARK    7  A    between atoms: C_18  and  N_19
REMARK    8  A    between atoms: N_19  and  C_20
REMARK    9  A    between atoms: C_20  and  C_21
REMARK                            x       y       z     vdW  Elec       q    Type
REMARK                         _______ _______ _______ _____ _____    ______ ____
ROOT
ATOM      1  N   UNL     1       0.837   9.729  18.906  0.00  0.00    +0.000 NA
ATOM      2  C   UNL     1       0.600   8.780  20.005  0.00  0.00    +0.000 C 
ATOM      3  C   UNL     1       1.884   8.039  20.411  0.00  0.00    +0.000 C 
ATOM      4  C   UNL     1       2.535   7.277  19.238  0.00  0.00    +0.000 C 
ATOM      5  C   UNL     1       2.752   8.306  18.121  0.00  0.00    +0.000 C 
ATOM      6  C   UNL     1       1.467   9.057  17.753  0.00  0.00    +0.000 C 
ENDROOT
BRANCH   4   7
ATOM      7  N   UNL     1       1.715   6.108  18.877  0.00  0.00    +0.000 NA
ATOM      8  H   UNL     1       1.680   6.001  17.862  0.00  0.00    +0.000 HD
BRANCH   7   9
ATOM      9  C   UNL     1       2.178   4.809  19.417  0.00  0.00    +0.000 C 
BRANCH   9  10
ATOM     10  C   UNL     1       3.465   4.407  18.709  0.00  0.00    +0.000 A 
ATOM     11  C   UNL     1       3.535   4.229  17.314  0.00  0.00    +0.000 A 
ATOM     12  C   UNL     1       4.787   4.301  16.701  0.00  0.00    +0.000 A 
ATOM     13  C   UNL     1       5.895   4.559  17.475  0.00  0.00    +0.000 A 
ATOM     14  C   UNL     1       5.762   4.568  18.850  0.00  0.00    +0.000 A 
ATOM     15  N   UNL     1       4.573   4.494  19.482  0.00  0.00    +0.000 NA
ATOM     16  O   UNL     1       7.129   4.879  17.002  0.00  0.00    +0.000 OA
ATOM     17  C   UNL     1       7.299   4.749  15.603  0.00  0.00    +0.000 C 
ATOM     18  C   UNL     1       6.201   3.998  14.859  0.00  0.00    +0.000 C 
ATOM     19  O   UNL     1       4.861   4.211  15.329  0.00  0.00    +0.000 OA
ENDBRANCH   9  10
ENDBRANCH   7   9
ENDBRANCH   4   7
BRANCH   1  20
ATOM     20  C   UNL     1      -0.419  10.412  18.471  0.00  0.00    +0.000 C 
BRANCH  20  21
ATOM     21  C   UNL     1      -0.523  11.961  18.665  0.00  0.00    +0.000 C 
BRANCH  21  30
ATOM     22  C   UNL     1      -4.592  12.333  19.472  0.00  0.00    +0.000 A 
ATOM     23  C   UNL     1      -5.128  12.565  20.717  0.00  0.00    +0.000 A 
ATOM     24  C   UNL     1      -4.250  12.795  21.771  0.00  0.00    +0.000 A 
ATOM     25  C   UNL     1      -2.868  12.748  21.582  0.00  0.00    +0.000 A 
ATOM     26  N   UNL     1      -2.049  12.994  22.608  0.00  0.00    +0.000 NA
ATOM     27  C   UNL     1      -0.723  12.889  22.364  0.00  0.00    +0.000 A 
ATOM     28  C   UNL     1      -0.203  12.532  21.138  0.00  0.00    +0.000 A 
ATOM     29  F   UNL     1       1.124  12.375  21.004  0.00  0.00    +0.000 F 
ATOM     30  C   UNL     1      -1.052  12.308  20.054  0.00  0.00    +0.000 A 
ATOM     31  C   UNL     1      -2.428  12.439  20.266  0.00  0.00    +0.000 A 
ATOM     32  N   UNL     1      -3.278  12.263  19.244  0.00  0.00    +0.000 NA
BRANCH  22  34
ATOM     33  C   UNL     1      -4.839  11.523  17.305  0.00  0.00    +0.000 C 
ATOM     34  O   UNL     1      -5.476  12.151  18.423  0.00  0.00    +0.000 OA
ENDBRANCH  22  34
ENDBRANCH  21  30
BRANCH  21  35
ATOM     35  O   UNL     1      -1.302  12.549  17.613  0.00  0.00    +0.000 OA
ATOM     36  H   UNL     1      -1.632  11.852  17.024  0.00  0.00    +0.000 HD
ENDBRANCH  21  35
ENDBRANCH  20  21
ENDBRANCH   1  20
TORSDOF 8
ENDMDL
