MODEL 1
REMARK VINA RESULT:      -6.8      0.000      0.000
REMARK  Name = 
REMARK  6 active torsions:
REMARK  status: ('A' for Active; 'I' for Inactive)
REMARK    1  A    between atoms: C_2  and  C_3
REMARK    2  A    between atoms: C_3  and  O_4
REMARK    3  A    between atoms: O_4  and  C_5
REMARK    4  A    between atoms: C_6  and  O_7
REMARK    5  A    between atoms: O_7  and  C_8
REMARK    6  A    between atoms: C_8  and  C_9
REMARK                            x       y       z     vdW  Elec       q    Type
REMARK                         _______ _______ _______ _____ _____    ______ ____
ROOT
ATOM      1  C   UNL     1       5.974   5.354  16.424  0.00  0.00    +0.000 C 
ATOM      2  C   UNL     1       6.659   5.686  17.561  0.00  0.00    +0.000 C 
ATOM      3  C   UNL     1       6.365   4.988  18.856  0.00  0.00    +0.000 C 
ATOM      4  O   UNL     1       7.002   5.209  19.877  0.00  0.00    +0.000 OA
ATOM      5  C   UNL     1       5.263   3.978  18.877  0.00  0.00    +0.000 A 
ATOM      6  N   UNL     1       4.990   3.325  20.046  0.00  0.00    +0.000 NA
ATOM      7  C   UNL     1       3.975   2.438  20.038  0.00  0.00    +0.000 A 
ATOM      8  C   UNL     1       3.193   2.154  18.925  0.00  0.00    +0.000 A 
ATOM      9  C   UNL     1       3.485   2.827  17.759  0.00  0.00    +0.000 A 
ATOM     10  C   UNL     1       4.523   3.738  17.744  0.00  0.00    +0.000 A 
ATOM     11  C   UNL     1       4.806   4.436  16.547  0.00  0.00    +0.000 C 
ATOM     12  O   UNL     1       4.018   4.214  15.584  0.00  0.00    +0.000 OA
ENDROOT
BRANCH   1  13
ATOM     13  O   UNL     1       6.322   5.753  15.128  0.00  0.00    +0.000 OA
BRANCH  13  14
ATOM     14  C   UNL     1       7.234   4.788  14.535  0.00  0.00    +0.000 C 
BRANCH  14  16
ATOM     15  C   UNL     1       5.948   3.404  12.436  0.00  0.00    +0.000 C 
ATOM     16  C   UNL     1       6.542   4.043  13.405  0.00  0.00    +0.000 C 
ENDBRANCH  14  16
ENDBRANCH  13  14
ENDBRANCH   1  13
BRANCH   2  17
ATOM     17  O   UNL     1       7.671   6.670  17.645  0.00  0.00    +0.000 OA
BRANCH  17  18
ATOM     18  C   UNL     1       7.276   8.007  17.381  0.00  0.00    +0.000 C 
BRANCH  18  19
ATOM     19  C   UNL     1       8.195   9.006  18.065  0.00  0.00    +0.000 C 
ATOM     20  C   UNL     1       8.983   9.863  18.652  0.00  0.00    +0.000 C 
ENDBRANCH  18  19
ENDBRANCH  17  18
ENDBRANCH   2  17
TORSDOF 6
ENDMDL
MODEL 2
REMARK VINA RESULT:      -6.5      2.274      4.216
REMARK  Name = 
REMARK  6 active torsions:
REMARK  status: ('A' for Active; 'I' for Inactive)
REMARK    1  A    between atoms: C_2  and  C_3
REMARK    2  A    between atoms: C_3  and  O_4
REMARK    3  A    between atoms: O_4  and  C_5
REMARK    4  A    between atoms: C_6  and  O_7
REMARK    5  A    between atoms: O_7  and  C_8
REMARK    6  A    between atoms: C_8  and  C_9
REMARK                            x       y       z     vdW  Elec       q    Type
REMARK                         _______ _______ _______ _____ _____    ______ ____
ROOT
ATOM      1  C   UNL     1       5.390   4.675  18.579  0.00  0.00    +0.000 C 
ATOM      2  C   UNL     1       4.639   5.698  18.069  0.00  0.00    +0.000 C 
ATOM      3  C   UNL     1       3.199   5.851  18.461  0.00  0.00    +0.000 C 
ATOM      4  O   UNL     1       2.514   6.791  18.080  0.00  0.00    +0.000 OA
ATOM      5  C   UNL     1       2.602   4.820  19.363  0.00  0.00    +0.000 A 
ATOM      6  N   UNL     1       1.294   4.951  19.739  0.00  0.00    +0.000 NA
ATOM      7  C   UNL     1       0.778   3.992  20.533  0.00  0.00    +0.000 A 
ATOM      8  C   UNL     1       1.487   2.884  20.984  0.00  0.00    +0.000 A 
ATOM      9  C   UNL     1       2.801   2.773  20.590  0.00  0.00    +0.000 A 
ATOM     10  C   UNL     1       3.352   3.746  19.778  0.00  0.00    +0.000 A 
ATOM     11  C   UNL     1       4.697   3.614  19.365  0.00  0.00    +0.000 C 
ATOM     12  O   UNL     1       5.279   2.552  19.724  0.00  0.00    +0.000 OA
ENDROOT
BRANCH   1  13
ATOM     13  O   UNL     1       6.784   4.572  18.483  0.00  0.00    +0.000 OA
BRANCH  13  14
ATOM     14  C   UNL     1       7.418   5.501  19.404  0.00  0.00    +0.000 C 
BRANCH  14  16
ATOM     15  C   UNL     1       8.207   7.840  18.033  0.00  0.00    +0.000 C 
ATOM     16  C   UNL     1       7.843   6.760  18.666  0.00  0.00    +0.000 C 
ENDBRANCH  14  16
ENDBRANCH  13  14
ENDBRANCH   1  13
BRANCH   2  17
ATOM     17  O   UNL     1       5.105   6.680  17.165  0.00  0.00    +0.000 OA
BRANCH  17  18
ATOM     18  C   UNL     1       4.945   6.394  15.784  0.00  0.00    +0.000 C 
BRANCH  18  19
ATOM     19  C   UNL     1       5.991   5.406  15.293  0.00  0.00    +0.000 C 
ATOM     20  C   UNL     1       6.888   4.558  14.872  0.00  0.00    +0.000 C 
ENDBRANCH  18  19
ENDBRANCH  17  18
ENDBRANCH   2  17
TORSDOF 6
ENDMDL
MODEL 3
REMARK VINA RESULT:      -6.5      3.588      5.022
REMARK  Name = 
REMARK  6 active torsions:
REMARK  status: ('A' for Active; 'I' for Inactive)
REMARK    1  A    between atoms: C_2  and  C_3
REMARK    2  A    between atoms: C_3  and  O_4
REMARK    3  A    between atoms: O_4  and  C_5
REMARK    4  A    between atoms: C_6  and  O_7
REMARK    5  A    between atoms: O_7  and  C_8
REMARK    6  A    between atoms: C_8  and  C_9
REMARK                            x       y       z     vdW  Elec       q    Type
REMARK                         _______ _______ _______ _____ _____    ______ ____
ROOT
ATOM      1  C   UNL     1       3.145   6.770  18.408  0.00  0.00    +0.000 C 
ATOM      2  C   UNL     1       3.791   5.935  17.539  0.00  0.00    +0.000 C 
ATOM      3  C   UNL     1       3.561   4.454  17.595  0.00  0.00    +0.000 C 
ATOM      4  O   UNL     1       4.067   3.683  16.791  0.00  0.00    +0.000 OA
ATOM      5  C   UNL     1       2.665   3.922  18.667  0.00  0.00    +0.000 A 
ATOM      6  N   UNL     1       2.436   2.575  18.725  0.00  0.00    +0.000 NA
ATOM      7  C   UNL     1       1.644   2.123  19.717  0.00  0.00    +0.000 A 
ATOM      8  C   UNL     1       1.055   2.936  20.679  0.00  0.00    +0.000 A 
ATOM      9  C   UNL     1       1.303   4.288  20.602  0.00  0.00    +0.000 A 
ATOM     10  C   UNL     1       2.110   4.773  19.591  0.00  0.00    +0.000 A 
ATOM     11  C   UNL     1       2.372   6.161  19.529  0.00  0.00    +0.000 C 
ATOM     12  O   UNL     1       1.891   6.852  20.471  0.00  0.00    +0.000 OA
ENDROOT
BRANCH   1  13
ATOM     13  O   UNL     1       3.090   8.165  18.297  0.00  0.00    +0.000 OA
BRANCH  13  14
ATOM     14  C   UNL     1       1.880   8.563  17.595  0.00  0.00    +0.000 C 
BRANCH  14  16
ATOM     15  C   UNL     1       0.660  10.737  18.922  0.00  0.00    +0.000 C 
ATOM     16  C   UNL     1       1.223   9.733  18.310  0.00  0.00    +0.000 C 
ENDBRANCH  14  16
ENDBRANCH  13  14
ENDBRANCH   1  13
BRANCH   2  17
ATOM     17  O   UNL     1       4.700   6.347  16.537  0.00  0.00    +0.000 OA
BRANCH  17  18
ATOM     18  C   UNL     1       5.968   6.803  16.982  0.00  0.00    +0.000 C 
BRANCH  18  19
ATOM     19  C   UNL     1       6.877   5.646  17.360  0.00  0.00    +0.000 C 
ATOM     20  C   UNL     1       7.658   4.653  17.684  0.00  0.00    +0.000 C 
ENDBRANCH  18  19
ENDBRANCH  17  18
ENDBRANCH   2  17
TORSDOF 6
ENDMDL
MODEL 4
REMARK VINA RESULT:      -6.4      1.648      1.929
REMARK  Name = 
REMARK  6 active torsions:
REMARK  status: ('A' for Active; 'I' for Inactive)
REMARK    1  A    between atoms: C_2  and  C_3
REMARK    2  A    between atoms: C_3  and  O_4
REMARK    3  A    between atoms: O_4  and  C_5
REMARK    4  A    between atoms: C_6  and  O_7
REMARK    5  A    between atoms: O_7  and  C_8
REMARK    6  A    between atoms: C_8  and  C_9
REMARK                            x       y       z     vdW  Elec       q    Type
REMARK                         _______ _______ _______ _____ _____    ______ ____
ROOT
ATOM      1  C   UNL     1       4.856   3.932  16.810  0.00  0.00    +0.000 C 
ATOM      2  C   UNL     1       5.593   4.643  17.716  0.00  0.00    +0.000 C 
ATOM      3  C   UNL     1       5.032   4.960  19.070  0.00  0.00    +0.000 C 
ATOM      4  O   UNL     1       5.686   5.533  19.931  0.00  0.00    +0.000 OA
ATOM      5  C   UNL     1       3.630   4.536  19.367  0.00  0.00    +0.000 A 
ATOM      6  N   UNL     1       3.107   4.807  20.601  0.00  0.00    +0.000 NA
ATOM      7  C   UNL     1       1.832   4.434  20.830  0.00  0.00    +0.000 A 
ATOM      8  C   UNL     1       1.022   3.801  19.894  0.00  0.00    +0.000 A 
ATOM      9  C   UNL     1       1.570   3.542  18.657  0.00  0.00    +0.000 A 
ATOM     10  C   UNL     1       2.876   3.913  18.402  0.00  0.00    +0.000 A 
ATOM     11  C   UNL     1       3.425   3.657  17.125  0.00  0.00    +0.000 C 
ATOM     12  O   UNL     1       2.630   3.161  16.276  0.00  0.00    +0.000 OA
ENDROOT
BRANCH   1  13
ATOM     13  O   UNL     1       5.354   3.373  15.626  0.00  0.00    +0.000 OA
BRANCH  13  14
ATOM     14  C   UNL     1       5.352   4.366  14.564  0.00  0.00    +0.000 C 
BRANCH  14  16
ATOM     15  C   UNL     1       6.321   3.226  12.169  0.00  0.00    +0.000 C 
ATOM     16  C   UNL     1       5.873   3.753  13.275  0.00  0.00    +0.000 C 
ENDBRANCH  14  16
ENDBRANCH  13  14
ENDBRANCH   1  13
BRANCH   2  17
ATOM     17  O   UNL     1       6.901   5.135  17.497  0.00  0.00    +0.000 OA
BRANCH  17  18
ATOM     18  C   UNL     1       7.010   6.311  16.710  0.00  0.00    +0.000 C 
BRANCH  18  19
ATOM     19  C   UNL     1       7.646   7.448  17.492  0.00  0.00    +0.000 C 
ATOM     20  C   UNL     1       8.192   8.424  18.164  0.00  0.00    +0.000 C 
ENDBRANCH  18  19
ENDBRANCH  17  18
ENDBRANCH   2  17
TORSDOF 6
ENDMDL
MODEL 5
REMARK VINA RESULT:      -6.4      2.001      2.648
REMARK  Name = 
REMARK  6 active torsions:
REMARK  status: ('A' for Active; 'I' for Inactive)
REMARK    1  A    between atoms: C_2  and  C_3
REMARK    2  A    between atoms: C_3  and  O_4
REMARK    3  A    between atoms: O_4  and  C_5
REMARK    4  A    between atoms: C_6  and  O_7
REMARK    5  A    between atoms: O_7  and  C_8
REMARK    6  A    between atoms: C_8  and  C_9
REMARK                            x       y       z     vdW  Elec       q    Type
REMARK                         _______ _______ _______ _____ _____    ______ ____
ROOT
ATOM      1  C   UNL     1       4.424   5.101  17.798  0.00  0.00    +0.000 C 
ATOM      2  C   UNL     1       5.300   4.337  18.520  0.00  0.00    +0.000 C 
ATOM      3  C   UNL     1       4.798   3.413  19.590  0.00  0.00    +0.000 C 
ATOM      4  O   UNL     1       5.542   2.664  20.209  0.00  0.00    +0.000 OA
ATOM      5  C   UNL     1       3.332   3.407  19.884  0.00  0.00    +0.000 A 
ATOM      6  N   UNL     1       2.857   2.562  20.848  0.00  0.00    +0.000 NA
ATOM      7  C   UNL     1       1.535   2.597  21.107  0.00  0.00    +0.000 A 
ATOM      8  C   UNL     1       0.634   3.437  20.462  0.00  0.00    +0.000 A 
ATOM      9  C   UNL     1       1.136   4.281  19.497  0.00  0.00    +0.000 A 
ATOM     10  C   UNL     1       2.488   4.259  19.213  0.00  0.00    +0.000 A 
ATOM     11  C   UNL     1       2.998   5.140  18.233  0.00  0.00    +0.000 C 
ATOM     12  O   UNL     1       2.163   5.947  17.733  0.00  0.00    +0.000 OA
ENDROOT
BRANCH   1  13
ATOM     13  O   UNL     1       4.742   5.804  16.630  0.00  0.00    +0.000 OA
BRANCH  13  14
ATOM     14  C   UNL     1       4.812   4.892  15.500  0.00  0.00    +0.000 C 
BRANCH  14  16
ATOM     15  C   UNL     1       7.374   5.009  14.317  0.00  0.00    +0.000 C 
ATOM     16  C   UNL     1       6.191   4.955  14.864  0.00  0.00    +0.000 C 
ENDBRANCH  14  16
ENDBRANCH  13  14
ENDBRANCH   1  13
BRANCH   2  17
ATOM     17  O   UNL     1       6.703   4.326  18.351  0.00  0.00    +0.000 OA
BRANCH  17  18
ATOM     18  C   UNL     1       7.431   5.325  19.047  0.00  0.00    +0.000 C 
BRANCH  18  19
ATOM     19  C   UNL     1       7.576   6.591  18.218  0.00  0.00    +0.000 C 
ATOM     20  C   UNL     1       7.700   7.677  17.507  0.00  0.00    +0.000 C 
ENDBRANCH  18  19
ENDBRANCH  17  18
ENDBRANCH   2  17
TORSDOF 6
ENDMDL
MODEL 6
REMARK VINA RESULT:      -6.2      3.387      5.364
REMARK  Name = 
REMARK  6 active torsions:
REMARK  status: ('A' for Active; 'I' for Inactive)
REMARK    1  A    between atoms: C_2  and  C_3
REMARK    2  A    between atoms: C_3  and  O_4
REMARK    3  A    between atoms: O_4  and  C_5
REMARK    4  A    between atoms: C_6  and  O_7
REMARK    5  A    between atoms: O_7  and  C_8
REMARK    6  A    between atoms: C_8  and  C_9
REMARK                            x       y       z     vdW  Elec       q    Type
REMARK                         _______ _______ _______ _____ _____    ______ ____
ROOT
ATOM      1  C   UNL     1       4.093   5.028  17.887  0.00  0.00    +0.000 C 
ATOM      2  C   UNL     1       3.731   4.553  19.119  0.00  0.00    +0.000 C 
ATOM      3  C   UNL     1       2.849   5.368  20.017  0.00  0.00    +0.000 C 
ATOM      4  O   UNL     1       2.449   4.949  21.095  0.00  0.00    +0.000 OA
ATOM      5  C   UNL     1       2.441   6.730  19.556  0.00  0.00    +0.000 A 
ATOM      6  N   UNL     1       1.628   7.481  20.358  0.00  0.00    +0.000 NA
ATOM      7  C   UNL     1       1.297   8.714  19.926  0.00  0.00    +0.000 A 
ATOM      8  C   UNL     1       1.733   9.265  18.726  0.00  0.00    +0.000 A 
ATOM      9  C   UNL     1       2.553   8.491  17.936  0.00  0.00    +0.000 A 
ATOM     10  C   UNL     1       2.903   7.223  18.359  0.00  0.00    +0.000 A 
ATOM     11  C   UNL     1       3.758   6.441  17.550  0.00  0.00    +0.000 C 
ATOM     12  O   UNL     1       4.202   7.010  16.512  0.00  0.00    +0.000 OA
ENDROOT
BRANCH   1  13
ATOM     13  O   UNL     1       4.698   4.270  16.877  0.00  0.00    +0.000 OA
BRANCH  13  14
ATOM     14  C   UNL     1       6.142   4.435  16.925  0.00  0.00    +0.000 C 
BRANCH  14  16
ATOM     15  C   UNL     1       7.163   4.817  14.320  0.00  0.00    +0.000 C 
ATOM     16  C   UNL     1       6.691   4.641  15.523  0.00  0.00    +0.000 C 
ENDBRANCH  14  16
ENDBRANCH  13  14
ENDBRANCH   1  13
BRANCH   2  17
ATOM     17  O   UNL     1       4.121   3.306  19.658  0.00  0.00    +0.000 OA
BRANCH  17  18
ATOM     18  C   UNL     1       3.599   2.151  19.022  0.00  0.00    +0.000 C 
BRANCH  18  19
ATOM     19  C   UNL     1       2.085   2.215  18.903  0.00  0.00    +0.000 C 
ATOM     20  C   UNL     1       0.786   2.269  18.800  0.00  0.00    +0.000 C 
ENDBRANCH  18  19
ENDBRANCH  17  18
ENDBRANCH   2  17
TORSDOF 6
ENDMDL
MODEL 7
REMARK VINA RESULT:      -6.2      3.700      4.343
REMARK  Name = 
REMARK  6 active torsions:
REMARK  status: ('A' for Active; 'I' for Inactive)
REMARK    1  A    between atoms: C_2  and  C_3
REMARK    2  A    between atoms: C_3  and  O_4
REMARK    3  A    between atoms: O_4  and  C_5
REMARK    4  A    between atoms: C_6  and  O_7
REMARK    5  A    between atoms: O_7  and  C_8
REMARK    6  A    between atoms: C_8  and  C_9
REMARK                            x       y       z     vdW  Elec       q    Type
REMARK                         _______ _______ _______ _____ _____    ______ ____
ROOT
ATOM      1  C   UNL     1       3.613   6.040  17.609  0.00  0.00    +0.000 C 
ATOM      2  C   UNL     1       2.988   6.880  18.490  0.00  0.00    +0.000 C 
ATOM      3  C   UNL     1       2.224   6.326  19.655  0.00  0.00    +0.000 C 
ATOM      4  O   UNL     1       1.709   7.045  20.501  0.00  0.00    +0.000 OA
ATOM      5  C   UNL     1       2.111   4.840  19.781  0.00  0.00    +0.000 A 
ATOM      6  N   UNL     1       1.427   4.319  20.843  0.00  0.00    +0.000 NA
ATOM      7  C   UNL     1       1.322   2.977  20.915  0.00  0.00    +0.000 A 
ATOM      8  C   UNL     1       1.858   2.099  19.979  0.00  0.00    +0.000 A 
ATOM      9  C   UNL     1       2.540   2.648  18.917  0.00  0.00    +0.000 A 
ATOM     10  C   UNL     1       2.662   4.021  18.825  0.00  0.00    +0.000 A 
ATOM     11  C   UNL     1       3.350   4.577  17.722  0.00  0.00    +0.000 C 
ATOM     12  O   UNL     1       3.745   3.751  16.850  0.00  0.00    +0.000 OA
ENDROOT
BRANCH   1  13
ATOM     13  O   UNL     1       4.545   6.435  16.641  0.00  0.00    +0.000 OA
BRANCH  13  14
ATOM     14  C   UNL     1       5.788   6.838  17.279  0.00  0.00    +0.000 C 
BRANCH  14  16
ATOM     15  C   UNL     1       7.530   4.625  17.493  0.00  0.00    +0.000 C 
ATOM     16  C   UNL     1       6.726   5.647  17.394  0.00  0.00    +0.000 C 
ENDBRANCH  14  16
ENDBRANCH  13  14
ENDBRANCH   1  13
BRANCH   2  17
ATOM     17  O   UNL     1       2.991   8.291  18.412  0.00  0.00    +0.000 OA
BRANCH  17  18
ATOM     18  C   UNL     1       2.030   8.879  17.550  0.00  0.00    +0.000 C 
BRANCH  18  19
ATOM     19  C   UNL     1       0.977   9.649  18.329  0.00  0.00    +0.000 C 
ATOM     20  C   UNL     1       0.073  10.309  18.999  0.00  0.00    +0.000 C 
ENDBRANCH  18  19
ENDBRANCH  17  18
ENDBRANCH   2  17
TORSDOF 6
ENDMDL
MODEL 8
REMARK VINA RESULT:      -6.1      3.199      4.153
REMARK  Name = 
REMARK  6 active torsions:
REMARK  status: ('A' for Active; 'I' for Inactive)
REMARK    1  A    between atoms: C_2  and  C_3
REMARK    2  A    between atoms: C_3  and  O_4
REMARK    3  A    between atoms: O_4  and  C_5
REMARK    4  A    between atoms: C_6  and  O_7
REMARK    5  A    between atoms: O_7  and  C_8
REMARK    6  A    between atoms: C_8  and  C_9
REMARK                            x       y       z     vdW  Elec       q    Type
REMARK                         _______ _______ _______ _____ _____    ______ ____
ROOT
ATOM      1  C   UNL     1       4.418   6.055  17.196  0.00  0.00    +0.000 C 
ATOM      2  C   UNL     1       3.559   6.638  18.088  0.00  0.00    +0.000 C 
ATOM      3  C   UNL     1       2.716   5.791  18.994  0.00  0.00    +0.000 C 
ATOM      4  O   UNL     1       1.988   6.274  19.851  0.00  0.00    +0.000 OA
ATOM      5  C   UNL     1       2.793   4.306  18.843  0.00  0.00    +0.000 A 
ATOM      6  N   UNL     1       2.040   3.519  19.669  0.00  0.00    +0.000 NA
ATOM      7  C   UNL     1       2.113   2.185  19.492  0.00  0.00    +0.000 A 
ATOM      8  C   UNL     1       2.898   1.566  18.526  0.00  0.00    +0.000 A 
ATOM      9  C   UNL     1       3.646   2.380  17.704  0.00  0.00    +0.000 A 
ATOM     10  C   UNL     1       3.588   3.750  17.870  0.00  0.00    +0.000 A 
ATOM     11  C   UNL     1       4.347   4.578  17.011  0.00  0.00    +0.000 C 
ATOM     12  O   UNL     1       4.977   3.982  16.092  0.00  0.00    +0.000 OA
ENDROOT
BRANCH   1  13
ATOM     13  O   UNL     1       5.418   6.728  16.483  0.00  0.00    +0.000 OA
BRANCH  13  14
ATOM     14  C   UNL     1       6.725   6.415  17.039  0.00  0.00    +0.000 C 
BRANCH  14  16
ATOM     15  C   UNL     1       8.030   8.787  17.842  0.00  0.00    +0.000 C 
ATOM     16  C   UNL     1       7.427   7.692  17.471  0.00  0.00    +0.000 C 
ENDBRANCH  14  16
ENDBRANCH  13  14
ENDBRANCH   1  13
BRANCH   2  17
ATOM     17  O   UNL     1       3.377   8.030  18.254  0.00  0.00    +0.000 OA
BRANCH  17  18
ATOM     18  C   UNL     1       2.283   8.611  17.563  0.00  0.00    +0.000 C 
BRANCH  18  19
ATOM     19  C   UNL     1       1.409   9.436  18.493  0.00  0.00    +0.000 C 
ATOM     20  C   UNL     1       0.659  10.143  19.292  0.00  0.00    +0.000 C 
ENDBRANCH  18  19
ENDBRANCH  17  18
ENDBRANCH   2  17
TORSDOF 6
ENDMDL
MODEL 9
REMARK VINA RESULT:      -6.1      1.855      4.775
REMARK  Name = 
REMARK  6 active torsions:
REMARK  status: ('A' for Active; 'I' for Inactive)
REMARK    1  A    between atoms: C_2  and  C_3
REMARK    2  A    between atoms: C_3  and  O_4
REMARK    3  A    between atoms: O_4  and  C_5
REMARK    4  A    between atoms: C_6  and  O_7
REMARK    5  A    between atoms: O_7  and  C_8
REMARK    6  A    between atoms: C_8  and  C_9
REMARK                            x       y       z     vdW  Elec       q    Type
REMARK                         _______ _______ _______ _____ _____    ______ ____
ROOT
ATOM      1  C   UNL     1       5.429   4.743  17.725  0.00  0.00    +0.000 C 
ATOM      2  C   UNL     1       4.782   3.942  16.825  0.00  0.00    +0.000 C 
ATOM      3  C   UNL     1       3.378   3.484  17.087  0.00  0.00    +0.000 C 
ATOM      4  O   UNL     1       2.743   2.824  16.276  0.00  0.00    +0.000 OA
ATOM      5  C   UNL     1       2.742   3.871  18.384  0.00  0.00    +0.000 A 
ATOM      6  N   UNL     1       1.459   3.472  18.634  0.00  0.00    +0.000 NA
ATOM      7  C   UNL     1       0.923   3.816  19.821  0.00  0.00    +0.000 A 
ATOM      8  C   UNL     1       1.591   4.542  20.801  0.00  0.00    +0.000 A 
ATOM      9  C   UNL     1       2.883   4.930  20.527  0.00  0.00    +0.000 A 
ATOM     10  C   UNL     1       3.452   4.591  19.315  0.00  0.00    +0.000 A 
ATOM     11  C   UNL     1       4.785   4.980  19.049  0.00  0.00    +0.000 C 
ATOM     12  O   UNL     1       5.385   5.561  19.997  0.00  0.00    +0.000 OA
ENDROOT
BRANCH   1  13
ATOM     13  O   UNL     1       6.628   5.424  17.483  0.00  0.00    +0.000 OA
BRANCH  13  14
ATOM     14  C   UNL     1       6.352   6.763  16.986  0.00  0.00    +0.000 C 
BRANCH  14  16
ATOM     15  C   UNL     1       8.250   8.587  18.007  0.00  0.00    +0.000 C 
ATOM     16  C   UNL     1       7.373   7.745  17.536  0.00  0.00    +0.000 C 
ENDBRANCH  14  16
ENDBRANCH  13  14
ENDBRANCH   1  13
BRANCH   2  17
ATOM     17  O   UNL     1       5.328   3.479  15.606  0.00  0.00    +0.000 OA
BRANCH  17  18
ATOM     18  C   UNL     1       5.401   4.421  14.548  0.00  0.00    +0.000 C 
BRANCH  18  19
ATOM     19  C   UNL     1       5.878   3.776  13.257  0.00  0.00    +0.000 C 
ATOM     20  C   UNL     1       6.287   3.223  12.149  0.00  0.00    +0.000 C 
ENDBRANCH  18  19
ENDBRANCH  17  18
ENDBRANCH   2  17
TORSDOF 6
ENDMDL
