MODEL 1
REMARK VINA RESULT:      -7.3      0.000      0.000
REMARK  Name = 
REMARK  13 active torsions:
REMARK  status: ('A' for Active; 'I' for Inactive)
REMARK    1  A    between atoms: C_1  and  C_2
REMARK    2  A    between atoms: C_2  and  C_3
REMARK    3  A    between atoms: C_3  and  C_4
REMARK    4  A    between atoms: C_4  and  C_5
REMARK    5  A    between atoms: C_5  and  C_6
REMARK    6  A    between atoms: C_6  and  C_7
REMARK    7  A    between atoms: C_7  and  C_8
REMARK    8  A    between atoms: C_8  and  C_9
REMARK    9  A    between atoms: C_12  and  O_13
REMARK   10  A    between atoms: O_13  and  C_14
REMARK   11  A    between atoms: C_14  and  C_15
REMARK   12  A    between atoms: C_15  and  C_17
REMARK   13  A    between atoms: C_17  and  N_18
REMARK                            x       y       z     vdW  Elec       q    Type
REMARK                         _______ _______ _______ _____ _____    ______ ____
ROOT
ATOM      1  O   UNL     1       4.964   3.659  17.762  0.00  0.00    +0.000 OA
ENDROOT
BRANCH   1   5
ATOM      2  C   UNL     1       7.280   7.195  17.537  0.00  0.00    +0.000 A 
ATOM      3  C   UNL     1       7.559   6.156  18.430  0.00  0.00    +0.000 A 
ATOM      4  C   UNL     1       6.758   5.002  18.463  0.00  0.00    +0.000 A 
ATOM      5  C   UNL     1       5.640   4.846  17.628  0.00  0.00    +0.000 A 
ATOM      6  C   UNL     1       5.362   5.877  16.731  0.00  0.00    +0.000 A 
ATOM      7  C   UNL     1       6.171   7.029  16.688  0.00  0.00    +0.000 A 
BRANCH   2   8
ATOM      8  C   UNL     1       8.079   8.486  17.524  0.00  0.00    +0.000 C 
BRANCH   8   9
ATOM      9  C   UNL     1       8.651   8.970  18.867  0.00  0.00    +0.000 C 
BRANCH   9  10
ATOM     10  C   UNL     1       9.384  10.313  18.782  0.00  0.00    +0.000 C 
BRANCH  10  11
ATOM     11  C   UNL     1       9.502  10.965  20.168  0.00  0.00    +0.000 C 
BRANCH  11  12
ATOM     12  C   UNL     1      10.808  11.749  20.320  0.00  0.00    +0.000 C 
BRANCH  12  13
ATOM     13  C   UNL     1      10.772  13.058  19.526  0.00  0.00    +0.000 C 
BRANCH  13  15
ATOM     14  C   UNL     1      11.405  12.953  17.086  0.00  0.00    +0.000 C 
ATOM     15  C   UNL     1      11.912  13.120  18.509  0.00  0.00    +0.000 C 
ENDBRANCH  13  15
ENDBRANCH  12  13
ENDBRANCH  11  12
ENDBRANCH  10  11
ENDBRANCH   9  10
ENDBRANCH   8   9
ENDBRANCH   2   8
ENDBRANCH   1   5
BRANCH   1  16
ATOM     16  C   UNL     1       4.140   3.409  18.909  0.00  0.00    +0.000 C 
BRANCH  16  17
ATOM     17  C   UNL     1       2.962   4.400  19.015  0.00  0.00    +0.000 C 
ATOM     18  O   UNL     1       1.838   4.148  18.583  0.00  0.00    +0.000 OA
BRANCH  17  19
ATOM     19  C   UNL     1       3.167   5.725  19.778  0.00  0.00    +0.000 C 
BRANCH  19  20
ATOM     20  N   UNL     1       2.375   6.857  19.304  0.00  0.00    +0.000 N 
ATOM     21  C   UNL     1       2.362   7.239  17.988  0.00  0.00    +0.000 A 
ATOM     22  C   UNL     1       2.435   8.607  17.987  0.00  0.00    +0.000 A 
ATOM     23  C   UNL     1       1.676   8.951  19.127  0.00  0.00    +0.000 A 
ATOM     24  C   UNL     1       0.891  10.077  19.407  0.00  0.00    +0.000 A 
ATOM     25  C   UNL     1       0.106  10.065  20.557  0.00  0.00    +0.000 A 
ATOM     26 CL   UNL     1      -1.063  11.315  20.764  0.00  0.00    +0.000 Cl
ATOM     27  C   UNL     1       0.203   9.021  21.476  0.00  0.00    +0.000 A 
ATOM     28  C   UNL     1       1.038   7.908  21.246  0.00  0.00    +0.000 A 
ATOM     29  C   UNL     1       1.694   7.848  20.002  0.00  0.00    +0.000 A 
ENDBRANCH  19  20
ENDBRANCH  17  19
ENDBRANCH  16  17
ENDBRANCH   1  16
TORSDOF 12
ENDMDL
MODEL 2
REMARK VINA RESULT:      -7.2      4.831      7.003
REMARK  Name = 
REMARK  13 active torsions:
REMARK  status: ('A' for Active; 'I' for Inactive)
REMARK    1  A    between atoms: C_1  and  C_2
REMARK    2  A    between atoms: C_2  and  C_3
REMARK    3  A    between atoms: C_3  and  C_4
REMARK    4  A    between atoms: C_4  and  C_5
REMARK    5  A    between atoms: C_5  and  C_6
REMARK    6  A    between atoms: C_6  and  C_7
REMARK    7  A    between atoms: C_7  and  C_8
REMARK    8  A    between atoms: C_8  and  C_9
REMARK    9  A    between atoms: C_12  and  O_13
REMARK   10  A    between atoms: O_13  and  C_14
REMARK   11  A    between atoms: C_14  and  C_15
REMARK   12  A    between atoms: C_15  and  C_17
REMARK   13  A    between atoms: C_17  and  N_18
REMARK                            x       y       z     vdW  Elec       q    Type
REMARK                         _______ _______ _______ _____ _____    ______ ____
ROOT
ATOM      1  O   UNL     1       1.323   8.903  20.022  0.00  0.00    +0.000 OA
ENDROOT
BRANCH   1   5
ATOM      2  C   UNL     1       3.419   5.640  18.325  0.00  0.00    +0.000 A 
ATOM      3  C   UNL     1       3.249   6.863  17.668  0.00  0.00    +0.000 A 
ATOM      4  C   UNL     1       2.544   7.914  18.278  0.00  0.00    +0.000 A 
ATOM      5  C   UNL     1       1.966   7.786  19.550  0.00  0.00    +0.000 A 
ATOM      6  C   UNL     1       2.139   6.570  20.212  0.00  0.00    +0.000 A 
ATOM      7  C   UNL     1       2.855   5.519  19.608  0.00  0.00    +0.000 A 
BRANCH   2   8
ATOM      8  C   UNL     1       4.110   4.459  17.668  0.00  0.00    +0.000 C 
BRANCH   8   9
ATOM      9  C   UNL     1       5.611   4.277  17.952  0.00  0.00    +0.000 C 
BRANCH   9  10
ATOM     10  C   UNL     1       6.501   4.433  16.714  0.00  0.00    +0.000 C 
BRANCH  10  11
ATOM     11  C   UNL     1       6.027   5.602  15.838  0.00  0.00    +0.000 C 
BRANCH  11  12
ATOM     12  C   UNL     1       5.608   5.135  14.441  0.00  0.00    +0.000 C 
BRANCH  12  13
ATOM     13  C   UNL     1       6.185   3.755  14.115  0.00  0.00    +0.000 C 
BRANCH  13  15
ATOM     14  C   UNL     1       4.787   3.480  12.033  0.00  0.00    +0.000 C 
ATOM     15  C   UNL     1       6.194   3.502  12.607  0.00  0.00    +0.000 C 
ENDBRANCH  13  15
ENDBRANCH  12  13
ENDBRANCH  11  12
ENDBRANCH  10  11
ENDBRANCH   9  10
ENDBRANCH   8   9
ENDBRANCH   2   8
ENDBRANCH   1   5
BRANCH   1  16
ATOM     16  C   UNL     1       0.496   8.835  21.192  0.00  0.00    +0.000 C 
BRANCH  16  17
ATOM     17  C   UNL     1       0.307  10.213  21.860  0.00  0.00    +0.000 C 
ATOM     18  O   UNL     1       0.057  10.344  23.057  0.00  0.00    +0.000 OA
BRANCH  17  19
ATOM     19  C   UNL     1       0.534  11.488  21.021  0.00  0.00    +0.000 C 
BRANCH  19  20
ATOM     20  N   UNL     1      -0.600  11.923  20.212  0.00  0.00    +0.000 N 
ATOM     21  C   UNL     1      -1.355  13.018  20.542  0.00  0.00    +0.000 A 
ATOM     22  C   UNL     1      -2.661  12.658  20.336  0.00  0.00    +0.000 A 
ATOM     23  C   UNL     1      -2.568  11.822  19.201  0.00  0.00    +0.000 A 
ATOM     24  C   UNL     1      -3.472  11.578  18.159  0.00  0.00    +0.000 A 
ATOM     25  C   UNL     1      -3.036  10.831  17.069  0.00  0.00    +0.000 A 
ATOM     26 CL   UNL     1      -4.041  10.760  15.670  0.00  0.00    +0.000 Cl
ATOM     27  C   UNL     1      -1.781  10.224  17.076  0.00  0.00    +0.000 A 
ATOM     28  C   UNL     1      -0.879  10.402  18.145  0.00  0.00    +0.000 A 
ATOM     29  C   UNL     1      -1.262  11.299  19.161  0.00  0.00    +0.000 A 
ENDBRANCH  19  20
ENDBRANCH  17  19
ENDBRANCH  16  17
ENDBRANCH   1  16
TORSDOF 12
ENDMDL
MODEL 3
REMARK VINA RESULT:      -7.2      4.931      7.954
REMARK  Name = 
REMARK  13 active torsions:
REMARK  status: ('A' for Active; 'I' for Inactive)
REMARK    1  A    between atoms: C_1  and  C_2
REMARK    2  A    between atoms: C_2  and  C_3
REMARK    3  A    between atoms: C_3  and  C_4
REMARK    4  A    between atoms: C_4  and  C_5
REMARK    5  A    between atoms: C_5  and  C_6
REMARK    6  A    between atoms: C_6  and  C_7
REMARK    7  A    between atoms: C_7  and  C_8
REMARK    8  A    between atoms: C_8  and  C_9
REMARK    9  A    between atoms: C_12  and  O_13
REMARK   10  A    between atoms: O_13  and  C_14
REMARK   11  A    between atoms: C_14  and  C_15
REMARK   12  A    between atoms: C_15  and  C_17
REMARK   13  A    between atoms: C_17  and  N_18
REMARK                            x       y       z     vdW  Elec       q    Type
REMARK                         _______ _______ _______ _____ _____    ______ ____
ROOT
ATOM      1  O   UNL     1       0.909   9.385  19.951  0.00  0.00    +0.000 OA
ENDROOT
BRANCH   1   5
ATOM      2  C   UNL     1       3.453   6.448  18.271  0.00  0.00    +0.000 A 
ATOM      3  C   UNL     1       2.889   6.330  19.545  0.00  0.00    +0.000 A 
ATOM      4  C   UNL     1       2.049   7.336  20.055  0.00  0.00    +0.000 A 
ATOM      5  C   UNL     1       1.756   8.501  19.330  0.00  0.00    +0.000 A 
ATOM      6  C   UNL     1       2.311   8.619  18.056  0.00  0.00    +0.000 A 
ATOM      7  C   UNL     1       3.144   7.608  17.539  0.00  0.00    +0.000 A 
BRANCH   2   8
ATOM      8  C   UNL     1       4.422   5.418  17.719  0.00  0.00    +0.000 C 
BRANCH   8   9
ATOM      9  C   UNL     1       4.691   4.174  18.582  0.00  0.00    +0.000 C 
BRANCH   9  10
ATOM     10  C   UNL     1       3.841   2.958  18.202  0.00  0.00    +0.000 C 
BRANCH  10  11
ATOM     11  C   UNL     1       2.688   3.361  17.272  0.00  0.00    +0.000 C 
BRANCH  11  12
ATOM     12  C   UNL     1       1.344   3.384  18.006  0.00  0.00    +0.000 C 
BRANCH  12  13
ATOM     13  C   UNL     1       1.352   2.450  19.219  0.00  0.00    +0.000 C 
BRANCH  13  15
ATOM     14  C   UNL     1       2.091   3.107  21.540  0.00  0.00    +0.000 C 
ATOM     15  C   UNL     1       0.987   3.202  20.499  0.00  0.00    +0.000 C 
ENDBRANCH  13  15
ENDBRANCH  12  13
ENDBRANCH  11  12
ENDBRANCH  10  11
ENDBRANCH   9  10
ENDBRANCH   8   9
ENDBRANCH   2   8
ENDBRANCH   1   5
BRANCH   1  16
ATOM     16  C   UNL     1       0.998   9.619  21.362  0.00  0.00    +0.000 C 
BRANCH  16  17
ATOM     17  C   UNL     1      -0.273  10.286  21.930  0.00  0.00    +0.000 C 
ATOM     18  O   UNL     1      -0.795   9.933  22.986  0.00  0.00    +0.000 OA
BRANCH  17  19
ATOM     19  C   UNL     1      -0.863  11.512  21.202  0.00  0.00    +0.000 C 
BRANCH  19  20
ATOM     20  N   UNL     1       0.048  12.639  21.022  0.00  0.00    +0.000 N 
ATOM     21  C   UNL     1       0.112  13.675  21.916  0.00  0.00    +0.000 A 
ATOM     22  C   UNL     1       0.183  14.821  21.168  0.00  0.00    +0.000 A 
ATOM     23  C   UNL     1       0.964  14.414  20.064  0.00  0.00    +0.000 A 
ATOM     24  C   UNL     1       1.860  15.124  19.256  0.00  0.00    +0.000 A 
ATOM     25  C   UNL     1       2.630  14.413  18.340  0.00  0.00    +0.000 A 
ATOM     26 CL   UNL     1       3.921  15.231  17.544  0.00  0.00    +0.000 Cl
ATOM     27  C   UNL     1       2.415  13.051  18.134  0.00  0.00    +0.000 A 
ATOM     28  C   UNL     1       1.470  12.328  18.891  0.00  0.00    +0.000 A 
ATOM     29  C   UNL     1       0.822  13.019  19.932  0.00  0.00    +0.000 A 
ENDBRANCH  19  20
ENDBRANCH  17  19
ENDBRANCH  16  17
ENDBRANCH   1  16
TORSDOF 12
ENDMDL
MODEL 4
REMARK VINA RESULT:      -7.1      4.889      7.639
REMARK  Name = 
REMARK  13 active torsions:
REMARK  status: ('A' for Active; 'I' for Inactive)
REMARK    1  A    between atoms: C_1  and  C_2
REMARK    2  A    between atoms: C_2  and  C_3
REMARK    3  A    between atoms: C_3  and  C_4
REMARK    4  A    between atoms: C_4  and  C_5
REMARK    5  A    between atoms: C_5  and  C_6
REMARK    6  A    between atoms: C_6  and  C_7
REMARK    7  A    between atoms: C_7  and  C_8
REMARK    8  A    between atoms: C_8  and  C_9
REMARK    9  A    between atoms: C_12  and  O_13
REMARK   10  A    between atoms: O_13  and  C_14
REMARK   11  A    between atoms: C_14  and  C_15
REMARK   12  A    between atoms: C_15  and  C_17
REMARK   13  A    between atoms: C_17  and  N_18
REMARK                            x       y       z     vdW  Elec       q    Type
REMARK                         _______ _______ _______ _____ _____    ______ ____
ROOT
ATOM      1  O   UNL     1       0.464   9.824  20.364  0.00  0.00    +0.000 OA
ENDROOT
BRANCH   1   5
ATOM      2  C   UNL     1       2.962   6.953  18.510  0.00  0.00    +0.000 A 
ATOM      3  C   UNL     1       2.482   6.816  19.816  0.00  0.00    +0.000 A 
ATOM      4  C   UNL     1       1.655   7.800  20.384  0.00  0.00    +0.000 A 
ATOM      5  C   UNL     1       1.290   8.962  19.686  0.00  0.00    +0.000 A 
ATOM      6  C   UNL     1       1.761   9.099  18.380  0.00  0.00    +0.000 A 
ATOM      7  C   UNL     1       2.581   8.109  17.805  0.00  0.00    +0.000 A 
BRANCH   2   8
ATOM      8  C   UNL     1       3.916   5.948  17.891  0.00  0.00    +0.000 C 
BRANCH   8   9
ATOM      9  C   UNL     1       5.106   6.508  17.093  0.00  0.00    +0.000 C 
BRANCH   9  10
ATOM     10  C   UNL     1       5.180   6.003  15.649  0.00  0.00    +0.000 C 
BRANCH  10  11
ATOM     11  C   UNL     1       6.324   4.993  15.476  0.00  0.00    +0.000 C 
BRANCH  11  12
ATOM     12  C   UNL     1       6.009   3.952  14.398  0.00  0.00    +0.000 C 
BRANCH  12  13
ATOM     13  C   UNL     1       6.869   4.160  13.149  0.00  0.00    +0.000 C 
BRANCH  13  15
ATOM     14  C   UNL     1       4.805   3.354  11.943  0.00  0.00    +0.000 C 
ATOM     15  C   UNL     1       6.324   3.363  11.963  0.00  0.00    +0.000 C 
ENDBRANCH  13  15
ENDBRANCH  12  13
ENDBRANCH  11  12
ENDBRANCH  10  11
ENDBRANCH   9  10
ENDBRANCH   8   9
ENDBRANCH   2   8
ENDBRANCH   1   5
BRANCH   1  16
ATOM     16  C   UNL     1       0.980  11.025  20.953  0.00  0.00    +0.000 C 
BRANCH  16  17
ATOM     17  C   UNL     1       0.077  12.247  20.687  0.00  0.00    +0.000 C 
ATOM     18  O   UNL     1       0.478  13.259  20.114  0.00  0.00    +0.000 OA
BRANCH  17  19
ATOM     19  C   UNL     1      -1.417  12.168  21.063  0.00  0.00    +0.000 C 
BRANCH  19  20
ATOM     20  N   UNL     1      -2.355  12.243  19.946  0.00  0.00    +0.000 N 
ATOM     21  C   UNL     1      -3.484  13.018  19.992  0.00  0.00    +0.000 A 
ATOM     22  C   UNL     1      -4.489  12.260  19.449  0.00  0.00    +0.000 A 
ATOM     23  C   UNL     1      -3.815  11.548  18.433  0.00  0.00    +0.000 A 
ATOM     24  C   UNL     1      -4.259  11.067  17.194  0.00  0.00    +0.000 A 
ATOM     25  C   UNL     1      -3.316  10.548  16.311  0.00  0.00    +0.000 A 
ATOM     26 CL   UNL     1      -3.806  10.212  14.693  0.00  0.00    +0.000 Cl
ATOM     27  C   UNL     1      -1.987  10.384  16.702  0.00  0.00    +0.000 A 
ATOM     28  C   UNL     1      -1.532  10.801  17.970  0.00  0.00    +0.000 A 
ATOM     29  C   UNL     1      -2.454  11.481  18.787  0.00  0.00    +0.000 A 
ENDBRANCH  19  20
ENDBRANCH  17  19
ENDBRANCH  16  17
ENDBRANCH   1  16
TORSDOF 12
ENDMDL
MODEL 5
REMARK VINA RESULT:      -7.0      3.520      6.143
REMARK  Name = 
REMARK  13 active torsions:
REMARK  status: ('A' for Active; 'I' for Inactive)
REMARK    1  A    between atoms: C_1  and  C_2
REMARK    2  A    between atoms: C_2  and  C_3
REMARK    3  A    between atoms: C_3  and  C_4
REMARK    4  A    between atoms: C_4  and  C_5
REMARK    5  A    between atoms: C_5  and  C_6
REMARK    6  A    between atoms: C_6  and  C_7
REMARK    7  A    between atoms: C_7  and  C_8
REMARK    8  A    between atoms: C_8  and  C_9
REMARK    9  A    between atoms: C_12  and  O_13
REMARK   10  A    between atoms: O_13  and  C_14
REMARK   11  A    between atoms: C_14  and  C_15
REMARK   12  A    between atoms: C_15  and  C_17
REMARK   13  A    between atoms: C_17  and  N_18
REMARK                            x       y       z     vdW  Elec       q    Type
REMARK                         _______ _______ _______ _____ _____    ______ ____
ROOT
ATOM      1  O   UNL     1       8.640   8.842  18.673  0.00  0.00    +0.000 OA
ENDROOT
BRANCH   1   5
ATOM      2  C   UNL     1      10.066  12.774  19.324  0.00  0.00    +0.000 A 
ATOM      3  C   UNL     1       9.567  12.337  18.092  0.00  0.00    +0.000 A 
ATOM      4  C   UNL     1       9.105  11.020  17.931  0.00  0.00    +0.000 A 
ATOM      5  C   UNL     1       9.140  10.084  18.976  0.00  0.00    +0.000 A 
ATOM      6  C   UNL     1       9.631  10.517  20.208  0.00  0.00    +0.000 A 
ATOM      7  C   UNL     1      10.083  11.840  20.375  0.00  0.00    +0.000 A 
BRANCH   2   8
ATOM      8  C   UNL     1      10.641  14.166  19.514  0.00  0.00    +0.000 C 
BRANCH   8   9
ATOM      9  C   UNL     1      10.366  15.196  18.406  0.00  0.00    +0.000 C 
BRANCH   9  10
ATOM     10  C   UNL     1       9.141  16.078  18.666  0.00  0.00    +0.000 C 
BRANCH  10  11
ATOM     11  C   UNL     1       7.962  15.660  17.774  0.00  0.00    +0.000 C 
BRANCH  11  12
ATOM     12  C   UNL     1       6.944  14.807  18.536  0.00  0.00    +0.000 C 
BRANCH  12  13
ATOM     13  C   UNL     1       5.564  14.857  17.874  0.00  0.00    +0.000 C 
BRANCH  13  15
ATOM     14  C   UNL     1       4.886  16.076  19.976  0.00  0.00    +0.000 C 
ATOM     15  C   UNL     1       4.705  15.972  18.471  0.00  0.00    +0.000 C 
ENDBRANCH  13  15
ENDBRANCH  12  13
ENDBRANCH  11  12
ENDBRANCH  10  11
ENDBRANCH   9  10
ENDBRANCH   8   9
ENDBRANCH   2   8
ENDBRANCH   1   5
BRANCH   1  16
ATOM     16  C   UNL     1       7.682   8.673  17.620  0.00  0.00    +0.000 C 
BRANCH  16  17
ATOM     17  C   UNL     1       7.405   7.187  17.307  0.00  0.00    +0.000 C 
ATOM     18  O   UNL     1       7.827   6.630  16.295  0.00  0.00    +0.000 OA
BRANCH  17  19
ATOM     19  C   UNL     1       6.654   6.331  18.348  0.00  0.00    +0.000 C 
BRANCH  19  20
ATOM     20  N   UNL     1       5.264   6.020  18.026  0.00  0.00    +0.000 N 
ATOM     21  C   UNL     1       4.461   6.893  17.341  0.00  0.00    +0.000 A 
ATOM     22  C   UNL     1       3.246   6.871  17.974  0.00  0.00    +0.000 A 
ATOM     23  C   UNL     1       3.134   5.520  18.367  0.00  0.00    +0.000 A 
ATOM     24  C   UNL     1       2.013   4.696  18.529  0.00  0.00    +0.000 A 
ATOM     25  C   UNL     1       2.218   3.338  18.758  0.00  0.00    +0.000 A 
ATOM     26 CL   UNL     1       0.860   2.280  18.683  0.00  0.00    +0.000 Cl
ATOM     27  C   UNL     1       3.503   2.836  18.960  0.00  0.00    +0.000 A 
ATOM     28  C   UNL     1       4.643   3.660  18.867  0.00  0.00    +0.000 A 
ATOM     29  C   UNL     1       4.436   4.993  18.464  0.00  0.00    +0.000 A 
ENDBRANCH  19  20
ENDBRANCH  17  19
ENDBRANCH  16  17
ENDBRANCH   1  16
TORSDOF 12
ENDMDL
MODEL 6
REMARK VINA RESULT:      -7.0      5.046      8.211
REMARK  Name = 
REMARK  13 active torsions:
REMARK  status: ('A' for Active; 'I' for Inactive)
REMARK    1  A    between atoms: C_1  and  C_2
REMARK    2  A    between atoms: C_2  and  C_3
REMARK    3  A    between atoms: C_3  and  C_4
REMARK    4  A    between atoms: C_4  and  C_5
REMARK    5  A    between atoms: C_5  and  C_6
REMARK    6  A    between atoms: C_6  and  C_7
REMARK    7  A    between atoms: C_7  and  C_8
REMARK    8  A    between atoms: C_8  and  C_9
REMARK    9  A    between atoms: C_12  and  O_13
REMARK   10  A    between atoms: O_13  and  C_14
REMARK   11  A    between atoms: C_14  and  C_15
REMARK   12  A    between atoms: C_15  and  C_17
REMARK   13  A    between atoms: C_17  and  N_18
REMARK                            x       y       z     vdW  Elec       q    Type
REMARK                         _______ _______ _______ _____ _____    ______ ____
ROOT
ATOM      1  O   UNL     1       1.307   9.560  18.730  0.00  0.00    +0.000 OA
ENDROOT
BRANCH   1   5
ATOM      2  C   UNL     1       3.747   6.104  18.588  0.00  0.00    +0.000 A 
ATOM      3  C   UNL     1       3.759   7.088  17.594  0.00  0.00    +0.000 A 
ATOM      4  C   UNL     1       2.928   8.217  17.691  0.00  0.00    +0.000 A 
ATOM      5  C   UNL     1       2.043   8.402  18.764  0.00  0.00    +0.000 A 
ATOM      6  C   UNL     1       2.033   7.426  19.761  0.00  0.00    +0.000 A 
ATOM      7  C   UNL     1       2.873   6.300  19.672  0.00  0.00    +0.000 A 
BRANCH   2   8
ATOM      8  C   UNL     1       4.576   4.837  18.480  0.00  0.00    +0.000 C 
BRANCH   8   9
ATOM      9  C   UNL     1       4.476   4.043  17.166  0.00  0.00    +0.000 C 
BRANCH   9  10
ATOM     10  C   UNL     1       3.079   3.482  16.884  0.00  0.00    +0.000 C 
BRANCH  10  11
ATOM     11  C   UNL     1       2.512   2.768  18.120  0.00  0.00    +0.000 C 
BRANCH  11  12
ATOM     12  C   UNL     1       1.071   3.195  18.415  0.00  0.00    +0.000 C 
BRANCH  12  13
ATOM     13  C   UNL     1       0.632   2.756  19.815  0.00  0.00    +0.000 C 
BRANCH  13  15
ATOM     14  C   UNL     1       2.240   2.679  21.757  0.00  0.00    +0.000 C 
ATOM     15  C   UNL     1       1.350   3.562  20.898  0.00  0.00    +0.000 C 
ENDBRANCH  13  15
ENDBRANCH  12  13
ENDBRANCH  11  12
ENDBRANCH  10  11
ENDBRANCH   9  10
ENDBRANCH   8   9
ENDBRANCH   2   8
ENDBRANCH   1   5
BRANCH   1  16
ATOM     16  C   UNL     1       0.306   9.824  19.722  0.00  0.00    +0.000 C 
BRANCH  16  17
ATOM     17  C   UNL     1      -0.249  11.261  19.632  0.00  0.00    +0.000 C 
ATOM     18  O   UNL     1       0.017  12.130  20.460  0.00  0.00    +0.000 OA
BRANCH  17  19
ATOM     19  C   UNL     1      -1.092  11.661  18.404  0.00  0.00    +0.000 C 
BRANCH  19  20
ATOM     20  N   UNL     1      -2.510  11.315  18.470  0.00  0.00    +0.000 N 
ATOM     21  C   UNL     1      -3.066  10.361  17.660  0.00  0.00    +0.000 A 
ATOM     22  C   UNL     1      -4.263  10.873  17.234  0.00  0.00    +0.000 A 
ATOM     23  C   UNL     1      -4.704  11.593  18.365  0.00  0.00    +0.000 A 
ATOM     24  C   UNL     1      -5.993  11.869  18.838  0.00  0.00    +0.000 A 
ATOM     25  C   UNL     1      -6.124  12.461  20.091  0.00  0.00    +0.000 A 
ATOM     26 CL   UNL     1      -7.694  12.550  20.796  0.00  0.00    +0.000 Cl
ATOM     27  C   UNL     1      -5.001  12.895  20.796  0.00  0.00    +0.000 A 
ATOM     28  C   UNL     1      -3.695  12.687  20.307  0.00  0.00    +0.000 A 
ATOM     29  C   UNL     1      -3.568  11.935  19.124  0.00  0.00    +0.000 A 
ENDBRANCH  19  20
ENDBRANCH  17  19
ENDBRANCH  16  17
ENDBRANCH   1  16
TORSDOF 12
ENDMDL
MODEL 7
REMARK VINA RESULT:      -7.0      1.885      3.027
REMARK  Name = 
REMARK  13 active torsions:
REMARK  status: ('A' for Active; 'I' for Inactive)
REMARK    1  A    between atoms: C_1  and  C_2
REMARK    2  A    between atoms: C_2  and  C_3
REMARK    3  A    between atoms: C_3  and  C_4
REMARK    4  A    between atoms: C_4  and  C_5
REMARK    5  A    between atoms: C_5  and  C_6
REMARK    6  A    between atoms: C_6  and  C_7
REMARK    7  A    between atoms: C_7  and  C_8
REMARK    8  A    between atoms: C_8  and  C_9
REMARK    9  A    between atoms: C_12  and  O_13
REMARK   10  A    between atoms: O_13  and  C_14
REMARK   11  A    between atoms: C_14  and  C_15
REMARK   12  A    between atoms: C_15  and  C_17
REMARK   13  A    between atoms: C_17  and  N_18
REMARK                            x       y       z     vdW  Elec       q    Type
REMARK                         _______ _______ _______ _____ _____    ______ ____
ROOT
ATOM      1  O   UNL     1       4.820   3.337  16.563  0.00  0.00    +0.000 OA
ENDROOT
BRANCH   1   5
ATOM      2  C   UNL     1       7.012   6.890  17.258  0.00  0.00    +0.000 A 
ATOM      3  C   UNL     1       5.891   6.836  16.423  0.00  0.00    +0.000 A 
ATOM      4  C   UNL     1       5.199   5.629  16.227  0.00  0.00    +0.000 A 
ATOM      5  C   UNL     1       5.604   4.430  16.835  0.00  0.00    +0.000 A 
ATOM      6  C   UNL     1       6.717   4.481  17.673  0.00  0.00    +0.000 A 
ATOM      7  C   UNL     1       7.406   5.692  17.880  0.00  0.00    +0.000 A 
BRANCH   2   8
ATOM      8  C   UNL     1       7.827   8.159  17.434  0.00  0.00    +0.000 C 
BRANCH   8   9
ATOM      9  C   UNL     1       8.372   8.453  18.842  0.00  0.00    +0.000 C 
BRANCH   9  10
ATOM     10  C   UNL     1       9.322   9.654  18.903  0.00  0.00    +0.000 C 
BRANCH  10  11
ATOM     11  C   UNL     1       8.685  10.894  18.259  0.00  0.00    +0.000 C 
BRANCH  11  12
ATOM     12  C   UNL     1       9.406  12.182  18.666  0.00  0.00    +0.000 C 
BRANCH  12  13
ATOM     13  C   UNL     1       9.748  13.042  17.446  0.00  0.00    +0.000 C 
BRANCH  13  15
ATOM     14  C   UNL     1      12.085  13.069  18.394  0.00  0.00    +0.000 C 
ATOM     15  C   UNL     1      11.244  12.987  17.131  0.00  0.00    +0.000 C 
ENDBRANCH  13  15
ENDBRANCH  12  13
ENDBRANCH  11  12
ENDBRANCH  10  11
ENDBRANCH   9  10
ENDBRANCH   8   9
ENDBRANCH   2   8
ENDBRANCH   1   5
BRANCH   1  16
ATOM     16  C   UNL     1       3.646   3.063  17.340  0.00  0.00    +0.000 C 
BRANCH  16  17
ATOM     17  C   UNL     1       3.894   1.996  18.426  0.00  0.00    +0.000 C 
ATOM     18  O   UNL     1       3.894   0.789  18.187  0.00  0.00    +0.000 OA
BRANCH  17  19
ATOM     19  C   UNL     1       4.256   2.453  19.855  0.00  0.00    +0.000 C 
BRANCH  19  20
ATOM     20  N   UNL     1       3.324   3.392  20.474  0.00  0.00    +0.000 N 
ATOM     21  C   UNL     1       2.452   3.011  21.459  0.00  0.00    +0.000 A 
ATOM     22  C   UNL     1       1.255   3.608  21.161  0.00  0.00    +0.000 A 
ATOM     23  C   UNL     1       1.661   4.847  20.621  0.00  0.00    +0.000 A 
ATOM     24  C   UNL     1       1.047   6.106  20.635  0.00  0.00    +0.000 A 
ATOM     25  C   UNL     1       1.771   7.200  20.169  0.00  0.00    +0.000 A 
ATOM     26 CL   UNL     1       1.133   8.779  20.438  0.00  0.00    +0.000 Cl
ATOM     27  C   UNL     1       3.021   7.027  19.576  0.00  0.00    +0.000 A 
ATOM     28  C   UNL     1       3.631   5.759  19.491  0.00  0.00    +0.000 A 
ATOM     29  C   UNL     1       2.968   4.688  20.120  0.00  0.00    +0.000 A 
ENDBRANCH  19  20
ENDBRANCH  17  19
ENDBRANCH  16  17
ENDBRANCH   1  16
TORSDOF 12
ENDMDL
MODEL 8
REMARK VINA RESULT:      -7.0      4.600      7.671
REMARK  Name = 
REMARK  13 active torsions:
REMARK  status: ('A' for Active; 'I' for Inactive)
REMARK    1  A    between atoms: C_1  and  C_2
REMARK    2  A    between atoms: C_2  and  C_3
REMARK    3  A    between atoms: C_3  and  C_4
REMARK    4  A    between atoms: C_4  and  C_5
REMARK    5  A    between atoms: C_5  and  C_6
REMARK    6  A    between atoms: C_6  and  C_7
REMARK    7  A    between atoms: C_7  and  C_8
REMARK    8  A    between atoms: C_8  and  C_9
REMARK    9  A    between atoms: C_12  and  O_13
REMARK   10  A    between atoms: O_13  and  C_14
REMARK   11  A    between atoms: C_14  and  C_15
REMARK   12  A    between atoms: C_15  and  C_17
REMARK   13  A    between atoms: C_17  and  N_18
REMARK                            x       y       z     vdW  Elec       q    Type
REMARK                         _______ _______ _______ _____ _____    ______ ____
ROOT
ATOM      1  O   UNL     1       2.265   7.681  18.460  0.00  0.00    +0.000 OA
ENDROOT
BRANCH   1   5
ATOM      2  C   UNL     1       5.053   4.990  16.757  0.00  0.00    +0.000 A 
ATOM      3  C   UNL     1       3.913   4.570  17.450  0.00  0.00    +0.000 A 
ATOM      4  C   UNL     1       3.018   5.507  17.995  0.00  0.00    +0.000 A 
ATOM      5  C   UNL     1       3.232   6.890  17.892  0.00  0.00    +0.000 A 
ATOM      6  C   UNL     1       4.365   7.313  17.196  0.00  0.00    +0.000 A 
ATOM      7  C   UNL     1       5.256   6.376  16.639  0.00  0.00    +0.000 A 
BRANCH   2   8
ATOM      8  C   UNL     1       6.078   4.008  16.219  0.00  0.00    +0.000 C 
BRANCH   8   9
ATOM      9  C   UNL     1       6.476   4.148  14.740  0.00  0.00    +0.000 C 
BRANCH   9  10
ATOM     10  C   UNL     1       5.285   4.181  13.777  0.00  0.00    +0.000 C 
BRANCH  10  11
ATOM     11  C   UNL     1       5.602   3.415  12.484  0.00  0.00    +0.000 C 
BRANCH  11  12
ATOM     12  C   UNL     1       4.693   3.846  11.328  0.00  0.00    +0.000 C 
BRANCH  12  13
ATOM     13  C   UNL     1       3.617   2.796  11.040  0.00  0.00    +0.000 C 
BRANCH  13  15
ATOM     14  C   UNL     1       2.849   4.613   9.467  0.00  0.00    +0.000 C 
ATOM     15  C   UNL     1       2.859   3.120   9.751  0.00  0.00    +0.000 C 
ENDBRANCH  13  15
ENDBRANCH  12  13
ENDBRANCH  11  12
ENDBRANCH  10  11
ENDBRANCH   9  10
ENDBRANCH   8   9
ENDBRANCH   2   8
ENDBRANCH   1   5
BRANCH   1  16
ATOM     16  C   UNL     1       1.921   8.949  17.884  0.00  0.00    +0.000 C 
BRANCH  16  17
ATOM     17  C   UNL     1       1.024   9.794  18.813  0.00  0.00    +0.000 C 
ATOM     18  O   UNL     1       0.434   9.318  19.782  0.00  0.00    +0.000 OA
BRANCH  17  19
ATOM     19  C   UNL     1       0.935  11.316  18.583  0.00  0.00    +0.000 C 
BRANCH  19  20
ATOM     20  N   UNL     1      -0.372  11.919  18.836  0.00  0.00    +0.000 N 
ATOM     21  C   UNL     1      -0.570  12.839  19.832  0.00  0.00    +0.000 A 
ATOM     22  C   UNL     1      -1.752  12.498  20.435  0.00  0.00    +0.000 A 
ATOM     23  C   UNL     1      -2.523  12.031  19.349  0.00  0.00    +0.000 A 
ATOM     24  C   UNL     1      -3.904  12.060  19.117  0.00  0.00    +0.000 A 
ATOM     25  C   UNL     1      -4.372  11.678  17.863  0.00  0.00    +0.000 A 
ATOM     26 CL   UNL     1      -6.027  11.972  17.481  0.00  0.00    +0.000 Cl
ATOM     27  C   UNL     1      -3.503  11.149  16.909  0.00  0.00    +0.000 A 
ATOM     28  C   UNL     1      -2.117  11.048  17.145  0.00  0.00    +0.000 A 
ATOM     29  C   UNL     1      -1.633  11.597  18.348  0.00  0.00    +0.000 A 
ENDBRANCH  19  20
ENDBRANCH  17  19
ENDBRANCH  16  17
ENDBRANCH   1  16
TORSDOF 12
ENDMDL
MODEL 9
REMARK VINA RESULT:      -7.0      4.931      8.265
REMARK  Name = 
REMARK  13 active torsions:
REMARK  status: ('A' for Active; 'I' for Inactive)
REMARK    1  A    between atoms: C_1  and  C_2
REMARK    2  A    between atoms: C_2  and  C_3
REMARK    3  A    between atoms: C_3  and  C_4
REMARK    4  A    between atoms: C_4  and  C_5
REMARK    5  A    between atoms: C_5  and  C_6
REMARK    6  A    between atoms: C_6  and  C_7
REMARK    7  A    between atoms: C_7  and  C_8
REMARK    8  A    between atoms: C_8  and  C_9
REMARK    9  A    between atoms: C_12  and  O_13
REMARK   10  A    between atoms: O_13  and  C_14
REMARK   11  A    between atoms: C_14  and  C_15
REMARK   12  A    between atoms: C_15  and  C_17
REMARK   13  A    between atoms: C_17  and  N_18
REMARK                            x       y       z     vdW  Elec       q    Type
REMARK                         _______ _______ _______ _____ _____    ______ ____
ROOT
ATOM      1  O   UNL     1       0.378   9.690  20.460  0.00  0.00    +0.000 OA
ENDROOT
BRANCH   1   5
ATOM      2  C   UNL     1       2.958   7.268  18.137  0.00  0.00    +0.000 A 
ATOM      3  C   UNL     1       2.490   6.892  19.400  0.00  0.00    +0.000 A 
ATOM      4  C   UNL     1       1.634   7.735  20.129  0.00  0.00    +0.000 A 
ATOM      5  C   UNL     1       1.228   8.987  19.643  0.00  0.00    +0.000 A 
ATOM      6  C   UNL     1       1.687   9.363  18.380  0.00  0.00    +0.000 A 
ATOM      7  C   UNL     1       2.536   8.515  17.643  0.00  0.00    +0.000 A 
BRANCH   2   8
ATOM      8  C   UNL     1       3.942   6.417  17.354  0.00  0.00    +0.000 C 
BRANCH   8   9
ATOM      9  C   UNL     1       4.476   5.149  18.042  0.00  0.00    +0.000 C 
BRANCH   9  10
ATOM     10  C   UNL     1       4.455   3.903  17.151  0.00  0.00    +0.000 C 
BRANCH  10  11
ATOM     11  C   UNL     1       3.248   3.012  17.478  0.00  0.00    +0.000 C 
BRANCH  11  12
ATOM     12  C   UNL     1       2.906   3.041  18.971  0.00  0.00    +0.000 C 
BRANCH  12  13
ATOM     13  C   UNL     1       1.397   3.168  19.197  0.00  0.00    +0.000 C 
BRANCH  13  15
ATOM     14  C   UNL     1       2.087   3.339  21.617  0.00  0.00    +0.000 C 
ATOM     15  C   UNL     1       1.092   3.789  20.561  0.00  0.00    +0.000 C 
ENDBRANCH  13  15
ENDBRANCH  12  13
ENDBRANCH  11  12
ENDBRANCH  10  11
ENDBRANCH   9  10
ENDBRANCH   8   9
ENDBRANCH   2   8
ENDBRANCH   1   5
BRANCH   1  16
ATOM     16  C   UNL     1      -0.768  10.364  19.922  0.00  0.00    +0.000 C 
BRANCH  16  17
ATOM     17  C   UNL     1      -0.863  11.831  20.391  0.00  0.00    +0.000 C 
ATOM     18  O   UNL     1      -1.933  12.427  20.501  0.00  0.00    +0.000 OA
BRANCH  17  19
ATOM     19  C   UNL     1       0.423  12.558  20.836  0.00  0.00    +0.000 C 
BRANCH  19  20
ATOM     20  N   UNL     1       1.078  13.369  19.813  0.00  0.00    +0.000 N 
ATOM     21  C   UNL     1       2.256  12.989  19.224  0.00  0.00    +0.000 A 
ATOM     22  C   UNL     1       3.029  14.117  19.155  0.00  0.00    +0.000 A 
ATOM     23  C   UNL     1       2.073  15.125  18.902  0.00  0.00    +0.000 A 
ATOM     24  C   UNL     1       2.169  16.330  18.195  0.00  0.00    +0.000 A 
ATOM     25  C   UNL     1       1.001  17.050  17.956  0.00  0.00    +0.000 A 
ATOM     26 CL   UNL     1       1.068  18.378  16.859  0.00  0.00    +0.000 Cl
ATOM     27  C   UNL     1      -0.209  16.654  18.523  0.00  0.00    +0.000 A 
ATOM     28  C   UNL     1      -0.315  15.479  19.295  0.00  0.00    +0.000 A 
ATOM     29  C   UNL     1       0.832  14.668  19.385  0.00  0.00    +0.000 A 
ENDBRANCH  19  20
ENDBRANCH  17  19
ENDBRANCH  16  17
ENDBRANCH   1  16
TORSDOF 12
ENDMDL
