MODEL 1
REMARK VINA RESULT:      -7.3      0.000      0.000
REMARK  Name = 
REMARK  11 active torsions:
REMARK  status: ('A' for Active; 'I' for Inactive)
REMARK    1  A    between atoms: C_1  and  C_2
REMARK    2  A    between atoms: C_2  and  C_3
REMARK    3  A    between atoms: C_2  and  C_4
REMARK    4  A    between atoms: C_2  and  C_5
REMARK    5  A    between atoms: C_8  and  O_9
REMARK    6  A    between atoms: O_9  and  C_10
REMARK    7  A    between atoms: C_10  and  C_11
REMARK    8  A    between atoms: C_11  and  N_12
REMARK    9  A    between atoms: N_12  and  C_13
REMARK   10  A    between atoms: C_13  and  N_15
REMARK   11  A    between atoms: C_16  and  C_18
REMARK                            x       y       z     vdW  Elec       q    Type
REMARK                         _______ _______ _______ _____ _____    ______ ____
ROOT
ATOM      1  N   UNL     1       5.421   3.901  18.877  0.00  0.00    +0.000 N 
ATOM      2  H   UNL     1       6.201   3.394  19.301  0.00  0.00    +0.000 HD
ENDROOT
BRANCH   1   3
ATOM      3  C   UNL     1       4.770   3.239  17.876  0.00  0.00    +0.000 C 
ATOM      4  S   UNL     1       3.373   2.342  18.040  0.00  0.00    +0.000 S 
BRANCH   3   5
ATOM      5  N   UNL     1       5.343   3.336  16.619  0.00  0.00    +0.000 N 
ATOM      6  C   UNL     1       5.417   4.467  15.818  0.00  0.00    +0.000 C 
ATOM      7  O   UNL     1       4.943   5.551  16.148  0.00  0.00    +0.000 OA
ATOM      8  H   UNL     1       5.802   2.483  16.325  0.00  0.00    +0.000 HD
BRANCH   6   9
ATOM      9  C   UNL     1       6.100   4.366  14.510  0.00  0.00    +0.000 A 
ATOM     10  C   UNL     1       5.713   3.534  13.458  0.00  0.00    +0.000 A 
ATOM     11  C   UNL     1       6.390   3.621  12.239  0.00  0.00    +0.000 A 
ATOM     12  C   UNL     1       7.434   4.529  12.115  0.00  0.00    +0.000 A 
ATOM     13  N   UNL     1       7.847   5.329  13.118  0.00  0.00    +0.000 NA
ATOM     14  C   UNL     1       7.166   5.236  14.285  0.00  0.00    +0.000 A 
ENDBRANCH   6   9
ENDBRANCH   3   5
ENDBRANCH   1   3
BRANCH   1  15
ATOM     15  C   UNL     1       5.112   5.200  19.461  0.00  0.00    +0.000 C 
BRANCH  15  16
ATOM     16  C   UNL     1       3.624   5.394  19.756  0.00  0.00    +0.000 C 
BRANCH  16  17
ATOM     17  O   UNL     1       3.051   6.091  18.648  0.00  0.00    +0.000 OA
BRANCH  17  21
ATOM     18  C   UNL     1       0.910   9.660  19.238  0.00  0.00    +0.000 A 
ATOM     19  C   UNL     1       1.462   9.288  18.000  0.00  0.00    +0.000 A 
ATOM     20  C   UNL     1       2.176   8.094  17.846  0.00  0.00    +0.000 A 
ATOM     21  C   UNL     1       2.405   7.259  18.934  0.00  0.00    +0.000 A 
ATOM     22  C   UNL     1       1.919   7.631  20.182  0.00  0.00    +0.000 A 
ATOM     23  C   UNL     1       1.189   8.820  20.331  0.00  0.00    +0.000 A 
BRANCH  18  25
ATOM     24  C   UNL     1      -0.572  11.023  20.801  0.00  0.00    +0.000 C 
ATOM     25  C   UNL     1       0.019  10.910  19.375  0.00  0.00    +0.000 C 
ATOM     26  C   UNL     1      -1.140  10.847  18.363  0.00  0.00    +0.000 C 
ATOM     27  C   UNL     1       0.798  12.224  19.127  0.00  0.00    +0.000 C 
ENDBRANCH  18  25
ENDBRANCH  17  21
ENDBRANCH  16  17
ENDBRANCH  15  16
ENDBRANCH   1  15
TORSDOF 8
ENDMDL
MODEL 2
REMARK VINA RESULT:      -7.3      6.189      7.942
REMARK  Name = 
REMARK  11 active torsions:
REMARK  status: ('A' for Active; 'I' for Inactive)
REMARK    1  A    between atoms: C_1  and  C_2
REMARK    2  A    between atoms: C_2  and  C_3
REMARK    3  A    between atoms: C_2  and  C_4
REMARK    4  A    between atoms: C_2  and  C_5
REMARK    5  A    between atoms: C_8  and  O_9
REMARK    6  A    between atoms: O_9  and  C_10
REMARK    7  A    between atoms: C_10  and  C_11
REMARK    8  A    between atoms: C_11  and  N_12
REMARK    9  A    between atoms: N_12  and  C_13
REMARK   10  A    between atoms: C_13  and  N_15
REMARK   11  A    between atoms: C_16  and  C_18
REMARK                            x       y       z     vdW  Elec       q    Type
REMARK                         _______ _______ _______ _____ _____    ______ ____
ROOT
ATOM      1  N   UNL     1       6.102   7.234  17.293  0.00  0.00    +0.000 N 
ATOM      2  H   UNL     1       5.519   8.062  17.428  0.00  0.00    +0.000 HD
ENDROOT
BRANCH   1   3
ATOM      3  C   UNL     1       5.448   6.127  16.832  0.00  0.00    +0.000 C 
ATOM      4  S   UNL     1       5.711   5.372  15.367  0.00  0.00    +0.000 S 
BRANCH   3   5
ATOM      5  N   UNL     1       4.481   5.606  17.674  0.00  0.00    +0.000 N 
ATOM      6  C   UNL     1       4.689   4.905  18.854  0.00  0.00    +0.000 C 
ATOM      7  O   UNL     1       5.808   4.645  19.288  0.00  0.00    +0.000 OA
ATOM      8  H   UNL     1       3.538   5.845  17.393  0.00  0.00    +0.000 HD
BRANCH   6   9
ATOM      9  C   UNL     1       3.512   4.452  19.626  0.00  0.00    +0.000 A 
ATOM     10  C   UNL     1       2.386   5.226  19.915  0.00  0.00    +0.000 A 
ATOM     11  C   UNL     1       1.302   4.632  20.564  0.00  0.00    +0.000 A 
ATOM     12  C   UNL     1       1.381   3.289  20.910  0.00  0.00    +0.000 A 
ATOM     13  N   UNL     1       2.461   2.521  20.667  0.00  0.00    +0.000 NA
ATOM     14  C   UNL     1       3.494   3.116  20.025  0.00  0.00    +0.000 A 
ENDBRANCH   6   9
ENDBRANCH   3   5
ENDBRANCH   1   3
BRANCH   1  15
ATOM     15  C   UNL     1       7.525   7.407  17.555  0.00  0.00    +0.000 C 
BRANCH  15  16
ATOM     16  C   UNL     1       7.935   8.868  17.739  0.00  0.00    +0.000 C 
BRANCH  16  17
ATOM     17  O   UNL     1       8.827   8.929  18.854  0.00  0.00    +0.000 OA
BRANCH  17  21
ATOM     18  C   UNL     1      10.125  12.854  19.615  0.00  0.00    +0.000 A 
ATOM     19  C   UNL     1      10.025  12.313  18.321  0.00  0.00    +0.000 A 
ATOM     20  C   UNL     1       9.596  10.997  18.110  0.00  0.00    +0.000 A 
ATOM     21  C   UNL     1       9.303  10.165  19.185  0.00  0.00    +0.000 A 
ATOM     22  C   UNL     1       9.449  10.658  20.476  0.00  0.00    +0.000 A 
ATOM     23  C   UNL     1       9.863  11.982  20.686  0.00  0.00    +0.000 A 
BRANCH  18  25
ATOM     24  C   UNL     1      10.272  14.747  21.316  0.00  0.00    +0.000 C 
ATOM     25  C   UNL     1      10.476  14.338  19.837  0.00  0.00    +0.000 C 
ATOM     26  C   UNL     1       9.588  15.230  18.951  0.00  0.00    +0.000 C 
ATOM     27  C   UNL     1      11.955  14.655  19.503  0.00  0.00    +0.000 C 
ENDBRANCH  18  25
ENDBRANCH  17  21
ENDBRANCH  16  17
ENDBRANCH  15  16
ENDBRANCH   1  15
TORSDOF 8
ENDMDL
MODEL 3
REMARK VINA RESULT:      -7.3      1.384      1.896
REMARK  Name = 
REMARK  11 active torsions:
REMARK  status: ('A' for Active; 'I' for Inactive)
REMARK    1  A    between atoms: C_1  and  C_2
REMARK    2  A    between atoms: C_2  and  C_3
REMARK    3  A    between atoms: C_2  and  C_4
REMARK    4  A    between atoms: C_2  and  C_5
REMARK    5  A    between atoms: C_8  and  O_9
REMARK    6  A    between atoms: O_9  and  C_10
REMARK    7  A    between atoms: C_10  and  C_11
REMARK    8  A    between atoms: C_11  and  N_12
REMARK    9  A    between atoms: N_12  and  C_13
REMARK   10  A    between atoms: C_13  and  N_15
REMARK   11  A    between atoms: C_16  and  C_18
REMARK                            x       y       z     vdW  Elec       q    Type
REMARK                         _______ _______ _______ _____ _____    ______ ____
ROOT
ATOM      1  N   UNL     1       5.484   3.776  18.682  0.00  0.00    +0.000 N 
ATOM      2  H   UNL     1       5.371   2.891  18.184  0.00  0.00    +0.000 HD
ENDROOT
BRANCH   1   3
ATOM      3  C   UNL     1       6.498   4.574  18.236  0.00  0.00    +0.000 C 
ATOM      4  S   UNL     1       7.402   5.624  19.166  0.00  0.00    +0.000 S 
BRANCH   3   5
ATOM      5  N   UNL     1       6.779   4.488  16.882  0.00  0.00    +0.000 N 
ATOM      6  C   UNL     1       5.871   4.295  15.851  0.00  0.00    +0.000 C 
ATOM      7  O   UNL     1       4.666   4.157  16.038  0.00  0.00    +0.000 OA
ATOM      8  H   UNL     1       7.754   4.655  16.668  0.00  0.00    +0.000 HD
BRANCH   6   9
ATOM      9  C   UNL     1       6.377   4.258  14.461  0.00  0.00    +0.000 A 
ATOM     10  C   UNL     1       5.893   3.431  13.445  0.00  0.00    +0.000 A 
ATOM     11  C   UNL     1       6.396   3.580  12.151  0.00  0.00    +0.000 A 
ATOM     12  C   UNL     1       7.370   4.541  11.916  0.00  0.00    +0.000 A 
ATOM     13  N   UNL     1       7.875   5.339  12.878  0.00  0.00    +0.000 NA
ATOM     14  C   UNL     1       7.362   5.185  14.122  0.00  0.00    +0.000 A 
ENDBRANCH   6   9
ENDBRANCH   3   5
ENDBRANCH   1   3
BRANCH   1  15
ATOM     15  C   UNL     1       4.504   4.048  19.726  0.00  0.00    +0.000 C 
BRANCH  15  16
ATOM     16  C   UNL     1       3.212   4.674  19.199  0.00  0.00    +0.000 C 
BRANCH  16  17
ATOM     17  O   UNL     1       3.559   5.903  18.557  0.00  0.00    +0.000 OA
BRANCH  17  21
ATOM     18  C   UNL     1       1.154   9.186  19.611  0.00  0.00    +0.000 A 
ATOM     19  C   UNL     1       1.394   8.099  20.470  0.00  0.00    +0.000 A 
ATOM     20  C   UNL     1       2.194   7.020  20.078  0.00  0.00    +0.000 A 
ATOM     21  C   UNL     1       2.739   6.967  18.800  0.00  0.00    +0.000 A 
ATOM     22  C   UNL     1       2.469   8.001  17.911  0.00  0.00    +0.000 A 
ATOM     23  C   UNL     1       1.680   9.091  18.311  0.00  0.00    +0.000 A 
BRANCH  18  25
ATOM     24  C   UNL     1       1.191  11.723  19.852  0.00  0.00    +0.000 C 
ATOM     25  C   UNL     1       0.377  10.428  20.089  0.00  0.00    +0.000 C 
ATOM     26  C   UNL     1       0.063  10.310  21.592  0.00  0.00    +0.000 C 
ATOM     27  C   UNL     1      -0.963  10.617  19.336  0.00  0.00    +0.000 C 
ENDBRANCH  18  25
ENDBRANCH  17  21
ENDBRANCH  16  17
ENDBRANCH  15  16
ENDBRANCH   1  15
TORSDOF 8
ENDMDL
MODEL 4
REMARK VINA RESULT:      -7.2      1.370      1.685
REMARK  Name = 
REMARK  11 active torsions:
REMARK  status: ('A' for Active; 'I' for Inactive)
REMARK    1  A    between atoms: C_1  and  C_2
REMARK    2  A    between atoms: C_2  and  C_3
REMARK    3  A    between atoms: C_2  and  C_4
REMARK    4  A    between atoms: C_2  and  C_5
REMARK    5  A    between atoms: C_8  and  O_9
REMARK    6  A    between atoms: O_9  and  C_10
REMARK    7  A    between atoms: C_10  and  C_11
REMARK    8  A    between atoms: C_11  and  N_12
REMARK    9  A    between atoms: N_12  and  C_13
REMARK   10  A    between atoms: C_13  and  N_15
REMARK   11  A    between atoms: C_16  and  C_18
REMARK                            x       y       z     vdW  Elec       q    Type
REMARK                         _______ _______ _______ _____ _____    ______ ____
ROOT
ATOM      1  N   UNL     1       5.743   3.688  18.880  0.00  0.00    +0.000 N 
ATOM      2  H   UNL     1       6.197   2.853  19.256  0.00  0.00    +0.000 HD
ENDROOT
BRANCH   1   3
ATOM      3  C   UNL     1       6.556   4.529  18.176  0.00  0.00    +0.000 C 
ATOM      4  S   UNL     1       7.403   5.825  18.799  0.00  0.00    +0.000 S 
BRANCH   3   5
ATOM      5  N   UNL     1       6.668   4.263  16.821  0.00  0.00    +0.000 N 
ATOM      6  C   UNL     1       6.239   5.065  15.773  0.00  0.00    +0.000 C 
ATOM      7  O   UNL     1       5.672   6.140  15.944  0.00  0.00    +0.000 OA
ATOM      8  H   UNL     1       7.183   3.414  16.625  0.00  0.00    +0.000 HD
BRANCH   6   9
ATOM      9  C   UNL     1       6.479   4.607  14.387  0.00  0.00    +0.000 A 
ATOM     10  C   UNL     1       5.693   3.687  13.691  0.00  0.00    +0.000 A 
ATOM     11  C   UNL     1       5.978   3.428  12.349  0.00  0.00    +0.000 A 
ATOM     12  C   UNL     1       7.041   4.090  11.749  0.00  0.00    +0.000 A 
ATOM     13  N   UNL     1       7.833   4.966  12.399  0.00  0.00    +0.000 NA
ATOM     14  C   UNL     1       7.529   5.210  13.696  0.00  0.00    +0.000 A 
ENDBRANCH   6   9
ENDBRANCH   3   5
ENDBRANCH   1   3
BRANCH   1  15
ATOM     15  C   UNL     1       4.307   3.790  19.108  0.00  0.00    +0.000 C 
BRANCH  15  16
ATOM     16  C   UNL     1       3.695   5.081  18.562  0.00  0.00    +0.000 C 
BRANCH  16  17
ATOM     17  O   UNL     1       3.444   5.944  19.674  0.00  0.00    +0.000 OA
BRANCH  17  21
ATOM     18  C   UNL     1       1.010   9.346  19.256  0.00  0.00    +0.000 A 
ATOM     19  C   UNL     1       1.062   8.575  20.431  0.00  0.00    +0.000 A 
ATOM     20  C   UNL     1       1.879   7.443  20.528  0.00  0.00    +0.000 A 
ATOM     21  C   UNL     1       2.632   7.016  19.439  0.00  0.00    +0.000 A 
ATOM     22  C   UNL     1       2.554   7.727  18.247  0.00  0.00    +0.000 A 
ATOM     23  C   UNL     1       1.747   8.871  18.157  0.00  0.00    +0.000 A 
BRANCH  18  25
ATOM     24  C   UNL     1      -0.396  11.012  20.576  0.00  0.00    +0.000 C 
ATOM     25  C   UNL     1       0.207  10.659  19.195  0.00  0.00    +0.000 C 
ATOM     26  C   UNL     1      -0.938  10.532  18.174  0.00  0.00    +0.000 C 
ATOM     27  C   UNL     1       1.080  11.871  18.785  0.00  0.00    +0.000 C 
ENDBRANCH  18  25
ENDBRANCH  17  21
ENDBRANCH  16  17
ENDBRANCH  15  16
ENDBRANCH   1  15
TORSDOF 8
ENDMDL
MODEL 5
REMARK VINA RESULT:      -7.2      4.632      6.761
REMARK  Name = 
REMARK  11 active torsions:
REMARK  status: ('A' for Active; 'I' for Inactive)
REMARK    1  A    between atoms: C_1  and  C_2
REMARK    2  A    between atoms: C_2  and  C_3
REMARK    3  A    between atoms: C_2  and  C_4
REMARK    4  A    between atoms: C_2  and  C_5
REMARK    5  A    between atoms: C_8  and  O_9
REMARK    6  A    between atoms: O_9  and  C_10
REMARK    7  A    between atoms: C_10  and  C_11
REMARK    8  A    between atoms: C_11  and  N_12
REMARK    9  A    between atoms: N_12  and  C_13
REMARK   10  A    between atoms: C_13  and  N_15
REMARK   11  A    between atoms: C_16  and  C_18
REMARK                            x       y       z     vdW  Elec       q    Type
REMARK                         _______ _______ _______ _____ _____    ______ ____
ROOT
ATOM      1  N   UNL     1       7.633   6.070  17.343  0.00  0.00    +0.000 N 
ATOM      2  H   UNL     1       7.578   6.874  16.713  0.00  0.00    +0.000 HD
ENDROOT
BRANCH   1   3
ATOM      3  C   UNL     1       7.981   6.360  18.631  0.00  0.00    +0.000 C 
ATOM      4  S   UNL     1       7.862   5.325  19.935  0.00  0.00    +0.000 S 
BRANCH   3   5
ATOM      5  N   UNL     1       8.471   7.636  18.849  0.00  0.00    +0.000 N 
ATOM      6  C   UNL     1       8.159   8.785  18.136  0.00  0.00    +0.000 C 
ATOM      7  O   UNL     1       7.391   8.788  17.178  0.00  0.00    +0.000 OA
ATOM      8  H   UNL     1       9.064   7.699  19.667  0.00  0.00    +0.000 HD
BRANCH   6   9
ATOM      9  C   UNL     1       8.776  10.064  18.548  0.00  0.00    +0.000 A 
ATOM     10  C   UNL     1       9.546  10.259  19.696  0.00  0.00    +0.000 A 
ATOM     11  C   UNL     1      10.155  11.499  19.903  0.00  0.00    +0.000 A 
ATOM     12  C   UNL     1       9.968  12.503  18.962  0.00  0.00    +0.000 A 
ATOM     13  N   UNL     1       9.213  12.356  17.856  0.00  0.00    +0.000 NA
ATOM     14  C   UNL     1       8.643  11.141  17.671  0.00  0.00    +0.000 A 
ENDBRANCH   6   9
ENDBRANCH   3   5
ENDBRANCH   1   3
BRANCH   1  15
ATOM     15  C   UNL     1       7.268   4.783  16.766  0.00  0.00    +0.000 C 
BRANCH  15  16
ATOM     16  C   UNL     1       6.352   4.902  15.548  0.00  0.00    +0.000 C 
BRANCH  16  17
ATOM     17  O   UNL     1       5.291   5.797  15.890  0.00  0.00    +0.000 OA
BRANCH  17  21
ATOM     18  C   UNL     1       2.592   4.068  18.610  0.00  0.00    +0.000 A 
ATOM     19  C   UNL     1       3.130   3.374  17.511  0.00  0.00    +0.000 A 
ATOM     20  C   UNL     1       4.020   3.989  16.622  0.00  0.00    +0.000 A 
ATOM     21  C   UNL     1       4.362   5.328  16.773  0.00  0.00    +0.000 A 
ATOM     22  C   UNL     1       3.800   6.053  17.817  0.00  0.00    +0.000 A 
ATOM     23  C   UNL     1       2.920   5.432  18.717  0.00  0.00    +0.000 A 
BRANCH  18  25
ATOM     24  C   UNL     1       2.578   2.585  20.682  0.00  0.00    +0.000 C 
ATOM     25  C   UNL     1       1.713   3.355  19.655  0.00  0.00    +0.000 C 
ATOM     26  C   UNL     1       0.767   2.359  18.959  0.00  0.00    +0.000 C 
ATOM     27  C   UNL     1       0.847   4.342  20.475  0.00  0.00    +0.000 C 
ENDBRANCH  18  25
ENDBRANCH  17  21
ENDBRANCH  16  17
ENDBRANCH  15  16
ENDBRANCH   1  15
TORSDOF 8
ENDMDL
MODEL 6
REMARK VINA RESULT:      -7.2      6.137      7.801
REMARK  Name = 
REMARK  11 active torsions:
REMARK  status: ('A' for Active; 'I' for Inactive)
REMARK    1  A    between atoms: C_1  and  C_2
REMARK    2  A    between atoms: C_2  and  C_3
REMARK    3  A    between atoms: C_2  and  C_4
REMARK    4  A    between atoms: C_2  and  C_5
REMARK    5  A    between atoms: C_8  and  O_9
REMARK    6  A    between atoms: O_9  and  C_10
REMARK    7  A    between atoms: C_10  and  C_11
REMARK    8  A    between atoms: C_11  and  N_12
REMARK    9  A    between atoms: N_12  and  C_13
REMARK   10  A    between atoms: C_13  and  N_15
REMARK   11  A    between atoms: C_16  and  C_18
REMARK                            x       y       z     vdW  Elec       q    Type
REMARK                         _______ _______ _______ _____ _____    ______ ____
ROOT
ATOM      1  N   UNL     1       7.449   6.569  16.666  0.00  0.00    +0.000 N 
ATOM      2  H   UNL     1       7.881   7.011  15.852  0.00  0.00    +0.000 HD
ENDROOT
BRANCH   1   3
ATOM      3  C   UNL     1       6.715   5.448  16.402  0.00  0.00    +0.000 C 
ATOM      4  S   UNL     1       6.687   4.611  14.959  0.00  0.00    +0.000 S 
BRANCH   3   5
ATOM      5  N   UNL     1       5.928   4.987  17.444  0.00  0.00    +0.000 N 
ATOM      6  C   UNL     1       4.641   5.395  17.763  0.00  0.00    +0.000 C 
ATOM      7  O   UNL     1       4.041   6.263  17.137  0.00  0.00    +0.000 OA
ATOM      8  H   UNL     1       6.354   4.225  17.956  0.00  0.00    +0.000 HD
BRANCH   6   9
ATOM      9  C   UNL     1       3.958   4.754  18.908  0.00  0.00    +0.000 A 
ATOM     10  C   UNL     1       3.063   5.385  19.774  0.00  0.00    +0.000 A 
ATOM     11  C   UNL     1       2.412   4.626  20.749  0.00  0.00    +0.000 A 
ATOM     12  C   UNL     1       2.682   3.266  20.832  0.00  0.00    +0.000 A 
ATOM     13  N   UNL     1       3.556   2.631  20.027  0.00  0.00    +0.000 NA
ATOM     14  C   UNL     1       4.165   3.386  19.081  0.00  0.00    +0.000 A 
ENDBRANCH   6   9
ENDBRANCH   3   5
ENDBRANCH   1   3
BRANCH   1  15
ATOM     15  C   UNL     1       7.751   7.176  17.956  0.00  0.00    +0.000 C 
BRANCH  15  16
ATOM     16  C   UNL     1       8.018   8.680  17.872  0.00  0.00    +0.000 C 
BRANCH  16  17
ATOM     17  O   UNL     1       8.929   9.017  18.920  0.00  0.00    +0.000 OA
BRANCH  17  21
ATOM     18  C   UNL     1       9.925  13.024  19.705  0.00  0.00    +0.000 A 
ATOM     19  C   UNL     1       9.872  12.034  20.702  0.00  0.00    +0.000 A 
ATOM     20  C   UNL     1       9.527  10.711  20.401  0.00  0.00    +0.000 A 
ATOM     21  C   UNL     1       9.176  10.346  19.105  0.00  0.00    +0.000 A 
ATOM     22  C   UNL     1       9.165  11.318  18.112  0.00  0.00    +0.000 A 
ATOM     23  C   UNL     1       9.527  12.641  18.412  0.00  0.00    +0.000 A 
BRANCH  18  25
ATOM     24  C   UNL     1       9.580  15.513  19.278  0.00  0.00    +0.000 C 
ATOM     25  C   UNL     1      10.426  14.448  20.016  0.00  0.00    +0.000 C 
ATOM     26  C   UNL     1      11.896  14.598  19.583  0.00  0.00    +0.000 C 
ATOM     27  C   UNL     1      10.335  14.793  21.523  0.00  0.00    +0.000 C 
ENDBRANCH  18  25
ENDBRANCH  17  21
ENDBRANCH  16  17
ENDBRANCH  15  16
ENDBRANCH   1  15
TORSDOF 8
ENDMDL
MODEL 7
REMARK VINA RESULT:      -7.2      6.077      7.522
REMARK  Name = 
REMARK  11 active torsions:
REMARK  status: ('A' for Active; 'I' for Inactive)
REMARK    1  A    between atoms: C_1  and  C_2
REMARK    2  A    between atoms: C_2  and  C_3
REMARK    3  A    between atoms: C_2  and  C_4
REMARK    4  A    between atoms: C_2  and  C_5
REMARK    5  A    between atoms: C_8  and  O_9
REMARK    6  A    between atoms: O_9  and  C_10
REMARK    7  A    between atoms: C_10  and  C_11
REMARK    8  A    between atoms: C_11  and  N_12
REMARK    9  A    between atoms: N_12  and  C_13
REMARK   10  A    between atoms: C_13  and  N_15
REMARK   11  A    between atoms: C_16  and  C_18
REMARK                            x       y       z     vdW  Elec       q    Type
REMARK                         _______ _______ _______ _____ _____    ______ ____
ROOT
ATOM      1  N   UNL     1       6.425   6.965  16.860  0.00  0.00    +0.000 N 
ATOM      2  H   UNL     1       5.777   7.745  16.729  0.00  0.00    +0.000 HD
ENDROOT
BRANCH   1   3
ATOM      3  C   UNL     1       6.053   5.790  16.273  0.00  0.00    +0.000 C 
ATOM      4  S   UNL     1       6.812   5.055  14.982  0.00  0.00    +0.000 S 
BRANCH   3   5
ATOM      5  N   UNL     1       4.938   5.174  16.816  0.00  0.00    +0.000 N 
ATOM      6  C   UNL     1       4.765   4.768  18.132  0.00  0.00    +0.000 C 
ATOM      7  O   UNL     1       5.630   4.902  18.992  0.00  0.00    +0.000 OA
ATOM      8  H   UNL     1       4.170   5.093  16.162  0.00  0.00    +0.000 HD
BRANCH   6   9
ATOM      9  C   UNL     1       3.479   4.147  18.519  0.00  0.00    +0.000 A 
ATOM     10  C   UNL     1       2.268   4.305  17.842  0.00  0.00    +0.000 A 
ATOM     11  C   UNL     1       1.156   3.572  18.261  0.00  0.00    +0.000 A 
ATOM     12  C   UNL     1       1.288   2.713  19.345  0.00  0.00    +0.000 A 
ATOM     13  N   UNL     1       2.435   2.555  20.034  0.00  0.00    +0.000 NA
ATOM     14  C   UNL     1       3.503   3.267  19.600  0.00  0.00    +0.000 A 
ENDBRANCH   6   9
ENDBRANCH   3   5
ENDBRANCH   1   3
BRANCH   1  15
ATOM     15  C   UNL     1       7.649   7.271  17.589  0.00  0.00    +0.000 C 
BRANCH  15  16
ATOM     16  C   UNL     1       7.906   8.770  17.744  0.00  0.00    +0.000 C 
BRANCH  16  17
ATOM     17  O   UNL     1       8.811   8.943  18.836  0.00  0.00    +0.000 OA
BRANCH  17  21
ATOM     18  C   UNL     1       9.727  12.992  19.496  0.00  0.00    +0.000 A 
ATOM     19  C   UNL     1       9.412  12.470  18.229  0.00  0.00    +0.000 A 
ATOM     20  C   UNL     1       9.121  11.113  18.049  0.00  0.00    +0.000 A 
ATOM     21  C   UNL     1       9.184  10.225  19.118  0.00  0.00    +0.000 A 
ATOM     22  C   UNL     1       9.549  10.706  20.370  0.00  0.00    +0.000 A 
ATOM     23  C   UNL     1       9.825  12.070  20.553  0.00  0.00    +0.000 A 
BRANCH  18  25
ATOM     24  C   UNL     1       8.638  15.293  19.362  0.00  0.00    +0.000 C 
ATOM     25  C   UNL     1       9.924  14.505  19.712  0.00  0.00    +0.000 C 
ATOM     26  C   UNL     1      11.075  15.021  18.829  0.00  0.00    +0.000 C 
ATOM     27  C   UNL     1      10.257  14.857  21.183  0.00  0.00    +0.000 C 
ENDBRANCH  18  25
ENDBRANCH  17  21
ENDBRANCH  16  17
ENDBRANCH  15  16
ENDBRANCH   1  15
TORSDOF 8
ENDMDL
MODEL 8
REMARK VINA RESULT:      -7.1      6.265      7.917
REMARK  Name = 
REMARK  11 active torsions:
REMARK  status: ('A' for Active; 'I' for Inactive)
REMARK    1  A    between atoms: C_1  and  C_2
REMARK    2  A    between atoms: C_2  and  C_3
REMARK    3  A    between atoms: C_2  and  C_4
REMARK    4  A    between atoms: C_2  and  C_5
REMARK    5  A    between atoms: C_8  and  O_9
REMARK    6  A    between atoms: O_9  and  C_10
REMARK    7  A    between atoms: C_10  and  C_11
REMARK    8  A    between atoms: C_11  and  N_12
REMARK    9  A    between atoms: N_12  and  C_13
REMARK   10  A    between atoms: C_13  and  N_15
REMARK   11  A    between atoms: C_16  and  C_18
REMARK                            x       y       z     vdW  Elec       q    Type
REMARK                         _______ _______ _______ _____ _____    ______ ____
ROOT
ATOM      1  N   UNL     1       6.247   6.827  17.600  0.00  0.00    +0.000 N 
ATOM      2  H   UNL     1       5.622   7.414  18.157  0.00  0.00    +0.000 HD
ENDROOT
BRANCH   1   3
ATOM      3  C   UNL     1       5.633   5.863  16.854  0.00  0.00    +0.000 C 
ATOM      4  S   UNL     1       6.085   5.372  15.324  0.00  0.00    +0.000 S 
BRANCH   3   5
ATOM      5  N   UNL     1       4.537   5.255  17.441  0.00  0.00    +0.000 N 
ATOM      6  C   UNL     1       4.527   4.491  18.600  0.00  0.00    +0.000 C 
ATOM      7  O   UNL     1       5.540   4.247  19.249  0.00  0.00    +0.000 OA
ATOM      8  H   UNL     1       3.665   5.474  16.978  0.00  0.00    +0.000 HD
BRANCH   6   9
ATOM      9  C   UNL     1       3.236   3.947  19.078  0.00  0.00    +0.000 A 
ATOM     10  C   UNL     1       2.419   3.062  18.373  0.00  0.00    +0.000 A 
ATOM     11  C   UNL     1       1.279   2.549  18.994  0.00  0.00    +0.000 A 
ATOM     12  C   UNL     1       0.989   2.942  20.294  0.00  0.00    +0.000 A 
ATOM     13  N   UNL     1       1.743   3.812  20.994  0.00  0.00    +0.000 NA
ATOM     14  C   UNL     1       2.851   4.286  20.375  0.00  0.00    +0.000 A 
ENDBRANCH   6   9
ENDBRANCH   3   5
ENDBRANCH   1   3
BRANCH   1  15
ATOM     15  C   UNL     1       7.662   7.172  17.657  0.00  0.00    +0.000 C 
BRANCH  15  16
ATOM     16  C   UNL     1       7.920   8.679  17.664  0.00  0.00    +0.000 C 
BRANCH  16  17
ATOM     17  O   UNL     1       8.805   8.961  18.750  0.00  0.00    +0.000 OA
BRANCH  17  21
ATOM     18  C   UNL     1      10.008  12.904  19.571  0.00  0.00    +0.000 A 
ATOM     19  C   UNL     1      10.025  11.877  20.532  0.00  0.00    +0.000 A 
ATOM     20  C   UNL     1       9.608  10.578  20.221  0.00  0.00    +0.000 A 
ATOM     21  C   UNL     1       9.114  10.274  18.957  0.00  0.00    +0.000 A 
ATOM     22  C   UNL     1       9.033  11.285  18.006  0.00  0.00    +0.000 A 
ATOM     23  C   UNL     1       9.467  12.583  18.314  0.00  0.00    +0.000 A 
BRANCH  18  25
ATOM     24  C   UNL     1       9.862  15.397  19.063  0.00  0.00    +0.000 C 
ATOM     25  C   UNL     1      10.584  14.299  19.880  0.00  0.00    +0.000 C 
ATOM     26  C   UNL     1      12.086  14.338  19.542  0.00  0.00    +0.000 C 
ATOM     27  C   UNL     1      10.421  14.693  21.369  0.00  0.00    +0.000 C 
ENDBRANCH  18  25
ENDBRANCH  17  21
ENDBRANCH  16  17
ENDBRANCH  15  16
ENDBRANCH   1  15
TORSDOF 8
ENDMDL
MODEL 9
REMARK VINA RESULT:      -7.0      1.253      1.399
REMARK  Name = 
REMARK  11 active torsions:
REMARK  status: ('A' for Active; 'I' for Inactive)
REMARK    1  A    between atoms: C_1  and  C_2
REMARK    2  A    between atoms: C_2  and  C_3
REMARK    3  A    between atoms: C_2  and  C_4
REMARK    4  A    between atoms: C_2  and  C_5
REMARK    5  A    between atoms: C_8  and  O_9
REMARK    6  A    between atoms: O_9  and  C_10
REMARK    7  A    between atoms: C_10  and  C_11
REMARK    8  A    between atoms: C_11  and  N_12
REMARK    9  A    between atoms: N_12  and  C_13
REMARK   10  A    between atoms: C_13  and  N_15
REMARK   11  A    between atoms: C_16  and  C_18
REMARK                            x       y       z     vdW  Elec       q    Type
REMARK                         _______ _______ _______ _____ _____    ______ ____
ROOT
ATOM      1  N   UNL     1       3.597   3.883  19.609  0.00  0.00    +0.000 N 
ATOM      2  H   UNL     1       4.524   4.314  19.612  0.00  0.00    +0.000 HD
ENDROOT
BRANCH   1   3
ATOM      3  C   UNL     1       3.271   3.206  18.469  0.00  0.00    +0.000 C 
ATOM      4  S   UNL     1       1.954   2.201  18.267  0.00  0.00    +0.000 S 
BRANCH   3   5
ATOM      5  N   UNL     1       4.131   3.383  17.398  0.00  0.00    +0.000 N 
ATOM      6  C   UNL     1       4.673   4.580  16.951  0.00  0.00    +0.000 C 
ATOM      7  O   UNL     1       4.422   5.663  17.472  0.00  0.00    +0.000 OA
ATOM      8  H   UNL     1       4.417   2.512  16.970  0.00  0.00    +0.000 HD
BRANCH   6   9
ATOM      9  C   UNL     1       5.598   4.551  15.796  0.00  0.00    +0.000 A 
ATOM     10  C   UNL     1       5.381   3.861  14.603  0.00  0.00    +0.000 A 
ATOM     11  C   UNL     1       6.294   4.010  13.556  0.00  0.00    +0.000 A 
ATOM     12  C   UNL     1       7.394   4.838  13.739  0.00  0.00    +0.000 A 
ATOM     13  N   UNL     1       7.645   5.500  14.886  0.00  0.00    +0.000 NA
ATOM     14  C   UNL     1       6.739   5.349  15.882  0.00  0.00    +0.000 A 
ENDBRANCH   6   9
ENDBRANCH   3   5
ENDBRANCH   1   3
BRANCH   1  15
ATOM     15  C   UNL     1       2.827   4.017  20.839  0.00  0.00    +0.000 C 
BRANCH  15  16
ATOM     16  C   UNL     1       1.984   5.291  20.892  0.00  0.00    +0.000 C 
BRANCH  16  17
ATOM     17  O   UNL     1       2.609   6.259  20.047  0.00  0.00    +0.000 OA
BRANCH  17  21
ATOM     18  C   UNL     1       0.665   9.947  19.509  0.00  0.00    +0.000 A 
ATOM     19  C   UNL     1       1.449   9.337  18.514  0.00  0.00    +0.000 A 
ATOM     20  C   UNL     1       2.088   8.111  18.735  0.00  0.00    +0.000 A 
ATOM     21  C   UNL     1       2.005   7.481  19.972  0.00  0.00    +0.000 A 
ATOM     22  C   UNL     1       1.284   8.091  20.991  0.00  0.00    +0.000 A 
ATOM     23  C   UNL     1       0.630   9.312  20.763  0.00  0.00    +0.000 A 
BRANCH  18  25
ATOM     24  C   UNL     1      -0.798  11.779  20.509  0.00  0.00    +0.000 C 
ATOM     25  C   UNL     1      -0.137  11.231  19.221  0.00  0.00    +0.000 C 
ATOM     26  C   UNL     1      -1.238  10.945  18.183  0.00  0.00    +0.000 C 
ATOM     27  C   UNL     1       0.750  12.375  18.672  0.00  0.00    +0.000 C 
ENDBRANCH  18  25
ENDBRANCH  17  21
ENDBRANCH  16  17
ENDBRANCH  15  16
ENDBRANCH   1  15
TORSDOF 8
ENDMDL
