MODEL 1
REMARK VINA RESULT:      -9.0      0.000      0.000
REMARK  Name = 
REMARK  5 active torsions:
REMARK  status: ('A' for Active; 'I' for Inactive)
REMARK    1  A    between atoms: C_1  and  C_2
REMARK    2  A    between atoms: C_4  and  C_5
REMARK    3  A    between atoms: C_9  and  N_10
REMARK    4  A    between atoms: C_13  and  C_14
REMARK    5  A    between atoms: C_24  and  C_25
REMARK                            x       y       z     vdW  Elec       q    Type
REMARK                         _______ _______ _______ _____ _____    ______ ____
ROOT
ATOM      1  N   UNL     1       4.281   5.255  16.705  0.00  0.00    +0.000 N 
ATOM      2  C   UNL     1       3.570   5.320  17.908  0.00  0.00    +0.000 A 
ATOM      3  C   UNL     1       2.982   6.530  18.215  0.00  0.00    +0.000 A 
ATOM      4  C   UNL     1       2.326   6.643  19.425  0.00  0.00    +0.000 A 
ATOM      5  N   UNL     1       2.253   5.607  20.282  0.00  0.00    +0.000 NA
ATOM      6  C   UNL     1       2.840   4.460  19.905  0.00  0.00    +0.000 A 
ATOM      7  C   UNL     1       2.726   3.288  20.827  0.00  0.00    +0.000 C 
ATOM      8  N   UNL     1       3.509   4.279  18.745  0.00  0.00    +0.000 NA
ATOM      9  H   UNL     1       3.684   5.431  15.904  0.00  0.00    +0.000 HD
ENDROOT
BRANCH   1  18
ATOM     10  C   UNL     1       4.533   3.104  11.616  0.00  0.00    +0.000 C 
ATOM     11  C   UNL     1       5.372   3.729  12.693  0.00  0.00    +0.000 A 
ATOM     12  C   UNL     1       6.582   4.349  12.376  0.00  0.00    +0.000 A 
ATOM     13  C   UNL     1       7.382   4.929  13.371  0.00  0.00    +0.000 A 
ATOM     14  C   UNL     1       8.692   5.558  12.974  0.00  0.00    +0.000 C 
ATOM     15  C   UNL     1       6.955   4.898  14.719  0.00  0.00    +0.000 A 
ATOM     16  C   UNL     1       5.741   4.251  15.057  0.00  0.00    +0.000 A 
ATOM     17  C   UNL     1       4.957   3.685  14.030  0.00  0.00    +0.000 A 
ATOM     18  C   UNL     1       5.241   4.172  16.501  0.00  0.00    +0.000 C 
ATOM     19  C   UNL     1       6.418   4.338  17.481  0.00  0.00    +0.000 C 
ATOM     20  C   UNL     1       7.180   5.619  17.159  0.00  0.00    +0.000 C 
ATOM     21  C   UNL     1       7.845   5.491  15.795  0.00  0.00    +0.000 C 
ENDBRANCH   1  18
BRANCH   4  22
ATOM     22  C   UNL     1       1.646   7.887  19.842  0.00  0.00    +0.000 A 
ATOM     23  C   UNL     1       1.529   8.979  18.966  0.00  0.00    +0.000 A 
ATOM     24  C   UNL     1       0.916  10.180  19.357  0.00  0.00    +0.000 A 
ATOM     25  C   UNL     1       0.405  10.312  20.661  0.00  0.00    +0.000 A 
ATOM     26  N   UNL     1      -0.203  11.439  21.194  0.00  0.00    +0.000 NA
ATOM     27  C   UNL     1      -0.540  11.205  22.441  0.00  0.00    +0.000 A 
ATOM     28  S   UNL     1      -0.179   9.647  23.051  0.00  0.00    +0.000 S 
ATOM     29  C   UNL     1       0.512   9.227  21.530  0.00  0.00    +0.000 A 
ATOM     30  C   UNL     1       1.116   8.019  21.141  0.00  0.00    +0.000 A 
ENDBRANCH   4  22
TORSDOF 2
ENDMDL
MODEL 2
REMARK VINA RESULT:      -8.6      0.989      1.352
REMARK  Name = 
REMARK  5 active torsions:
REMARK  status: ('A' for Active; 'I' for Inactive)
REMARK    1  A    between atoms: C_1  and  C_2
REMARK    2  A    between atoms: C_4  and  C_5
REMARK    3  A    between atoms: C_9  and  N_10
REMARK    4  A    between atoms: C_13  and  C_14
REMARK    5  A    between atoms: C_24  and  C_25
REMARK                            x       y       z     vdW  Elec       q    Type
REMARK                         _______ _______ _______ _____ _____    ______ ____
ROOT
ATOM      1  N   UNL     1       4.266   5.133  16.696  0.00  0.00    +0.000 N 
ATOM      2  C   UNL     1       3.588   5.166  17.920  0.00  0.00    +0.000 A 
ATOM      3  C   UNL     1       3.003   6.364  18.271  0.00  0.00    +0.000 A 
ATOM      4  C   UNL     1       2.380   6.446  19.501  0.00  0.00    +0.000 A 
ATOM      5  N   UNL     1       2.336   5.390  20.335  0.00  0.00    +0.000 NA
ATOM      6  C   UNL     1       2.918   4.255  19.915  0.00  0.00    +0.000 A 
ATOM      7  C   UNL     1       2.835   3.062  20.812  0.00  0.00    +0.000 C 
ATOM      8  N   UNL     1       3.555   4.105  18.734  0.00  0.00    +0.000 NA
ATOM      9  H   UNL     1       3.646   5.324  15.916  0.00  0.00    +0.000 HD
ENDROOT
BRANCH   1  18
ATOM     10  C   UNL     1       4.416   3.129  11.543  0.00  0.00    +0.000 C 
ATOM     11  C   UNL     1       5.275   3.726  12.619  0.00  0.00    +0.000 A 
ATOM     12  C   UNL     1       6.476   4.361  12.295  0.00  0.00    +0.000 A 
ATOM     13  C   UNL     1       7.296   4.915  13.288  0.00  0.00    +0.000 A 
ATOM     14  C   UNL     1       8.594   5.562  12.881  0.00  0.00    +0.000 C 
ATOM     15  C   UNL     1       6.897   4.845  14.643  0.00  0.00    +0.000 A 
ATOM     16  C   UNL     1       5.694   4.182  14.989  0.00  0.00    +0.000 A 
ATOM     17  C   UNL     1       4.889   3.643  13.963  0.00  0.00    +0.000 A 
ATOM     18  C   UNL     1       5.226   4.060  16.441  0.00  0.00    +0.000 C 
ATOM     19  C   UNL     1       6.423   4.203  17.399  0.00  0.00    +0.000 C 
ATOM     20  C   UNL     1       7.173   5.496  17.098  0.00  0.00    +0.000 C 
ATOM     21  C   UNL     1       7.809   5.410  15.716  0.00  0.00    +0.000 C 
ENDBRANCH   1  18
BRANCH   4  22
ATOM     22  C   UNL     1       1.706   7.676  19.965  0.00  0.00    +0.000 A 
ATOM     23  C   UNL     1       1.114   7.744  21.237  0.00  0.00    +0.000 A 
ATOM     24  C   UNL     1       0.439   8.893  21.681  0.00  0.00    +0.000 A 
ATOM     25  C   UNL     1       0.339  10.014  20.837  0.00  0.00    +0.000 A 
ATOM     26  N   UNL     1      -0.311  11.203  21.127  0.00  0.00    +0.000 NA
ATOM     27  C   UNL     1      -0.212  12.017  20.102  0.00  0.00    +0.000 A 
ATOM     28  S   UNL     1       0.664  11.440  18.750  0.00  0.00    +0.000 S 
ATOM     29  C   UNL     1       0.934   9.953  19.577  0.00  0.00    +0.000 A 
ATOM     30  C   UNL     1       1.618   8.809  19.132  0.00  0.00    +0.000 A 
ENDBRANCH   4  22
TORSDOF 2
ENDMDL
MODEL 3
REMARK VINA RESULT:      -8.0      3.818     11.057
REMARK  Name = 
REMARK  5 active torsions:
REMARK  status: ('A' for Active; 'I' for Inactive)
REMARK    1  A    between atoms: C_1  and  C_2
REMARK    2  A    between atoms: C_4  and  C_5
REMARK    3  A    between atoms: C_9  and  N_10
REMARK    4  A    between atoms: C_13  and  C_14
REMARK    5  A    between atoms: C_24  and  C_25
REMARK                            x       y       z     vdW  Elec       q    Type
REMARK                         _______ _______ _______ _____ _____    ______ ____
ROOT
ATOM      1  N   UNL     1      -1.439  11.462  20.360  0.00  0.00    +0.000 N 
ATOM      2  C   UNL     1      -0.235  11.249  19.680  0.00  0.00    +0.000 A 
ATOM      3  C   UNL     1       0.241   9.955  19.654  0.00  0.00    +0.000 A 
ATOM      4  C   UNL     1       1.459   9.725  19.044  0.00  0.00    +0.000 A 
ATOM      5  N   UNL     1       2.161  10.726  18.483  0.00  0.00    +0.000 NA
ATOM      6  C   UNL     1       1.624  11.956  18.538  0.00  0.00    +0.000 A 
ATOM      7  C   UNL     1       2.373  13.068  17.878  0.00  0.00    +0.000 C 
ATOM      8  N   UNL     1       0.448  12.258  19.128  0.00  0.00    +0.000 NA
ATOM      9  H   UNL     1      -2.205  10.943  19.944  0.00  0.00    +0.000 HD
ENDROOT
BRANCH   1  18
ATOM     10  C   UNL     1      -6.542  13.162  19.072  0.00  0.00    +0.000 C 
ATOM     11  C   UNL     1      -5.591  13.000  20.222  0.00  0.00    +0.000 A 
ATOM     12  C   UNL     1      -6.072  12.888  21.527  0.00  0.00    +0.000 A 
ATOM     13  C   UNL     1      -5.196  12.746  22.614  0.00  0.00    +0.000 A 
ATOM     14  C   UNL     1      -5.772  12.658  24.003  0.00  0.00    +0.000 C 
ATOM     15  C   UNL     1      -3.801  12.702  22.386  0.00  0.00    +0.000 A 
ATOM     16  C   UNL     1      -3.298  12.839  21.069  0.00  0.00    +0.000 A 
ATOM     17  C   UNL     1      -4.208  12.972  19.999  0.00  0.00    +0.000 A 
ATOM     18  C   UNL     1      -1.798  12.819  20.770  0.00  0.00    +0.000 C 
ATOM     19  C   UNL     1      -0.999  13.203  22.029  0.00  0.00    +0.000 C 
ATOM     20  C   UNL     1      -1.410  12.308  23.194  0.00  0.00    +0.000 C 
ATOM     21  C   UNL     1      -2.859  12.590  23.570  0.00  0.00    +0.000 C 
ENDBRANCH   1  18
BRANCH   4  22
ATOM     22  C   UNL     1       2.049   8.374  18.944  0.00  0.00    +0.000 A 
ATOM     23  C   UNL     1       2.832   8.003  17.839  0.00  0.00    +0.000 A 
ATOM     24  C   UNL     1       3.372   6.713  17.711  0.00  0.00    +0.000 A 
ATOM     25  C   UNL     1       3.127   5.752  18.708  0.00  0.00    +0.000 A 
ATOM     26  N   UNL     1       3.572   4.439  18.708  0.00  0.00    +0.000 NA
ATOM     27  C   UNL     1       3.140   3.831  19.789  0.00  0.00    +0.000 A 
ATOM     28  S   UNL     1       2.204   4.769  20.871  0.00  0.00    +0.000 S 
ATOM     29  C   UNL     1       2.357   6.119  19.812  0.00  0.00    +0.000 A 
ATOM     30  C   UNL     1       1.822   7.411  19.948  0.00  0.00    +0.000 A 
ENDBRANCH   4  22
TORSDOF 2
ENDMDL
MODEL 4
REMARK VINA RESULT:      -7.8      3.596     11.080
REMARK  Name = 
REMARK  5 active torsions:
REMARK  status: ('A' for Active; 'I' for Inactive)
REMARK    1  A    between atoms: C_1  and  C_2
REMARK    2  A    between atoms: C_4  and  C_5
REMARK    3  A    between atoms: C_9  and  N_10
REMARK    4  A    between atoms: C_13  and  C_14
REMARK    5  A    between atoms: C_24  and  C_25
REMARK                            x       y       z     vdW  Elec       q    Type
REMARK                         _______ _______ _______ _____ _____    ______ ____
ROOT
ATOM      1  N   UNL     1      -1.413  11.298  20.335  0.00  0.00    +0.000 N 
ATOM      2  C   UNL     1      -0.204  11.009  19.693  0.00  0.00    +0.000 A 
ATOM      3  C   UNL     1       0.232   9.702  19.754  0.00  0.00    +0.000 A 
ATOM      4  C   UNL     1       1.453   9.398  19.184  0.00  0.00    +0.000 A 
ATOM      5  N   UNL     1       2.197  10.342  18.579  0.00  0.00    +0.000 NA
ATOM      6  C   UNL     1       1.698  11.589  18.549  0.00  0.00    +0.000 A 
ATOM      7  C   UNL     1       2.494  12.637  17.839  0.00  0.00    +0.000 C 
ATOM      8  N   UNL     1       0.520  11.962  19.097  0.00  0.00    +0.000 NA
ATOM      9  H   UNL     1      -2.186  10.778  19.934  0.00  0.00    +0.000 HD
ENDROOT
BRANCH   1  18
ATOM     10  C   UNL     1      -6.460  13.051  18.905  0.00  0.00    +0.000 C 
ATOM     11  C   UNL     1      -5.520  12.936  20.070  0.00  0.00    +0.000 A 
ATOM     12  C   UNL     1      -6.011  12.920  21.376  0.00  0.00    +0.000 A 
ATOM     13  C   UNL     1      -5.145  12.823  22.476  0.00  0.00    +0.000 A 
ATOM     14  C   UNL     1      -5.730  12.840  23.864  0.00  0.00    +0.000 C 
ATOM     15  C   UNL     1      -3.751  12.727  22.262  0.00  0.00    +0.000 A 
ATOM     16  C   UNL     1      -3.237  12.768  20.942  0.00  0.00    +0.000 A 
ATOM     17  C   UNL     1      -4.137  12.857  19.859  0.00  0.00    +0.000 A 
ATOM     18  C   UNL     1      -1.736  12.687  20.655  0.00  0.00    +0.000 C 
ATOM     19  C   UNL     1      -0.934  13.129  21.893  0.00  0.00    +0.000 C 
ATOM     20  C   UNL     1      -1.376  12.321  23.109  0.00  0.00    +0.000 C 
ATOM     21  C   UNL     1      -2.818  12.665  23.457  0.00  0.00    +0.000 C 
ENDBRANCH   1  18
BRANCH   4  22
ATOM     22  C   UNL     1       2.003   8.027  19.177  0.00  0.00    +0.000 A 
ATOM     23  C   UNL     1       1.737   7.132  20.227  0.00  0.00    +0.000 A 
ATOM     24  C   UNL     1       2.279   5.837  20.254  0.00  0.00    +0.000 A 
ATOM     25  C   UNL     1       3.118   5.410  19.209  0.00  0.00    +0.000 A 
ATOM     26  N   UNL     1       3.741   4.175  19.109  0.00  0.00    +0.000 NA
ATOM     27  C   UNL     1       4.457   4.134  18.010  0.00  0.00    +0.000 A 
ATOM     28  S   UNL     1       4.426   5.533  17.024  0.00  0.00    +0.000 S 
ATOM     29  C   UNL     1       3.377   6.292  18.159  0.00  0.00    +0.000 A 
ATOM     30  C   UNL     1       2.830   7.586  18.124  0.00  0.00    +0.000 A 
ENDBRANCH   4  22
TORSDOF 2
ENDMDL
MODEL 5
REMARK VINA RESULT:      -7.8      4.170     11.533
REMARK  Name = 
REMARK  5 active torsions:
REMARK  status: ('A' for Active; 'I' for Inactive)
REMARK    1  A    between atoms: C_1  and  C_2
REMARK    2  A    between atoms: C_4  and  C_5
REMARK    3  A    between atoms: C_9  and  N_10
REMARK    4  A    between atoms: C_13  and  C_14
REMARK    5  A    between atoms: C_24  and  C_25
REMARK                            x       y       z     vdW  Elec       q    Type
REMARK                         _______ _______ _______ _____ _____    ______ ____
ROOT
ATOM      1  N   UNL     1      -2.269  11.959  20.225  0.00  0.00    +0.000 N 
ATOM      2  C   UNL     1      -0.978  11.882  19.690  0.00  0.00    +0.000 A 
ATOM      3  C   UNL     1      -0.422  10.624  19.593  0.00  0.00    +0.000 A 
ATOM      4  C   UNL     1       0.874  10.522  19.127  0.00  0.00    +0.000 A 
ATOM      5  N   UNL     1       1.578  11.612  18.769  0.00  0.00    +0.000 NA
ATOM      6  C   UNL     1       0.961  12.801  18.881  0.00  0.00    +0.000 A 
ATOM      7  C   UNL     1       1.716  14.015  18.443  0.00  0.00    +0.000 C 
ATOM      8  N   UNL     1      -0.296  12.978  19.340  0.00  0.00    +0.000 NA
ATOM      9  H   UNL     1      -2.942  11.452  19.660  0.00  0.00    +0.000 HD
ENDROOT
BRANCH   1  18
ATOM     10  C   UNL     1      -7.459  13.308  18.873  0.00  0.00    +0.000 C 
ATOM     11  C   UNL     1      -6.534  13.138  20.043  0.00  0.00    +0.000 A 
ATOM     12  C   UNL     1      -7.045  12.881  21.316  0.00  0.00    +0.000 A 
ATOM     13  C   UNL     1      -6.195  12.730  22.422  0.00  0.00    +0.000 A 
ATOM     14  C   UNL     1      -6.805  12.483  23.778  0.00  0.00    +0.000 C 
ATOM     15  C   UNL     1      -4.795  12.825  22.246  0.00  0.00    +0.000 A 
ATOM     16  C   UNL     1      -4.265  13.110  20.964  0.00  0.00    +0.000 A 
ATOM     17  C   UNL     1      -5.148  13.248  19.873  0.00  0.00    +0.000 A 
ATOM     18  C   UNL     1      -2.760  13.243  20.722  0.00  0.00    +0.000 C 
ATOM     19  C   UNL     1      -2.039  13.594  22.037  0.00  0.00    +0.000 C 
ATOM     20  C   UNL     1      -2.405  12.578  23.113  0.00  0.00    +0.000 C 
ATOM     21  C   UNL     1      -3.885  12.702  23.454  0.00  0.00    +0.000 C 
ENDBRANCH   1  18
BRANCH   4  22
ATOM     22  C   UNL     1       1.556   9.221  18.966  0.00  0.00    +0.000 A 
ATOM     23  C   UNL     1       2.322   8.939  17.823  0.00  0.00    +0.000 A 
ATOM     24  C   UNL     1       2.948   7.696  17.637  0.00  0.00    +0.000 A 
ATOM     25  C   UNL     1       2.810   6.692  18.613  0.00  0.00    +0.000 A 
ATOM     26  N   UNL     1       3.348   5.415  18.559  0.00  0.00    +0.000 NA
ATOM     27  C   UNL     1       3.001   4.749  19.635  0.00  0.00    +0.000 A 
ATOM     28  S   UNL     1       2.042   5.587  20.777  0.00  0.00    +0.000 S 
ATOM     29  C   UNL     1       2.058   6.972  19.754  0.00  0.00    +0.000 A 
ATOM     30  C   UNL     1       1.436   8.217  19.948  0.00  0.00    +0.000 A 
ENDBRANCH   4  22
TORSDOF 2
ENDMDL
MODEL 6
REMARK VINA RESULT:      -7.5      3.924     11.274
REMARK  Name = 
REMARK  5 active torsions:
REMARK  status: ('A' for Active; 'I' for Inactive)
REMARK    1  A    between atoms: C_1  and  C_2
REMARK    2  A    between atoms: C_4  and  C_5
REMARK    3  A    between atoms: C_9  and  N_10
REMARK    4  A    between atoms: C_13  and  C_14
REMARK    5  A    between atoms: C_24  and  C_25
REMARK                            x       y       z     vdW  Elec       q    Type
REMARK                         _______ _______ _______ _____ _____    ______ ____
ROOT
ATOM      1  N   UNL     1      -0.347  12.318  21.113  0.00  0.00    +0.000 N 
ATOM      2  C   UNL     1      -0.388  11.425  20.036  0.00  0.00    +0.000 A 
ATOM      3  C   UNL     1       0.614  10.480  19.978  0.00  0.00    +0.000 A 
ATOM      4  C   UNL     1       0.636   9.624  18.894  0.00  0.00    +0.000 A 
ATOM      5  N   UNL     1      -0.294   9.700  17.923  0.00  0.00    +0.000 NA
ATOM      6  C   UNL     1      -1.244  10.639  18.060  0.00  0.00    +0.000 A 
ATOM      7  C   UNL     1      -2.309  10.702  17.011  0.00  0.00    +0.000 C 
ATOM      8  N   UNL     1      -1.321  11.517  19.083  0.00  0.00    +0.000 NA
ATOM      9  H   UNL     1      -0.430  11.840  22.003  0.00  0.00    +0.000 HD
ENDROOT
BRANCH   1  18
ATOM     10  C   UNL     1      -4.812  12.681  24.357  0.00  0.00    +0.000 C 
ATOM     11  C   UNL     1      -3.526  13.374  24.010  0.00  0.00    +0.000 A 
ATOM     12  C   UNL     1      -2.924  14.244  24.921  0.00  0.00    +0.000 A 
ATOM     13  C   UNL     1      -1.729  14.908  24.609  0.00  0.00    +0.000 A 
ATOM     14  C   UNL     1      -1.141  15.858  25.620  0.00  0.00    +0.000 C 
ATOM     15  C   UNL     1      -1.112  14.685  23.356  0.00  0.00    +0.000 A 
ATOM     16  C   UNL     1      -1.725  13.824  22.413  0.00  0.00    +0.000 A 
ATOM     17  C   UNL     1      -2.923  13.166  22.763  0.00  0.00    +0.000 A 
ATOM     18  C   UNL     1      -1.110  13.563  21.036  0.00  0.00    +0.000 C 
ATOM     19  C   UNL     1      -0.170  14.719  20.646  0.00  0.00    +0.000 C 
ATOM     20  C   UNL     1       0.858  14.942  21.751  0.00  0.00    +0.000 C 
ATOM     21  C   UNL     1       0.159  15.438  23.010  0.00  0.00    +0.000 C 
ENDBRANCH   1  18
BRANCH   4  22
ATOM     22  C   UNL     1       1.654   8.563  18.745  0.00  0.00    +0.000 A 
ATOM     23  C   UNL     1       2.610   8.613  17.718  0.00  0.00    +0.000 A 
ATOM     24  C   UNL     1       3.563   7.597  17.541  0.00  0.00    +0.000 A 
ATOM     25  C   UNL     1       3.569   6.488  18.405  0.00  0.00    +0.000 A 
ATOM     26  N   UNL     1       4.430   5.402  18.341  0.00  0.00    +0.000 NA
ATOM     27  C   UNL     1       4.134   4.553  19.297  0.00  0.00    +0.000 A 
ATOM     28  S   UNL     1       2.845   4.988  20.335  0.00  0.00    +0.000 S 
ATOM     29  C   UNL     1       2.627   6.439  19.432  0.00  0.00    +0.000 A 
ATOM     30  C   UNL     1       1.677   7.458  19.619  0.00  0.00    +0.000 A 
ENDBRANCH   4  22
TORSDOF 2
ENDMDL
MODEL 7
REMARK VINA RESULT:      -7.3      3.353     11.253
REMARK  Name = 
REMARK  5 active torsions:
REMARK  status: ('A' for Active; 'I' for Inactive)
REMARK    1  A    between atoms: C_1  and  C_2
REMARK    2  A    between atoms: C_4  and  C_5
REMARK    3  A    between atoms: C_9  and  N_10
REMARK    4  A    between atoms: C_13  and  C_14
REMARK    5  A    between atoms: C_24  and  C_25
REMARK                            x       y       z     vdW  Elec       q    Type
REMARK                         _______ _______ _______ _____ _____    ______ ____
ROOT
ATOM      1  N   UNL     1      -0.506  11.898  21.138  0.00  0.00    +0.000 N 
ATOM      2  C   UNL     1      -0.418  11.037  20.039  0.00  0.00    +0.000 A 
ATOM      3  C   UNL     1       0.582  10.087  20.076  0.00  0.00    +0.000 A 
ATOM      4  C   UNL     1       0.733   9.263  18.978  0.00  0.00    +0.000 A 
ATOM      5  N   UNL     1      -0.070   9.372  17.904  0.00  0.00    +0.000 NA
ATOM      6  C   UNL     1      -1.028  10.313  17.950  0.00  0.00    +0.000 A 
ATOM      7  C   UNL     1      -1.956  10.413  16.783  0.00  0.00    +0.000 C 
ATOM      8  N   UNL     1      -1.227  11.162  18.982  0.00  0.00    +0.000 NA
ATOM      9  H   UNL     1      -0.698  11.395  21.998  0.00  0.00    +0.000 HD
ENDROOT
BRANCH   1  18
ATOM     10  C   UNL     1      -4.867  12.541  24.479  0.00  0.00    +0.000 C 
ATOM     11  C   UNL     1      -3.581  13.189  24.053  0.00  0.00    +0.000 A 
ATOM     12  C   UNL     1      -2.939  14.103  24.890  0.00  0.00    +0.000 A 
ATOM     13  C   UNL     1      -1.742  14.724  24.504  0.00  0.00    +0.000 A 
ATOM     14  C   UNL     1      -1.110  15.724  25.436  0.00  0.00    +0.000 C 
ATOM     15  C   UNL     1      -1.166  14.413  23.251  0.00  0.00    +0.000 A 
ATOM     16  C   UNL     1      -1.820  13.506  22.381  0.00  0.00    +0.000 A 
ATOM     17  C   UNL     1      -3.018  12.893  22.805  0.00  0.00    +0.000 A 
ATOM     18  C   UNL     1      -1.250  13.149  21.006  0.00  0.00    +0.000 C 
ATOM     19  C   UNL     1      -0.303  14.262  20.518  0.00  0.00    +0.000 C 
ATOM     20  C   UNL     1       0.760  14.534  21.577  0.00  0.00    +0.000 C 
ATOM     21  C   UNL     1       0.106  15.120  22.822  0.00  0.00    +0.000 C 
ENDBRANCH   1  18
BRANCH   4  22
ATOM     22  C   UNL     1       1.759   8.200  18.923  0.00  0.00    +0.000 A 
ATOM     23  C   UNL     1       1.910   7.281  19.975  0.00  0.00    +0.000 A 
ATOM     24  C   UNL     1       2.901   6.287  19.955  0.00  0.00    +0.000 A 
ATOM     25  C   UNL     1       3.780   6.200  18.860  0.00  0.00    +0.000 A 
ATOM     26  N   UNL     1       4.816   5.290  18.711  0.00  0.00    +0.000 NA
ATOM     27  C   UNL     1       5.433   5.513  17.574  0.00  0.00    +0.000 A 
ATOM     28  S   UNL     1       4.821   6.788  16.609  0.00  0.00    +0.000 S 
ATOM     29  C   UNL     1       3.627   7.104  17.810  0.00  0.00    +0.000 A 
ATOM     30  C   UNL     1       2.631   8.096  17.821  0.00  0.00    +0.000 A 
ENDBRANCH   4  22
TORSDOF 2
ENDMDL
MODEL 8
REMARK VINA RESULT:      -7.1      3.943     11.184
REMARK  Name = 
REMARK  5 active torsions:
REMARK  status: ('A' for Active; 'I' for Inactive)
REMARK    1  A    between atoms: C_1  and  C_2
REMARK    2  A    between atoms: C_4  and  C_5
REMARK    3  A    between atoms: C_9  and  N_10
REMARK    4  A    between atoms: C_13  and  C_14
REMARK    5  A    between atoms: C_24  and  C_25
REMARK                            x       y       z     vdW  Elec       q    Type
REMARK                         _______ _______ _______ _____ _____    ______ ____
ROOT
ATOM      1  N   UNL     1      -0.208  12.591  20.797  0.00  0.00    +0.000 N 
ATOM      2  C   UNL     1      -0.291  11.622  19.791  0.00  0.00    +0.000 A 
ATOM      3  C   UNL     1       0.675  10.637  19.799  0.00  0.00    +0.000 A 
ATOM      4  C   UNL     1       0.657   9.703  18.782  0.00  0.00    +0.000 A 
ATOM      5  N   UNL     1      -0.277   9.741  17.813  0.00  0.00    +0.000 NA
ATOM      6  C   UNL     1      -1.191  10.722  17.883  0.00  0.00    +0.000 A 
ATOM      7  C   UNL     1      -2.261  10.748  16.839  0.00  0.00    +0.000 C 
ATOM      8  N   UNL     1      -1.227  11.677  18.838  0.00  0.00    +0.000 NA
ATOM      9  H   UNL     1      -0.301  12.184  21.721  0.00  0.00    +0.000 HD
ENDROOT
BRANCH   1  18
ATOM     10  C   UNL     1      -5.647  12.494  21.797  0.00  0.00    +0.000 C 
ATOM     11  C   UNL     1      -4.374  13.193  22.176  0.00  0.00    +0.000 A 
ATOM     12  C   UNL     1      -4.267  13.853  23.401  0.00  0.00    +0.000 A 
ATOM     13  C   UNL     1      -3.089  14.520  23.766  0.00  0.00    +0.000 A 
ATOM     14  C   UNL     1      -3.042  15.240  25.089  0.00  0.00    +0.000 C 
ATOM     15  C   UNL     1      -1.982  14.516  22.887  0.00  0.00    +0.000 A 
ATOM     16  C   UNL     1      -2.085  13.872  21.629  0.00  0.00    +0.000 A 
ATOM     17  C   UNL     1      -3.282  13.204  21.298  0.00  0.00    +0.000 A 
ATOM     18  C   UNL     1      -0.925  13.854  20.632  0.00  0.00    +0.000 C 
ATOM     19  C   UNL     1       0.033  15.028  20.909  0.00  0.00    +0.000 C 
ATOM     20  C   UNL     1       0.472  15.001  22.370  0.00  0.00    +0.000 C 
ATOM     21  C   UNL     1      -0.725  15.275  23.270  0.00  0.00    +0.000 C 
ENDBRANCH   1  18
BRANCH   4  22
ATOM     22  C   UNL     1       1.633   8.597  18.708  0.00  0.00    +0.000 A 
ATOM     23  C   UNL     1       2.611   8.557  17.700  0.00  0.00    +0.000 A 
ATOM     24  C   UNL     1       3.525   7.496  17.594  0.00  0.00    +0.000 A 
ATOM     25  C   UNL     1       3.468   6.432  18.512  0.00  0.00    +0.000 A 
ATOM     26  N   UNL     1       4.285   5.311  18.520  0.00  0.00    +0.000 NA
ATOM     27  C   UNL     1       3.936   4.523  19.511  0.00  0.00    +0.000 A 
ATOM     28  S   UNL     1       2.645   5.061  20.497  0.00  0.00    +0.000 S 
ATOM     29  C   UNL     1       2.505   6.472  19.520  0.00  0.00    +0.000 A 
ATOM     30  C   UNL     1       1.594   7.536  19.635  0.00  0.00    +0.000 A 
ENDBRANCH   4  22
TORSDOF 2
ENDMDL
MODEL 9
REMARK VINA RESULT:      -7.1      3.428     11.117
REMARK  Name = 
REMARK  5 active torsions:
REMARK  status: ('A' for Active; 'I' for Inactive)
REMARK    1  A    between atoms: C_1  and  C_2
REMARK    2  A    between atoms: C_4  and  C_5
REMARK    3  A    between atoms: C_9  and  N_10
REMARK    4  A    between atoms: C_13  and  C_14
REMARK    5  A    between atoms: C_24  and  C_25
REMARK                            x       y       z     vdW  Elec       q    Type
REMARK                         _______ _______ _______ _____ _____    ______ ____
ROOT
ATOM      1  N   UNL     1      -0.171  12.340  20.722  0.00  0.00    +0.000 N 
ATOM      2  C   UNL     1      -0.203  11.338  19.745  0.00  0.00    +0.000 A 
ATOM      3  C   UNL     1       0.753  10.349  19.842  0.00  0.00    +0.000 A 
ATOM      4  C   UNL     1       0.787   9.382  18.857  0.00  0.00    +0.000 A 
ATOM      5  N   UNL     1      -0.089   9.393  17.834  0.00  0.00    +0.000 NA
ATOM      6  C   UNL     1      -0.997  10.382  17.819  0.00  0.00    +0.000 A 
ATOM      7  C   UNL     1      -2.004  10.379  16.713  0.00  0.00    +0.000 C 
ATOM      8  N   UNL     1      -1.081  11.368  18.738  0.00  0.00    +0.000 NA
ATOM      9  H   UNL     1      -0.321  11.964  21.653  0.00  0.00    +0.000 HD
ENDROOT
BRANCH   1  18
ATOM     10  C   UNL     1      -5.681  12.256  21.197  0.00  0.00    +0.000 C 
ATOM     11  C   UNL     1      -4.449  12.960  21.688  0.00  0.00    +0.000 A 
ATOM     12  C   UNL     1      -4.460  13.634  22.910  0.00  0.00    +0.000 A 
ATOM     13  C   UNL     1      -3.321  14.305  23.378  0.00  0.00    +0.000 A 
ATOM     14  C   UNL     1      -3.400  15.041  24.691  0.00  0.00    +0.000 C 
ATOM     15  C   UNL     1      -2.135  14.291  22.609  0.00  0.00    +0.000 A 
ATOM     16  C   UNL     1      -2.117  13.631  21.356  0.00  0.00    +0.000 A 
ATOM     17  C   UNL     1      -3.278  12.959  20.919  0.00  0.00    +0.000 A 
ATOM     18  C   UNL     1      -0.867  13.601  20.474  0.00  0.00    +0.000 C 
ATOM     19  C   UNL     1       0.062  14.778  20.828  0.00  0.00    +0.000 C 
ATOM     20  C   UNL     1       0.359  14.768  22.324  0.00  0.00    +0.000 C 
ATOM     21  C   UNL     1      -0.919  15.053  23.103  0.00  0.00    +0.000 C 
ENDBRANCH   1  18
BRANCH   4  22
ATOM     22  C   UNL     1       1.757   8.267  18.876  0.00  0.00    +0.000 A 
ATOM     23  C   UNL     1       1.816   7.374  19.959  0.00  0.00    +0.000 A 
ATOM     24  C   UNL     1       2.754   6.331  20.009  0.00  0.00    +0.000 A 
ATOM     25  C   UNL     1       3.672   6.165  18.956  0.00  0.00    +0.000 A 
ATOM     26  N   UNL     1       4.665   5.200  18.877  0.00  0.00    +0.000 NA
ATOM     27  C   UNL     1       5.339   5.357  17.761  0.00  0.00    +0.000 A 
ATOM     28  S   UNL     1       4.834   6.631  16.736  0.00  0.00    +0.000 S 
ATOM     29  C   UNL     1       3.610   7.044  17.875  0.00  0.00    +0.000 A 
ATOM     30  C   UNL     1       2.667   8.085  17.816  0.00  0.00    +0.000 A 
ENDBRANCH   4  22
TORSDOF 2
ENDMDL
