MODEL 1
REMARK VINA RESULT:      -6.6      0.000      0.000
REMARK  Name = 
REMARK  20 active torsions:
REMARK  status: ('A' for Active; 'I' for Inactive)
REMARK    1  A    between atoms: C_1  and  C_2
REMARK    2  A    between atoms: C_2  and  C_3
REMARK    3  A    between atoms: C_3  and  C_4
REMARK    4  A    between atoms: C_4  and  C_5
REMARK    5  A    between atoms: C_5  and  C_6
REMARK    6  A    between atoms: C_6  and  C_7
REMARK    7  A    between atoms: C_7  and  C_8
REMARK    8  A    between atoms: C_8  and  C_9
REMARK    9  A    between atoms: C_9  and  C_10
REMARK   10  A    between atoms: C_10  and  C_11
REMARK   11  A    between atoms: C_11  and  C_12
REMARK   12  A    between atoms: C_12  and  C_13
REMARK   13  A    between atoms: C_13  and  C_14
REMARK   14  A    between atoms: C_14  and  O_15
REMARK   15  A    between atoms: O_15  and  C_16
REMARK   16  A    between atoms: C_17  and  O_18
REMARK   17  A    between atoms: C_22  and  C_23
REMARK   18  A    between atoms: C_23  and  O_24
REMARK   19  A    between atoms: C_23  and  C_25
REMARK   20  A    between atoms: C_25  and  O_26
REMARK                            x       y       z     vdW  Elec       q    Type
REMARK                         _______ _______ _______ _____ _____    ______ ____
ROOT
ATOM      1  O   UNL     1       6.062   3.931  18.846  0.00  0.00    +0.000 OA
ENDROOT
BRANCH   1   2
ATOM      2  C   UNL     1       6.444   5.148  18.331  0.00  0.00    +0.000 C 
ATOM      3  C   UNL     1       7.502   5.811  18.796  0.00  0.00    +0.000 C 
ATOM      4  C   UNL     1       7.526   7.135  18.148  0.00  0.00    +0.000 C 
ATOM      5  O   UNL     1       8.356   7.997  18.298  0.00  0.00    +0.000 OA
ATOM      6  O   UNL     1       6.414   7.245  17.363  0.00  0.00    +0.000 OA
ATOM      7  C   UNL     1       5.692   6.000  17.340  0.00  0.00    +0.000 C 
BRANCH   3   8
ATOM      8  O   UNL     1       8.349   5.403  19.784  0.00  0.00    +0.000 OA
ATOM      9  H   UNL     1       8.833   6.200  20.078  0.00  0.00    +0.000 HD
ENDBRANCH   3   8
BRANCH   7  10
ATOM     10  C   UNL     1       5.637   5.524  15.867  0.00  0.00    +0.000 C 
BRANCH  10  11
ATOM     11  O   UNL     1       5.495   6.619  14.960  0.00  0.00    +0.000 OA
ATOM     12  H   UNL     1       4.541   6.737  14.804  0.00  0.00    +0.000 HD
ENDBRANCH  10  11
BRANCH  10  13
ATOM     13  C   UNL     1       6.929   4.774  15.452  0.00  0.00    +0.000 C 
BRANCH  13  14
ATOM     14  O   UNL     1       7.667   5.518  14.479  0.00  0.00    +0.000 OA
ATOM     15  H   UNL     1       7.930   6.366  14.879  0.00  0.00    +0.000 HD
ENDBRANCH  13  14
ENDBRANCH  10  13
ENDBRANCH   7  10
ENDBRANCH   1   2
BRANCH   1  16
ATOM     16  C   UNL     1       4.654   3.797  18.975  0.00  0.00    +0.000 C 
BRANCH  16  17
ATOM     17  C   UNL     1       4.033   2.849  17.962  0.00  0.00    +0.000 C 
BRANCH  17  18
ATOM     18  C   UNL     1       2.547   3.188  17.773  0.00  0.00    +0.000 C 
BRANCH  18  19
ATOM     19  C   UNL     1       1.643   2.221  18.541  0.00  0.00    +0.000 C 
BRANCH  19  20
ATOM     20  C   UNL     1       0.739   2.937  19.523  0.00  0.00    +0.000 C 
BRANCH  20  21
ATOM     21  C   UNL     1       1.328   2.823  20.925  0.00  0.00    +0.000 C 
BRANCH  21  22
ATOM     22  C   UNL     1       2.009   4.122  21.320  0.00  0.00    +0.000 C 
BRANCH  22  23
ATOM     23  C   UNL     1       1.394   5.288  20.563  0.00  0.00    +0.000 C 
BRANCH  23  24
ATOM     24  C   UNL     1       2.416   6.400  20.397  0.00  0.00    +0.000 C 
BRANCH  24  25
ATOM     25  C   UNL     1       1.727   7.698  20.007  0.00  0.00    +0.000 C 
BRANCH  25  26
ATOM     26  C   UNL     1       1.317   8.477  21.250  0.00  0.00    +0.000 C 
BRANCH  26  27
ATOM     27  C   UNL     1       0.066   9.299  20.971  0.00  0.00    +0.000 C 
BRANCH  27  29
ATOM     28  C   UNL     1      -0.792  10.176  23.155  0.00  0.00    +0.000 C 
ATOM     29  C   UNL     1      -0.008  10.508  21.898  0.00  0.00    +0.000 C 
ENDBRANCH  27  29
ENDBRANCH  26  27
ENDBRANCH  25  26
ENDBRANCH  24  25
ENDBRANCH  23  24
ENDBRANCH  22  23
ENDBRANCH  21  22
ENDBRANCH  20  21
ENDBRANCH  19  20
ENDBRANCH  18  19
ENDBRANCH  17  18
ENDBRANCH  16  17
ENDBRANCH   1  16
TORSDOF 19
ENDMDL
MODEL 2
REMARK VINA RESULT:      -6.5      1.591      1.930
REMARK  Name = 
REMARK  20 active torsions:
REMARK  status: ('A' for Active; 'I' for Inactive)
REMARK    1  A    between atoms: C_1  and  C_2
REMARK    2  A    between atoms: C_2  and  C_3
REMARK    3  A    between atoms: C_3  and  C_4
REMARK    4  A    between atoms: C_4  and  C_5
REMARK    5  A    between atoms: C_5  and  C_6
REMARK    6  A    between atoms: C_6  and  C_7
REMARK    7  A    between atoms: C_7  and  C_8
REMARK    8  A    between atoms: C_8  and  C_9
REMARK    9  A    between atoms: C_9  and  C_10
REMARK   10  A    between atoms: C_10  and  C_11
REMARK   11  A    between atoms: C_11  and  C_12
REMARK   12  A    between atoms: C_12  and  C_13
REMARK   13  A    between atoms: C_13  and  C_14
REMARK   14  A    between atoms: C_14  and  O_15
REMARK   15  A    between atoms: O_15  and  C_16
REMARK   16  A    between atoms: C_17  and  O_18
REMARK   17  A    between atoms: C_22  and  C_23
REMARK   18  A    between atoms: C_23  and  O_24
REMARK   19  A    between atoms: C_23  and  C_25
REMARK   20  A    between atoms: C_25  and  O_26
REMARK                            x       y       z     vdW  Elec       q    Type
REMARK                         _______ _______ _______ _____ _____    ______ ____
ROOT
ATOM      1  O   UNL     1       6.133   3.990  18.605  0.00  0.00    +0.000 OA
ENDROOT
BRANCH   1   2
ATOM      2  C   UNL     1       6.711   5.167  18.189  0.00  0.00    +0.000 C 
ATOM      3  C   UNL     1       7.526   5.869  18.975  0.00  0.00    +0.000 C 
ATOM      4  C   UNL     1       7.826   7.142  18.292  0.00  0.00    +0.000 C 
ATOM      5  O   UNL     1       8.556   8.017  18.686  0.00  0.00    +0.000 OA
ATOM      6  O   UNL     1       7.101   7.185  17.136  0.00  0.00    +0.000 OA
ATOM      7  C   UNL     1       6.415   5.938  16.927  0.00  0.00    +0.000 C 
BRANCH   3   8
ATOM      8  O   UNL     1       7.923   5.542  20.238  0.00  0.00    +0.000 OA
ATOM      9  H   UNL     1       8.887   5.705  20.275  0.00  0.00    +0.000 HD
ENDBRANCH   3   8
BRANCH   7  10
ATOM     10  C   UNL     1       6.915   5.352  15.583  0.00  0.00    +0.000 C 
BRANCH  10  11
ATOM     11  O   UNL     1       7.778   4.231  15.782  0.00  0.00    +0.000 OA
ATOM     12  H   UNL     1       8.416   4.230  15.047  0.00  0.00    +0.000 HD
ENDBRANCH  10  11
BRANCH  10  13
ATOM     13  C   UNL     1       5.744   4.855  14.697  0.00  0.00    +0.000 C 
BRANCH  13  14
ATOM     14  O   UNL     1       6.229   4.136  13.560  0.00  0.00    +0.000 OA
ATOM     15  H   UNL     1       7.195   4.049  13.643  0.00  0.00    +0.000 HD
ENDBRANCH  13  14
ENDBRANCH  10  13
ENDBRANCH   7  10
ENDBRANCH   1   2
BRANCH   1  16
ATOM     16  C   UNL     1       4.715   4.004  18.518  0.00  0.00    +0.000 C 
BRANCH  16  17
ATOM     17  C   UNL     1       4.168   3.261  17.310  0.00  0.00    +0.000 C 
BRANCH  17  18
ATOM     18  C   UNL     1       2.661   3.022  17.483  0.00  0.00    +0.000 C 
BRANCH  18  19
ATOM     19  C   UNL     1       2.363   2.131  18.690  0.00  0.00    +0.000 C 
BRANCH  19  20
ATOM     20  C   UNL     1       1.000   2.411  19.289  0.00  0.00    +0.000 C 
BRANCH  20  21
ATOM     21  C   UNL     1       1.175   3.098  20.639  0.00  0.00    +0.000 C 
BRANCH  21  22
ATOM     22  C   UNL     1       0.863   4.579  20.523  0.00  0.00    +0.000 C 
BRANCH  22  23
ATOM     23  C   UNL     1       2.151   5.385  20.471  0.00  0.00    +0.000 C 
BRANCH  23  24
ATOM     24  C   UNL     1       1.919   6.695  19.738  0.00  0.00    +0.000 C 
BRANCH  24  25
ATOM     25  C   UNL     1       2.570   6.655  18.363  0.00  0.00    +0.000 C 
BRANCH  25  26
ATOM     26  C   UNL     1       2.857   8.067  17.870  0.00  0.00    +0.000 C 
BRANCH  26  27
ATOM     27  C   UNL     1       1.599   8.922  17.949  0.00  0.00    +0.000 C 
BRANCH  27  29
ATOM     28  C   UNL     1       0.941  11.082  19.031  0.00  0.00    +0.000 C 
ATOM     29  C   UNL     1       1.953  10.393  18.133  0.00  0.00    +0.000 C 
ENDBRANCH  27  29
ENDBRANCH  26  27
ENDBRANCH  25  26
ENDBRANCH  24  25
ENDBRANCH  23  24
ENDBRANCH  22  23
ENDBRANCH  21  22
ENDBRANCH  20  21
ENDBRANCH  19  20
ENDBRANCH  18  19
ENDBRANCH  17  18
ENDBRANCH  16  17
ENDBRANCH   1  16
TORSDOF 19
ENDMDL
MODEL 3
REMARK VINA RESULT:      -6.4      1.617      3.267
REMARK  Name = 
REMARK  20 active torsions:
REMARK  status: ('A' for Active; 'I' for Inactive)
REMARK    1  A    between atoms: C_1  and  C_2
REMARK    2  A    between atoms: C_2  and  C_3
REMARK    3  A    between atoms: C_3  and  C_4
REMARK    4  A    between atoms: C_4  and  C_5
REMARK    5  A    between atoms: C_5  and  C_6
REMARK    6  A    between atoms: C_6  and  C_7
REMARK    7  A    between atoms: C_7  and  C_8
REMARK    8  A    between atoms: C_8  and  C_9
REMARK    9  A    between atoms: C_9  and  C_10
REMARK   10  A    between atoms: C_10  and  C_11
REMARK   11  A    between atoms: C_11  and  C_12
REMARK   12  A    between atoms: C_12  and  C_13
REMARK   13  A    between atoms: C_13  and  C_14
REMARK   14  A    between atoms: C_14  and  O_15
REMARK   15  A    between atoms: O_15  and  C_16
REMARK   16  A    between atoms: C_17  and  O_18
REMARK   17  A    between atoms: C_22  and  C_23
REMARK   18  A    between atoms: C_23  and  O_24
REMARK   19  A    between atoms: C_23  and  C_25
REMARK   20  A    between atoms: C_25  and  O_26
REMARK                            x       y       z     vdW  Elec       q    Type
REMARK                         _______ _______ _______ _____ _____    ______ ____
ROOT
ATOM      1  O   UNL     1       4.432   4.330  18.197  0.00  0.00    +0.000 OA
ENDROOT
BRANCH   1   2
ATOM      2  C   UNL     1       5.635   4.540  17.564  0.00  0.00    +0.000 C 
ATOM      3  C   UNL     1       5.730   4.623  16.238  0.00  0.00    +0.000 C 
ATOM      4  C   UNL     1       7.162   4.678  15.890  0.00  0.00    +0.000 C 
ATOM      5  O   UNL     1       7.632   4.789  14.785  0.00  0.00    +0.000 OA
ATOM      6  O   UNL     1       7.885   4.545  17.040  0.00  0.00    +0.000 OA
ATOM      7  C   UNL     1       7.010   4.532  18.183  0.00  0.00    +0.000 C 
BRANCH   3   8
ATOM      8  O   UNL     1       4.705   4.547  15.341  0.00  0.00    +0.000 OA
ATOM      9  H   UNL     1       4.985   5.063  14.559  0.00  0.00    +0.000 HD
ENDBRANCH   3   8
BRANCH   7  10
ATOM     10  C   UNL     1       7.408   5.727  19.085  0.00  0.00    +0.000 C 
BRANCH  10  11
ATOM     11  O   UNL     1       8.482   5.392  19.967  0.00  0.00    +0.000 OA
ATOM     12  H   UNL     1       9.249   5.171  19.410  0.00  0.00    +0.000 HD
ENDBRANCH  10  11
BRANCH  10  13
ATOM     13  C   UNL     1       7.885   6.945  18.254  0.00  0.00    +0.000 C 
BRANCH  13  14
ATOM     14  O   UNL     1       8.705   7.815  19.039  0.00  0.00    +0.000 OA
ATOM     15  H   UNL     1       9.362   7.272  19.511  0.00  0.00    +0.000 HD
ENDBRANCH  13  14
ENDBRANCH  10  13
ENDBRANCH   7  10
ENDBRANCH   1   2
BRANCH   1  16
ATOM     16  C   UNL     1       4.038   2.965  18.207  0.00  0.00    +0.000 C 
BRANCH  16  17
ATOM     17  C   UNL     1       2.643   2.726  17.656  0.00  0.00    +0.000 C 
BRANCH  17  18
ATOM     18  C   UNL     1       1.789   1.988  18.697  0.00  0.00    +0.000 C 
BRANCH  18  19
ATOM     19  C   UNL     1       1.008   2.961  19.583  0.00  0.00    +0.000 C 
BRANCH  19  20
ATOM     20  C   UNL     1       1.555   3.019  20.995  0.00  0.00    +0.000 C 
BRANCH  20  21
ATOM     21  C   UNL     1       2.243   4.362  21.213  0.00  0.00    +0.000 C 
BRANCH  21  22
ATOM     22  C   UNL     1       1.539   5.451  20.424  0.00  0.00    +0.000 C 
BRANCH  22  23
ATOM     23  C   UNL     1       2.559   6.368  19.769  0.00  0.00    +0.000 C 
BRANCH  23  24
ATOM     24  C   UNL     1       2.009   6.912  18.461  0.00  0.00    +0.000 C 
BRANCH  24  25
ATOM     25  C   UNL     1       2.925   7.996  17.913  0.00  0.00    +0.000 C 
BRANCH  25  26
ATOM     26  C   UNL     1       2.163   9.307  17.758  0.00  0.00    +0.000 C 
BRANCH  26  27
ATOM     27  C   UNL     1       1.091   9.426  18.833  0.00  0.00    +0.000 C 
BRANCH  27  29
ATOM     28  C   UNL     1       1.822  11.800  18.512  0.00  0.00    +0.000 C 
ATOM     29  C   UNL     1       0.771  10.889  19.120  0.00  0.00    +0.000 C 
ENDBRANCH  27  29
ENDBRANCH  26  27
ENDBRANCH  25  26
ENDBRANCH  24  25
ENDBRANCH  23  24
ENDBRANCH  22  23
ENDBRANCH  21  22
ENDBRANCH  20  21
ENDBRANCH  19  20
ENDBRANCH  18  19
ENDBRANCH  17  18
ENDBRANCH  16  17
ENDBRANCH   1  16
TORSDOF 19
ENDMDL
MODEL 4
REMARK VINA RESULT:      -6.2      1.631      2.119
REMARK  Name = 
REMARK  20 active torsions:
REMARK  status: ('A' for Active; 'I' for Inactive)
REMARK    1  A    between atoms: C_1  and  C_2
REMARK    2  A    between atoms: C_2  and  C_3
REMARK    3  A    between atoms: C_3  and  C_4
REMARK    4  A    between atoms: C_4  and  C_5
REMARK    5  A    between atoms: C_5  and  C_6
REMARK    6  A    between atoms: C_6  and  C_7
REMARK    7  A    between atoms: C_7  and  C_8
REMARK    8  A    between atoms: C_8  and  C_9
REMARK    9  A    between atoms: C_9  and  C_10
REMARK   10  A    between atoms: C_10  and  C_11
REMARK   11  A    between atoms: C_11  and  C_12
REMARK   12  A    between atoms: C_12  and  C_13
REMARK   13  A    between atoms: C_13  and  C_14
REMARK   14  A    between atoms: C_14  and  O_15
REMARK   15  A    between atoms: O_15  and  C_16
REMARK   16  A    between atoms: C_17  and  O_18
REMARK   17  A    between atoms: C_22  and  C_23
REMARK   18  A    between atoms: C_23  and  O_24
REMARK   19  A    between atoms: C_23  and  C_25
REMARK   20  A    between atoms: C_25  and  O_26
REMARK                            x       y       z     vdW  Elec       q    Type
REMARK                         _______ _______ _______ _____ _____    ______ ____
ROOT
ATOM      1  O   UNL     1       6.125   3.857  18.324  0.00  0.00    +0.000 OA
ENDROOT
BRANCH   1   2
ATOM      2  C   UNL     1       6.549   5.097  17.907  0.00  0.00    +0.000 C 
ATOM      3  C   UNL     1       7.472   5.788  18.575  0.00  0.00    +0.000 C 
ATOM      4  C   UNL     1       7.567   7.126  17.960  0.00  0.00    +0.000 C 
ATOM      5  O   UNL     1       8.318   8.013  18.277  0.00  0.00    +0.000 OA
ATOM      6  O   UNL     1       6.622   7.210  16.978  0.00  0.00    +0.000 OA
ATOM      7  C   UNL     1       5.968   5.941  16.801  0.00  0.00    +0.000 C 
BRANCH   3   8
ATOM      8  O   UNL     1       8.131   5.392  19.701  0.00  0.00    +0.000 OA
ATOM      9  H   UNL     1       7.827   4.483  19.893  0.00  0.00    +0.000 HD
ENDBRANCH   3   8
BRANCH   7  10
ATOM     10  C   UNL     1       6.214   5.492  15.339  0.00  0.00    +0.000 C 
BRANCH  10  11
ATOM     11  O   UNL     1       7.606   5.478  15.015  0.00  0.00    +0.000 OA
ATOM     12  H   UNL     1       7.888   6.406  14.935  0.00  0.00    +0.000 HD
ENDBRANCH  10  11
BRANCH  10  13
ATOM     13  C   UNL     1       5.686   4.059  15.076  0.00  0.00    +0.000 C 
BRANCH  13  14
ATOM     14  O   UNL     1       6.440   3.412  14.047  0.00  0.00    +0.000 OA
ATOM     15  H   UNL     1       6.006   2.566  13.837  0.00  0.00    +0.000 HD
ENDBRANCH  13  14
ENDBRANCH  10  13
ENDBRANCH   7  10
ENDBRANCH   1   2
BRANCH   1  16
ATOM     16  C   UNL     1       5.119   3.920  19.325  0.00  0.00    +0.000 C 
BRANCH  16  17
ATOM     17  C   UNL     1       4.486   2.575  19.644  0.00  0.00    +0.000 C 
BRANCH  17  18
ATOM     18  C   UNL     1       3.710   2.664  20.966  0.00  0.00    +0.000 C 
BRANCH  18  19
ATOM     19  C   UNL     1       2.198   2.625  20.740  0.00  0.00    +0.000 C 
BRANCH  19  20
ATOM     20  C   UNL     1       1.827   1.911  19.456  0.00  0.00    +0.000 C 
BRANCH  20  21
ATOM     21  C   UNL     1       0.834   2.765  18.675  0.00  0.00    +0.000 C 
BRANCH  21  22
ATOM     22  C   UNL     1       1.129   4.240  18.880  0.00  0.00    +0.000 C 
BRANCH  22  23
ATOM     23  C   UNL     1       1.957   4.776  17.723  0.00  0.00    +0.000 C 
BRANCH  23  24
ATOM     24  C   UNL     1       2.582   6.108  18.100  0.00  0.00    +0.000 C 
BRANCH  24  25
ATOM     25  C   UNL     1       2.428   6.361  19.592  0.00  0.00    +0.000 C 
BRANCH  25  26
ATOM     26  C   UNL     1       1.943   7.783  19.843  0.00  0.00    +0.000 C 
BRANCH  26  27
ATOM     27  C   UNL     1       1.857   8.552  18.531  0.00  0.00    +0.000 C 
BRANCH  27  29
ATOM     28  C   UNL     1      -0.177   9.971  18.186  0.00  0.00    +0.000 C 
ATOM     29  C   UNL     1       1.233   9.926  18.746  0.00  0.00    +0.000 C 
ENDBRANCH  27  29
ENDBRANCH  26  27
ENDBRANCH  25  26
ENDBRANCH  24  25
ENDBRANCH  23  24
ENDBRANCH  22  23
ENDBRANCH  21  22
ENDBRANCH  20  21
ENDBRANCH  19  20
ENDBRANCH  18  19
ENDBRANCH  17  18
ENDBRANCH  16  17
ENDBRANCH   1  16
TORSDOF 19
ENDMDL
MODEL 5
REMARK VINA RESULT:      -6.2      1.339      2.945
REMARK  Name = 
REMARK  20 active torsions:
REMARK  status: ('A' for Active; 'I' for Inactive)
REMARK    1  A    between atoms: C_1  and  C_2
REMARK    2  A    between atoms: C_2  and  C_3
REMARK    3  A    between atoms: C_3  and  C_4
REMARK    4  A    between atoms: C_4  and  C_5
REMARK    5  A    between atoms: C_5  and  C_6
REMARK    6  A    between atoms: C_6  and  C_7
REMARK    7  A    between atoms: C_7  and  C_8
REMARK    8  A    between atoms: C_8  and  C_9
REMARK    9  A    between atoms: C_9  and  C_10
REMARK   10  A    between atoms: C_10  and  C_11
REMARK   11  A    between atoms: C_11  and  C_12
REMARK   12  A    between atoms: C_12  and  C_13
REMARK   13  A    between atoms: C_13  and  C_14
REMARK   14  A    between atoms: C_14  and  O_15
REMARK   15  A    between atoms: O_15  and  C_16
REMARK   16  A    between atoms: C_17  and  O_18
REMARK   17  A    between atoms: C_22  and  C_23
REMARK   18  A    between atoms: C_23  and  O_24
REMARK   19  A    between atoms: C_23  and  C_25
REMARK   20  A    between atoms: C_25  and  O_26
REMARK                            x       y       z     vdW  Elec       q    Type
REMARK                         _______ _______ _______ _____ _____    ______ ____
ROOT
ATOM      1  O   UNL     1       4.319   3.621  16.861  0.00  0.00    +0.000 OA
ENDROOT
BRANCH   1   2
ATOM      2  C   UNL     1       5.499   4.228  16.499  0.00  0.00    +0.000 C 
ATOM      3  C   UNL     1       5.804   4.477  15.227  0.00  0.00    +0.000 C 
ATOM      4  C   UNL     1       7.193   4.970  15.183  0.00  0.00    +0.000 C 
ATOM      5  O   UNL     1       7.801   5.327  14.205  0.00  0.00    +0.000 OA
ATOM      6  O   UNL     1       7.702   4.921  16.449  0.00  0.00    +0.000 OA
ATOM      7  C   UNL     1       6.678   4.540  17.386  0.00  0.00    +0.000 C 
BRANCH   3   8
ATOM      8  O   UNL     1       5.028   4.213  14.136  0.00  0.00    +0.000 OA
ATOM      9  H   UNL     1       5.422   3.432  13.700  0.00  0.00    +0.000 HD
ENDBRANCH   3   8
BRANCH   7  10
ATOM     10  C   UNL     1       6.533   5.694  18.409  0.00  0.00    +0.000 C 
BRANCH  10  11
ATOM     11  O   UNL     1       6.800   5.257  19.743  0.00  0.00    +0.000 OA
ATOM     12  H   UNL     1       6.694   4.289  19.752  0.00  0.00    +0.000 HD
ENDBRANCH  10  11
BRANCH  10  13
ATOM     13  C   UNL     1       7.521   6.852  18.119  0.00  0.00    +0.000 C 
BRANCH  13  14
ATOM     14  O   UNL     1       8.515   6.950  19.143  0.00  0.00    +0.000 OA
ATOM     15  H   UNL     1       9.384   7.055  18.714  0.00  0.00    +0.000 HD
ENDBRANCH  13  14
ENDBRANCH  10  13
ENDBRANCH   7  10
ENDBRANCH   1   2
BRANCH   1  16
ATOM     16  C   UNL     1       3.370   4.527  17.404  0.00  0.00    +0.000 C 
BRANCH  16  17
ATOM     17  C   UNL     1       1.956   3.973  17.462  0.00  0.00    +0.000 C 
BRANCH  17  18
ATOM     18  C   UNL     1       1.992   2.493  17.872  0.00  0.00    +0.000 C 
BRANCH  18  19
ATOM     19  C   UNL     1       1.098   2.219  19.083  0.00  0.00    +0.000 C 
BRANCH  19  20
ATOM     20  C   UNL     1       1.882   2.178  20.379  0.00  0.00    +0.000 C 
BRANCH  20  21
ATOM     21  C   UNL     1       1.418   3.313  21.284  0.00  0.00    +0.000 C 
BRANCH  21  22
ATOM     22  C   UNL     1       2.281   4.545  21.073  0.00  0.00    +0.000 C 
BRANCH  22  23
ATOM     23  C   UNL     1       1.432   5.699  20.565  0.00  0.00    +0.000 C 
BRANCH  23  24
ATOM     24  C   UNL     1       2.324   6.840  20.104  0.00  0.00    +0.000 C 
BRANCH  24  25
ATOM     25  C   UNL     1       1.532   8.137  20.039  0.00  0.00    +0.000 C 
BRANCH  25  26
ATOM     26  C   UNL     1       0.761   8.355  21.335  0.00  0.00    +0.000 C 
BRANCH  26  27
ATOM     27  C   UNL     1       0.939   9.786  21.824  0.00  0.00    +0.000 C 
BRANCH  27  29
ATOM     28  C   UNL     1       1.082  11.838  20.395  0.00  0.00    +0.000 C 
ATOM     29  C   UNL     1       0.164  10.761  20.945  0.00  0.00    +0.000 C 
ENDBRANCH  27  29
ENDBRANCH  26  27
ENDBRANCH  25  26
ENDBRANCH  24  25
ENDBRANCH  23  24
ENDBRANCH  22  23
ENDBRANCH  21  22
ENDBRANCH  20  21
ENDBRANCH  19  20
ENDBRANCH  18  19
ENDBRANCH  17  18
ENDBRANCH  16  17
ENDBRANCH   1  16
TORSDOF 19
ENDMDL
MODEL 6
REMARK VINA RESULT:      -6.1      1.426      2.038
REMARK  Name = 
REMARK  20 active torsions:
REMARK  status: ('A' for Active; 'I' for Inactive)
REMARK    1  A    between atoms: C_1  and  C_2
REMARK    2  A    between atoms: C_2  and  C_3
REMARK    3  A    between atoms: C_3  and  C_4
REMARK    4  A    between atoms: C_4  and  C_5
REMARK    5  A    between atoms: C_5  and  C_6
REMARK    6  A    between atoms: C_6  and  C_7
REMARK    7  A    between atoms: C_7  and  C_8
REMARK    8  A    between atoms: C_8  and  C_9
REMARK    9  A    between atoms: C_9  and  C_10
REMARK   10  A    between atoms: C_10  and  C_11
REMARK   11  A    between atoms: C_11  and  C_12
REMARK   12  A    between atoms: C_12  and  C_13
REMARK   13  A    between atoms: C_13  and  C_14
REMARK   14  A    between atoms: C_14  and  O_15
REMARK   15  A    between atoms: O_15  and  C_16
REMARK   16  A    between atoms: C_17  and  O_18
REMARK   17  A    between atoms: C_22  and  C_23
REMARK   18  A    between atoms: C_23  and  O_24
REMARK   19  A    between atoms: C_23  and  C_25
REMARK   20  A    between atoms: C_25  and  O_26
REMARK                            x       y       z     vdW  Elec       q    Type
REMARK                         _______ _______ _______ _____ _____    ______ ____
ROOT
ATOM      1  O   UNL     1       5.447   4.104  19.354  0.00  0.00    +0.000 OA
ENDROOT
BRANCH   1   2
ATOM      2  C   UNL     1       6.065   5.132  18.682  0.00  0.00    +0.000 C 
ATOM      3  C   UNL     1       7.168   5.717  19.147  0.00  0.00    +0.000 C 
ATOM      4  C   UNL     1       7.463   6.875  18.283  0.00  0.00    +0.000 C 
ATOM      5  O   UNL     1       8.403   7.624  18.377  0.00  0.00    +0.000 OA
ATOM      6  O   UNL     1       6.461   6.986  17.362  0.00  0.00    +0.000 OA
ATOM      7  C   UNL     1       5.555   5.873  17.472  0.00  0.00    +0.000 C 
BRANCH   3   8
ATOM      8  O   UNL     1       7.844   5.393  20.286  0.00  0.00    +0.000 OA
ATOM      9  H   UNL     1       8.131   4.465  20.181  0.00  0.00    +0.000 HD
ENDBRANCH   3   8
BRANCH   7  10
ATOM     10  C   UNL     1       5.561   5.134  16.110  0.00  0.00    +0.000 C 
BRANCH  10  11
ATOM     11  O   UNL     1       5.330   6.029  15.020  0.00  0.00    +0.000 OA
ATOM     12  H   UNL     1       4.427   6.376  15.123  0.00  0.00    +0.000 HD
ENDBRANCH  10  11
BRANCH  10  13
ATOM     13  C   UNL     1       6.920   4.443  15.833  0.00  0.00    +0.000 C 
BRANCH  13  14
ATOM     14  O   UNL     1       7.772   5.278  15.045  0.00  0.00    +0.000 OA
ATOM     15  H   UNL     1       8.696   5.067  15.268  0.00  0.00    +0.000 HD
ENDBRANCH  13  14
ENDBRANCH  10  13
ENDBRANCH   7  10
ENDBRANCH   1   2
BRANCH   1  16
ATOM     16  C   UNL     1       4.592   3.330  18.525  0.00  0.00    +0.000 C 
BRANCH  16  17
ATOM     17  C   UNL     1       3.543   2.542  19.292  0.00  0.00    +0.000 C 
BRANCH  17  18
ATOM     18  C   UNL     1       2.231   2.505  18.494  0.00  0.00    +0.000 C 
BRANCH  18  19
ATOM     19  C   UNL     1       1.502   3.850  18.539  0.00  0.00    +0.000 C 
BRANCH  19  20
ATOM     20  C   UNL     1       1.120   4.249  19.949  0.00  0.00    +0.000 C 
BRANCH  20  21
ATOM     21  C   UNL     1       1.980   5.430  20.388  0.00  0.00    +0.000 C 
BRANCH  21  22
ATOM     22  C   UNL     1       2.278   6.335  19.206  0.00  0.00    +0.000 C 
BRANCH  22  23
ATOM     23  C   UNL     1       2.161   7.794  19.620  0.00  0.00    +0.000 C 
BRANCH  23  24
ATOM     24  C   UNL     1       1.449   7.902  20.958  0.00  0.00    +0.000 C 
BRANCH  24  25
ATOM     25  C   UNL     1       0.591   9.156  21.001  0.00  0.00    +0.000 C 
BRANCH  25  26
ATOM     26  C   UNL     1       0.442   9.747  19.605  0.00  0.00    +0.000 C 
BRANCH  26  27
ATOM     27  C   UNL     1      -0.991  10.207  19.374  0.00  0.00    +0.000 C 
BRANCH  27  29
ATOM     28  C   UNL     1      -1.982  11.337  17.372  0.00  0.00    +0.000 C 
ATOM     29  C   UNL     1      -1.384  10.050  17.910  0.00  0.00    +0.000 C 
ENDBRANCH  27  29
ENDBRANCH  26  27
ENDBRANCH  25  26
ENDBRANCH  24  25
ENDBRANCH  23  24
ENDBRANCH  22  23
ENDBRANCH  21  22
ENDBRANCH  20  21
ENDBRANCH  19  20
ENDBRANCH  18  19
ENDBRANCH  17  18
ENDBRANCH  16  17
ENDBRANCH   1  16
TORSDOF 19
ENDMDL
MODEL 7
REMARK VINA RESULT:      -6.0      1.612      2.133
REMARK  Name = 
REMARK  20 active torsions:
REMARK  status: ('A' for Active; 'I' for Inactive)
REMARK    1  A    between atoms: C_1  and  C_2
REMARK    2  A    between atoms: C_2  and  C_3
REMARK    3  A    between atoms: C_3  and  C_4
REMARK    4  A    between atoms: C_4  and  C_5
REMARK    5  A    between atoms: C_5  and  C_6
REMARK    6  A    between atoms: C_6  and  C_7
REMARK    7  A    between atoms: C_7  and  C_8
REMARK    8  A    between atoms: C_8  and  C_9
REMARK    9  A    between atoms: C_9  and  C_10
REMARK   10  A    between atoms: C_10  and  C_11
REMARK   11  A    between atoms: C_11  and  C_12
REMARK   12  A    between atoms: C_12  and  C_13
REMARK   13  A    between atoms: C_13  and  C_14
REMARK   14  A    between atoms: C_14  and  O_15
REMARK   15  A    between atoms: O_15  and  C_16
REMARK   16  A    between atoms: C_17  and  O_18
REMARK   17  A    between atoms: C_22  and  C_23
REMARK   18  A    between atoms: C_23  and  O_24
REMARK   19  A    between atoms: C_23  and  C_25
REMARK   20  A    between atoms: C_25  and  O_26
REMARK                            x       y       z     vdW  Elec       q    Type
REMARK                         _______ _______ _______ _____ _____    ______ ____
ROOT
ATOM      1  O   UNL     1       6.456   4.230  18.479  0.00  0.00    +0.000 OA
ENDROOT
BRANCH   1   2
ATOM      2  C   UNL     1       6.841   5.446  17.964  0.00  0.00    +0.000 C 
ATOM      3  C   UNL     1       7.659   6.265  18.623  0.00  0.00    +0.000 C 
ATOM      4  C   UNL     1       7.726   7.535  17.875  0.00  0.00    +0.000 C 
ATOM      5  O   UNL     1       8.393   8.500  18.152  0.00  0.00    +0.000 OA
ATOM      6  O   UNL     1       6.866   7.451  16.818  0.00  0.00    +0.000 OA
ATOM      7  C   UNL     1       6.307   6.128  16.729  0.00  0.00    +0.000 C 
BRANCH   3   8
ATOM      8  O   UNL     1       8.241   6.035  19.834  0.00  0.00    +0.000 OA
ATOM      9  H   UNL     1       7.753   5.289  20.237  0.00  0.00    +0.000 HD
ENDBRANCH   3   8
BRANCH   7  10
ATOM     10  C   UNL     1       6.705   5.548  15.349  0.00  0.00    +0.000 C 
BRANCH  10  11
ATOM     11  O   UNL     1       7.791   4.626  15.454  0.00  0.00    +0.000 OA
ATOM     12  H   UNL     1       7.697   4.172  16.310  0.00  0.00    +0.000 HD
ENDBRANCH  10  11
BRANCH  10  13
ATOM     13  C   UNL     1       5.535   4.777  14.686  0.00  0.00    +0.000 C 
BRANCH  13  14
ATOM     14  O   UNL     1       4.617   4.288  15.669  0.00  0.00    +0.000 OA
ATOM     15  H   UNL     1       3.712   4.452  15.349  0.00  0.00    +0.000 HD
ENDBRANCH  13  14
ENDBRANCH  10  13
ENDBRANCH   7  10
ENDBRANCH   1   2
BRANCH   1  16
ATOM     16  C   UNL     1       5.263   4.301  19.245  0.00  0.00    +0.000 C 
BRANCH  16  17
ATOM     17  C   UNL     1       4.673   2.944  19.588  0.00  0.00    +0.000 C 
BRANCH  17  18
ATOM     18  C   UNL     1       3.876   2.403  18.392  0.00  0.00    +0.000 C 
BRANCH  18  19
ATOM     19  C   UNL     1       2.560   1.759  18.831  0.00  0.00    +0.000 C 
BRANCH  19  20
ATOM     20  C   UNL     1       1.352   2.537  18.352  0.00  0.00    +0.000 C 
BRANCH  20  21
ATOM     21  C   UNL     1       0.523   2.970  19.557  0.00  0.00    +0.000 C 
BRANCH  21  22
ATOM     22  C   UNL     1       1.327   2.816  20.835  0.00  0.00    +0.000 C 
BRANCH  22  23
ATOM     23  C   UNL     1       1.746   4.180  21.359  0.00  0.00    +0.000 C 
BRANCH  23  24
ATOM     24  C   UNL     1       1.900   5.158  20.206  0.00  0.00    +0.000 C 
BRANCH  24  25
ATOM     25  C   UNL     1       1.240   6.485  20.547  0.00  0.00    +0.000 C 
BRANCH  25  26
ATOM     26  C   UNL     1       2.123   7.646  20.110  0.00  0.00    +0.000 C 
BRANCH  26  27
ATOM     27  C   UNL     1       2.549   7.469  18.658  0.00  0.00    +0.000 C 
BRANCH  27  29
ATOM     28  C   UNL     1       1.447   9.713  18.509  0.00  0.00    +0.000 C 
ATOM     29  C   UNL     1       1.810   8.448  17.753  0.00  0.00    +0.000 C 
ENDBRANCH  27  29
ENDBRANCH  26  27
ENDBRANCH  25  26
ENDBRANCH  24  25
ENDBRANCH  23  24
ENDBRANCH  22  23
ENDBRANCH  21  22
ENDBRANCH  20  21
ENDBRANCH  19  20
ENDBRANCH  18  19
ENDBRANCH  17  18
ENDBRANCH  16  17
ENDBRANCH   1  16
TORSDOF 19
ENDMDL
MODEL 8
REMARK VINA RESULT:      -6.0      3.721      7.247
REMARK  Name = 
REMARK  20 active torsions:
REMARK  status: ('A' for Active; 'I' for Inactive)
REMARK    1  A    between atoms: C_1  and  C_2
REMARK    2  A    between atoms: C_2  and  C_3
REMARK    3  A    between atoms: C_3  and  C_4
REMARK    4  A    between atoms: C_4  and  C_5
REMARK    5  A    between atoms: C_5  and  C_6
REMARK    6  A    between atoms: C_6  and  C_7
REMARK    7  A    between atoms: C_7  and  C_8
REMARK    8  A    between atoms: C_8  and  C_9
REMARK    9  A    between atoms: C_9  and  C_10
REMARK   10  A    between atoms: C_10  and  C_11
REMARK   11  A    between atoms: C_11  and  C_12
REMARK   12  A    between atoms: C_12  and  C_13
REMARK   13  A    between atoms: C_13  and  C_14
REMARK   14  A    between atoms: C_14  and  O_15
REMARK   15  A    between atoms: O_15  and  C_16
REMARK   16  A    between atoms: C_17  and  O_18
REMARK   17  A    between atoms: C_22  and  C_23
REMARK   18  A    between atoms: C_23  and  O_24
REMARK   19  A    between atoms: C_23  and  C_25
REMARK   20  A    between atoms: C_25  and  O_26
REMARK                            x       y       z     vdW  Elec       q    Type
REMARK                         _______ _______ _______ _____ _____    ______ ____
ROOT
ATOM      1  O   UNL     1       4.672   3.542  17.918  0.00  0.00    +0.000 OA
ENDROOT
BRANCH   1   2
ATOM      2  C   UNL     1       3.323   3.593  18.180  0.00  0.00    +0.000 C 
ATOM      3  C   UNL     1       2.607   2.495  18.415  0.00  0.00    +0.000 C 
ATOM      4  C   UNL     1       1.187   2.887  18.487  0.00  0.00    +0.000 C 
ATOM      5  O   UNL     1       0.250   2.164  18.718  0.00  0.00    +0.000 OA
ATOM      6  O   UNL     1       1.100   4.220  18.208  0.00  0.00    +0.000 OA
ATOM      7  C   UNL     1       2.414   4.792  18.077  0.00  0.00    +0.000 C 
BRANCH   3   8
ATOM      8  O   UNL     1       3.072   1.213  18.462  0.00  0.00    +0.000 OA
ATOM      9  H   UNL     1       3.995   1.266  18.781  0.00  0.00    +0.000 HD
ENDBRANCH   3   8
BRANCH   7  10
ATOM     10  C   UNL     1       2.547   5.900  19.151  0.00  0.00    +0.000 C 
BRANCH  10  11
ATOM     11  O   UNL     1       3.709   5.716  19.962  0.00  0.00    +0.000 OA
ATOM     12  H   UNL     1       4.177   6.569  19.985  0.00  0.00    +0.000 HD
ENDBRANCH  10  11
BRANCH  10  13
ATOM     13  C   UNL     1       2.670   7.309  18.518  0.00  0.00    +0.000 C 
BRANCH  13  14
ATOM     14  O   UNL     1       3.782   7.375  17.620  0.00  0.00    +0.000 OA
ATOM     15  H   UNL     1       4.597   7.231  18.133  0.00  0.00    +0.000 HD
ENDBRANCH  13  14
ENDBRANCH  10  13
ENDBRANCH   7  10
ENDBRANCH   1   2
BRANCH   1  16
ATOM     16  C   UNL     1       4.983   3.766  16.551  0.00  0.00    +0.000 C 
BRANCH  16  17
ATOM     17  C   UNL     1       5.856   4.987  16.313  0.00  0.00    +0.000 C 
BRANCH  17  18
ATOM     18  C   UNL     1       7.318   4.657  16.644  0.00  0.00    +0.000 C 
BRANCH  18  19
ATOM     19  C   UNL     1       7.653   4.966  18.105  0.00  0.00    +0.000 C 
BRANCH  19  20
ATOM     20  C   UNL     1       7.092   6.301  18.552  0.00  0.00    +0.000 C 
BRANCH  20  21
ATOM     21  C   UNL     1       8.155   7.379  18.374  0.00  0.00    +0.000 C 
BRANCH  21  22
ATOM     22  C   UNL     1       7.607   8.531  17.550  0.00  0.00    +0.000 C 
BRANCH  22  23
ATOM     23  C   UNL     1       8.255   9.838  17.978  0.00  0.00    +0.000 C 
BRANCH  23  24
ATOM     24  C   UNL     1       9.250   9.585  19.098  0.00  0.00    +0.000 C 
BRANCH  24  25
ATOM     25  C   UNL     1       9.845  10.898  19.583  0.00  0.00    +0.000 C 
BRANCH  25  26
ATOM     26  C   UNL     1       9.208  11.314  20.903  0.00  0.00    +0.000 C 
BRANCH  26  27
ATOM     27  C   UNL     1       9.934  12.520  21.484  0.00  0.00    +0.000 C 
BRANCH  27  29
ATOM     28  C   UNL     1      10.632  14.799  20.715  0.00  0.00    +0.000 C 
ATOM     29  C   UNL     1      10.630  13.316  20.386  0.00  0.00    +0.000 C 
ENDBRANCH  27  29
ENDBRANCH  26  27
ENDBRANCH  25  26
ENDBRANCH  24  25
ENDBRANCH  23  24
ENDBRANCH  22  23
ENDBRANCH  21  22
ENDBRANCH  20  21
ENDBRANCH  19  20
ENDBRANCH  18  19
ENDBRANCH  17  18
ENDBRANCH  16  17
ENDBRANCH   1  16
TORSDOF 19
ENDMDL
MODEL 9
REMARK VINA RESULT:      -6.0      1.761      3.292
REMARK  Name = 
REMARK  20 active torsions:
REMARK  status: ('A' for Active; 'I' for Inactive)
REMARK    1  A    between atoms: C_1  and  C_2
REMARK    2  A    between atoms: C_2  and  C_3
REMARK    3  A    between atoms: C_3  and  C_4
REMARK    4  A    between atoms: C_4  and  C_5
REMARK    5  A    between atoms: C_5  and  C_6
REMARK    6  A    between atoms: C_6  and  C_7
REMARK    7  A    between atoms: C_7  and  C_8
REMARK    8  A    between atoms: C_8  and  C_9
REMARK    9  A    between atoms: C_9  and  C_10
REMARK   10  A    between atoms: C_10  and  C_11
REMARK   11  A    between atoms: C_11  and  C_12
REMARK   12  A    between atoms: C_12  and  C_13
REMARK   13  A    between atoms: C_13  and  C_14
REMARK   14  A    between atoms: C_14  and  O_15
REMARK   15  A    between atoms: O_15  and  C_16
REMARK   16  A    between atoms: C_17  and  O_18
REMARK   17  A    between atoms: C_22  and  C_23
REMARK   18  A    between atoms: C_23  and  O_24
REMARK   19  A    between atoms: C_23  and  C_25
REMARK   20  A    between atoms: C_25  and  O_26
REMARK                            x       y       z     vdW  Elec       q    Type
REMARK                         _______ _______ _______ _____ _____    ______ ____
ROOT
ATOM      1  O   UNL     1       4.423   3.391  16.096  0.00  0.00    +0.000 OA
ENDROOT
BRANCH   1   2
ATOM      2  C   UNL     1       5.577   4.086  15.822  0.00  0.00    +0.000 C 
ATOM      3  C   UNL     1       5.940   4.389  14.577  0.00  0.00    +0.000 C 
ATOM      4  C   UNL     1       7.291   4.977  14.630  0.00  0.00    +0.000 C 
ATOM      5  O   UNL     1       7.930   5.401  13.700  0.00  0.00    +0.000 OA
ATOM      6  O   UNL     1       7.724   4.931  15.924  0.00  0.00    +0.000 OA
ATOM      7  C   UNL     1       6.676   4.456  16.787  0.00  0.00    +0.000 C 
BRANCH   3   8
ATOM      8  O   UNL     1       5.252   4.102  13.435  0.00  0.00    +0.000 OA
ATOM      9  H   UNL     1       4.642   4.850  13.285  0.00  0.00    +0.000 HD
ENDBRANCH   3   8
BRANCH   7  10
ATOM     10  C   UNL     1       6.388   5.570  17.824  0.00  0.00    +0.000 C 
BRANCH  10  11
ATOM     11  O   UNL     1       7.510   5.801  18.679  0.00  0.00    +0.000 OA
ATOM     12  H   UNL     1       7.256   5.499  19.569  0.00  0.00    +0.000 HD
ENDBRANCH  10  11
BRANCH  10  13
ATOM     13  C   UNL     1       6.066   6.925  17.144  0.00  0.00    +0.000 C 
BRANCH  13  14
ATOM     14  O   UNL     1       7.244   7.724  17.005  0.00  0.00    +0.000 OA
ATOM     15  H   UNL     1       7.758   7.656  17.829  0.00  0.00    +0.000 HD
ENDBRANCH  13  14
ENDBRANCH  10  13
ENDBRANCH   7  10
ENDBRANCH   1   2
BRANCH   1  16
ATOM     16  C   UNL     1       3.761   3.848  17.267  0.00  0.00    +0.000 C 
BRANCH  16  17
ATOM     17  C   UNL     1       2.370   3.264  17.452  0.00  0.00    +0.000 C 
BRANCH  17  18
ATOM     18  C   UNL     1       2.433   2.060  18.404  0.00  0.00    +0.000 C 
BRANCH  18  19
ATOM     19  C   UNL     1       1.866   2.399  19.784  0.00  0.00    +0.000 C 
BRANCH  19  20
ATOM     20  C   UNL     1       2.869   3.128  20.654  0.00  0.00    +0.000 C 
BRANCH  20  21
ATOM     21  C   UNL     1       2.193   4.333  21.300  0.00  0.00    +0.000 C 
BRANCH  21  22
ATOM     22  C   UNL     1       1.518   5.190  20.243  0.00  0.00    +0.000 C 
BRANCH  22  23
ATOM     23  C   UNL     1       2.406   6.369  19.878  0.00  0.00    +0.000 C 
BRANCH  23  24
ATOM     24  C   UNL     1       2.214   6.734  18.416  0.00  0.00    +0.000 C 
BRANCH  24  25
ATOM     25  C   UNL     1       2.672   8.162  18.163  0.00  0.00    +0.000 C 
BRANCH  25  26
ATOM     26  C   UNL     1       1.477   9.059  17.865  0.00  0.00    +0.000 C 
BRANCH  26  27
ATOM     27  C   UNL     1       1.003   9.749  19.137  0.00  0.00    +0.000 C 
BRANCH  27  29
ATOM     28  C   UNL     1      -1.020   9.896  17.669  0.00  0.00    +0.000 C 
ATOM     29  C   UNL     1      -0.341  10.433  18.916  0.00  0.00    +0.000 C 
ENDBRANCH  27  29
ENDBRANCH  26  27
ENDBRANCH  25  26
ENDBRANCH  24  25
ENDBRANCH  23  24
ENDBRANCH  22  23
ENDBRANCH  21  22
ENDBRANCH  20  21
ENDBRANCH  19  20
ENDBRANCH  18  19
ENDBRANCH  17  18
ENDBRANCH  16  17
ENDBRANCH   1  16
TORSDOF 19
ENDMDL
