MODEL 1
REMARK VINA RESULT:      -9.4      0.000      0.000
REMARK  Name = 
REMARK  8 active torsions:
REMARK  status: ('A' for Active; 'I' for Inactive)
REMARK    1  A    between atoms: C_2  and  O_3
REMARK    2  A    between atoms: C_2  and  C_4
REMARK    3  A    between atoms: N_7  and  C_8
REMARK    4  A    between atoms: C_8  and  C_9
REMARK    5  A    between atoms: C_9  and  C_10
REMARK    6  A    between atoms: C_15  and  C_16
REMARK    7  A    between atoms: C_19  and  C_20
REMARK    8  A    between atoms: C_26  and  C_27
REMARK                            x       y       z     vdW  Elec       q    Type
REMARK                         _______ _______ _______ _____ _____    ______ ____
ROOT
ATOM      1  C   UNL     1      -1.748  11.689  22.085  0.00  0.00    +0.000 A 
ATOM      2  C   UNL     1      -1.324  10.921  23.189  0.00  0.00    +0.000 A 
ATOM      3  C   UNL     1      -0.390   9.886  23.053  0.00  0.00    +0.000 A 
ATOM      4  C   UNL     1       0.082   9.674  21.766  0.00  0.00    +0.000 A 
ATOM      5  O   UNL     1       0.980   8.735  21.356  0.00  0.00    +0.000 OA
ATOM      6  C   UNL     1       1.098   8.964  20.008  0.00  0.00    +0.000 A 
ATOM      7  N   UNL     1       0.359   9.955  19.547  0.00  0.00    +0.000 NA
ATOM      8  C   UNL     1      -0.292  10.411  20.657  0.00  0.00    +0.000 A 
ATOM      9  C   UNL     1      -1.215  11.447  20.804  0.00  0.00    +0.000 A 
ENDROOT
BRANCH   6  10
ATOM     10  C   UNL     1       2.043   8.133  19.282  0.00  0.00    +0.000 A 
ATOM     11  C   UNL     1       2.630   8.544  18.092  0.00  0.00    +0.000 A 
ATOM     12  C   UNL     1       3.521   7.702  17.424  0.00  0.00    +0.000 A 
ATOM     13  C   UNL     1       3.837   6.400  17.885  0.00  0.00    +0.000 A 
ATOM     14  C   UNL     1       3.211   5.967  19.078  0.00  0.00    +0.000 A 
ATOM     15  C   UNL     1       2.361   6.863  19.773  0.00  0.00    +0.000 A 
BRANCH  13  16
ATOM     16  C   UNL     1       4.785   5.592  17.076  0.00  0.00    +0.000 A 
ATOM     17  C   UNL     1       4.362   4.542  16.247  0.00  0.00    +0.000 A 
ATOM     18  C   UNL     1       5.263   3.840  15.441  0.00  0.00    +0.000 A 
ATOM     19  C   UNL     1       6.624   4.115  15.508  0.00  0.00    +0.000 A 
ATOM     20  C   UNL     1       7.085   5.095  16.378  0.00  0.00    +0.000 A 
ATOM     21  C   UNL     1       6.174   5.836  17.135  0.00  0.00    +0.000 A 
ENDBRANCH  13  16
BRANCH  14  22
ATOM     22  C   UNL     1       3.339   4.597  19.715  0.00  0.00    +0.000 C 
ATOM     23  F   UNL     1       2.742   3.563  19.070  0.00  0.00    +0.000 F 
ATOM     24  F   UNL     1       4.645   4.237  19.880  0.00  0.00    +0.000 F 
ATOM     25  F   UNL     1       2.801   4.572  20.973  0.00  0.00    +0.000 F 
ENDBRANCH  14  22
ENDBRANCH   6  10
BRANCH   1  26
ATOM     26  C   UNL     1      -2.789  12.778  22.260  0.00  0.00    +0.000 C 
BRANCH  26  27
ATOM     27  C   UNL     1      -3.303  13.302  20.907  0.00  0.00    +0.000 C 
BRANCH  27  31
ATOM     28  C   UNL     1      -7.420  12.097  20.373  0.00  0.00    +0.000 C 
ATOM     29  C   UNL     1      -6.660  12.811  19.258  0.00  0.00    +0.000 C 
ATOM     30  C   UNL     1      -5.147  12.757  19.466  0.00  0.00    +0.000 C 
ATOM     31  N   UNL     1      -4.777  13.301  20.784  0.00  0.00    +0.000 NA
ATOM     32  C   UNL     1      -5.402  12.523  21.863  0.00  0.00    +0.000 C 
ATOM     33  C   UNL     1      -6.923  12.540  21.749  0.00  0.00    +0.000 C 
BRANCH  28  35
ATOM     34  O   UNL     1      -7.309   9.777  21.116  0.00  0.00    +0.000 OA
ATOM     35  C   UNL     1      -7.332  10.591  20.202  0.00  0.00    +0.000 C 
BRANCH  35  36
ATOM     36  O   UNL     1      -7.261  10.208  18.909  0.00  0.00    +0.000 OA
ATOM     37  H   UNL     1      -6.712  10.793  18.352  0.00  0.00    +0.000 HD
ENDBRANCH  35  36
ENDBRANCH  28  35
ENDBRANCH  27  31
ENDBRANCH  26  27
ENDBRANCH   1  26
TORSDOF 8
ENDMDL
MODEL 2
REMARK VINA RESULT:      -9.1      8.256     11.140
REMARK  Name = 
REMARK  8 active torsions:
REMARK  status: ('A' for Active; 'I' for Inactive)
REMARK    1  A    between atoms: C_2  and  O_3
REMARK    2  A    between atoms: C_2  and  C_4
REMARK    3  A    between atoms: N_7  and  C_8
REMARK    4  A    between atoms: C_8  and  C_9
REMARK    5  A    between atoms: C_9  and  C_10
REMARK    6  A    between atoms: C_15  and  C_16
REMARK    7  A    between atoms: C_19  and  C_20
REMARK    8  A    between atoms: C_26  and  C_27
REMARK                            x       y       z     vdW  Elec       q    Type
REMARK                         _______ _______ _______ _____ _____    ______ ____
ROOT
ATOM      1  C   UNL     1       6.261   5.234  17.142  0.00  0.00    +0.000 A 
ATOM      2  C   UNL     1       7.105   4.717  18.147  0.00  0.00    +0.000 A 
ATOM      3  C   UNL     1       7.989   5.534  18.861  0.00  0.00    +0.000 A 
ATOM      4  C   UNL     1       7.975   6.876  18.511  0.00  0.00    +0.000 A 
ATOM      5  O   UNL     1       8.736   7.878  19.035  0.00  0.00    +0.000 OA
ATOM      6  C   UNL     1       8.325   8.992  18.349  0.00  0.00    +0.000 A 
ATOM      7  N   UNL     1       7.382   8.775  17.452  0.00  0.00    +0.000 NA
ATOM      8  C   UNL     1       7.156   7.432  17.546  0.00  0.00    +0.000 A 
ATOM      9  C   UNL     1       6.270   6.611  16.847  0.00  0.00    +0.000 A 
ENDROOT
BRANCH   6  10
ATOM     10  C   UNL     1       8.932  10.257  18.727  0.00  0.00    +0.000 A 
ATOM     11  C   UNL     1       9.983  10.334  19.632  0.00  0.00    +0.000 A 
ATOM     12  C   UNL     1      10.522  11.576  19.974  0.00  0.00    +0.000 A 
ATOM     13  C   UNL     1      10.016  12.798  19.464  0.00  0.00    +0.000 A 
ATOM     14  C   UNL     1       8.922  12.721  18.570  0.00  0.00    +0.000 A 
ATOM     15  C   UNL     1       8.434  11.447  18.188  0.00  0.00    +0.000 A 
BRANCH  13  16
ATOM     16  C   UNL     1      10.662  14.055  19.918  0.00  0.00    +0.000 A 
ATOM     17  C   UNL     1      11.783  14.601  19.272  0.00  0.00    +0.000 A 
ATOM     18  C   UNL     1      12.333  15.822  19.674  0.00  0.00    +0.000 A 
ATOM     19  C   UNL     1      11.829  16.487  20.786  0.00  0.00    +0.000 A 
ATOM     20  C   UNL     1      10.770  15.933  21.495  0.00  0.00    +0.000 A 
ATOM     21  C   UNL     1      10.184  14.744  21.053  0.00  0.00    +0.000 A 
ENDBRANCH  13  16
BRANCH  14  22
ATOM     22  C   UNL     1       8.173  13.892  17.962  0.00  0.00    +0.000 C 
ATOM     23  F   UNL     1       7.548  14.733  18.823  0.00  0.00    +0.000 F 
ATOM     24  F   UNL     1       8.992  14.672  17.198  0.00  0.00    +0.000 F 
ATOM     25  F   UNL     1       7.185  13.474  17.113  0.00  0.00    +0.000 F 
ENDBRANCH  14  22
ENDBRANCH   6  10
BRANCH   1  26
ATOM     26  C   UNL     1       5.341   4.315  16.362  0.00  0.00    +0.000 C 
BRANCH  26  27
ATOM     27  C   UNL     1       3.876   4.447  16.821  0.00  0.00    +0.000 C 
BRANCH  27  31
ATOM     28  C   UNL     1       2.149   2.091  20.007  0.00  0.00    +0.000 C 
ATOM     29  C   UNL     1       3.662   2.234  19.868  0.00  0.00    +0.000 C 
ATOM     30  C   UNL     1       4.050   3.420  18.986  0.00  0.00    +0.000 C 
ATOM     31  N   UNL     1       3.409   3.325  17.663  0.00  0.00    +0.000 NA
ATOM     32  C   UNL     1       1.945   3.328  17.792  0.00  0.00    +0.000 C 
ATOM     33  C   UNL     1       1.462   2.157  18.644  0.00  0.00    +0.000 C 
BRANCH  28  35
ATOM     34  O   UNL     1       1.838   3.188  22.163  0.00  0.00    +0.000 OA
ATOM     35  C   UNL     1       1.598   3.135  20.964  0.00  0.00    +0.000 C 
BRANCH  35  36
ATOM     36  O   UNL     1       0.776   4.022  20.364  0.00  0.00    +0.000 OA
ATOM     37  H   UNL     1       0.805   3.993  19.389  0.00  0.00    +0.000 HD
ENDBRANCH  35  36
ENDBRANCH  28  35
ENDBRANCH  27  31
ENDBRANCH  26  27
ENDBRANCH   1  26
TORSDOF 8
ENDMDL
MODEL 3
REMARK VINA RESULT:      -9.0      7.910     11.213
REMARK  Name = 
REMARK  8 active torsions:
REMARK  status: ('A' for Active; 'I' for Inactive)
REMARK    1  A    between atoms: C_2  and  O_3
REMARK    2  A    between atoms: C_2  and  C_4
REMARK    3  A    between atoms: N_7  and  C_8
REMARK    4  A    between atoms: C_8  and  C_9
REMARK    5  A    between atoms: C_9  and  C_10
REMARK    6  A    between atoms: C_15  and  C_16
REMARK    7  A    between atoms: C_19  and  C_20
REMARK    8  A    between atoms: C_26  and  C_27
REMARK                            x       y       z     vdW  Elec       q    Type
REMARK                         _______ _______ _______ _____ _____    ______ ____
ROOT
ATOM      1  C   UNL     1       6.841   5.253  16.775  0.00  0.00    +0.000 A 
ATOM      2  C   UNL     1       7.401   4.756  17.969  0.00  0.00    +0.000 A 
ATOM      3  C   UNL     1       8.073   5.588  18.873  0.00  0.00    +0.000 A 
ATOM      4  C   UNL     1       8.147   6.924  18.509  0.00  0.00    +0.000 A 
ATOM      5  O   UNL     1       8.748   7.938  19.194  0.00  0.00    +0.000 OA
ATOM      6  C   UNL     1       8.524   9.039  18.408  0.00  0.00    +0.000 A 
ATOM      7  N   UNL     1       7.842   8.804  17.303  0.00  0.00    +0.000 NA
ATOM      8  C   UNL     1       7.601   7.462  17.358  0.00  0.00    +0.000 A 
ATOM      9  C   UNL     1       6.923   6.625  16.469  0.00  0.00    +0.000 A 
ENDROOT
BRANCH   6  10
ATOM     10  C   UNL     1       9.014  10.313  18.908  0.00  0.00    +0.000 A 
ATOM     11  C   UNL     1       9.842  10.404  20.019  0.00  0.00    +0.000 A 
ATOM     12  C   UNL     1      10.273  11.654  20.469  0.00  0.00    +0.000 A 
ATOM     13  C   UNL     1       9.869  12.869  19.861  0.00  0.00    +0.000 A 
ATOM     14  C   UNL     1       8.997  12.777  18.751  0.00  0.00    +0.000 A 
ATOM     15  C   UNL     1       8.625  11.496  18.273  0.00  0.00    +0.000 A 
BRANCH  13  16
ATOM     16  C   UNL     1      10.381  14.135  20.444  0.00  0.00    +0.000 A 
ATOM     17  C   UNL     1       9.886  14.664  21.647  0.00  0.00    +0.000 A 
ATOM     18  C   UNL     1      10.430  15.821  22.213  0.00  0.00    +0.000 A 
ATOM     19  C   UNL     1      11.426  16.526  21.547  0.00  0.00    +0.000 A 
ATOM     20  C   UNL     1      11.882  16.073  20.316  0.00  0.00    +0.000 A 
ATOM     21  C   UNL     1      11.380  14.883  19.784  0.00  0.00    +0.000 A 
ENDBRANCH  13  16
BRANCH  14  22
ATOM     22  C   UNL     1       8.378  13.937  17.995  0.00  0.00    +0.000 C 
ATOM     23  F   UNL     1       7.743  14.881  18.733  0.00  0.00    +0.000 F 
ATOM     24  F   UNL     1       9.305  14.602  17.246  0.00  0.00    +0.000 F 
ATOM     25  F   UNL     1       7.435  13.512  17.099  0.00  0.00    +0.000 F 
ENDBRANCH  14  22
ENDBRANCH   6  10
BRANCH   1  26
ATOM     26  C   UNL     1       6.151   4.318  15.800  0.00  0.00    +0.000 C 
BRANCH  26  27
ATOM     27  C   UNL     1       4.639   4.218  16.075  0.00  0.00    +0.000 C 
BRANCH  27  31
ATOM     28  C   UNL     1       2.538   3.653  19.810  0.00  0.00    +0.000 C 
ATOM     29  C   UNL     1       2.831   5.054  19.278  0.00  0.00    +0.000 C 
ATOM     30  C   UNL     1       3.171   5.044  17.789  0.00  0.00    +0.000 C 
ATOM     31  N   UNL     1       4.294   4.133  17.511  0.00  0.00    +0.000 NA
ATOM     32  C   UNL     1       3.957   2.756  17.897  0.00  0.00    +0.000 C 
ATOM     33  C   UNL     1       3.622   2.664  19.384  0.00  0.00    +0.000 C 
BRANCH  28  35
ATOM     34  O   UNL     1       0.837   2.898  18.233  0.00  0.00    +0.000 OA
ATOM     35  C   UNL     1       1.157   3.193  19.377  0.00  0.00    +0.000 C 
BRANCH  35  36
ATOM     36  O   UNL     1       0.270   3.151  20.395  0.00  0.00    +0.000 OA
ATOM     37  H   UNL     1       0.617   2.736  21.207  0.00  0.00    +0.000 HD
ENDBRANCH  35  36
ENDBRANCH  28  35
ENDBRANCH  27  31
ENDBRANCH  26  27
ENDBRANCH   1  26
TORSDOF 8
ENDMDL
MODEL 4
REMARK VINA RESULT:      -9.0      8.219     11.256
REMARK  Name = 
REMARK  8 active torsions:
REMARK  status: ('A' for Active; 'I' for Inactive)
REMARK    1  A    between atoms: C_2  and  O_3
REMARK    2  A    between atoms: C_2  and  C_4
REMARK    3  A    between atoms: N_7  and  C_8
REMARK    4  A    between atoms: C_8  and  C_9
REMARK    5  A    between atoms: C_9  and  C_10
REMARK    6  A    between atoms: C_15  and  C_16
REMARK    7  A    between atoms: C_19  and  C_20
REMARK    8  A    between atoms: C_26  and  C_27
REMARK                            x       y       z     vdW  Elec       q    Type
REMARK                         _______ _______ _______ _____ _____    ______ ____
ROOT
ATOM      1  C   UNL     1       6.466   5.204  17.099  0.00  0.00    +0.000 A 
ATOM      2  C   UNL     1       7.237   4.719  18.175  0.00  0.00    +0.000 A 
ATOM      3  C   UNL     1       8.065   5.560  18.929  0.00  0.00    +0.000 A 
ATOM      4  C   UNL     1       8.070   6.892  18.543  0.00  0.00    +0.000 A 
ATOM      5  O   UNL     1       8.787   7.912  19.093  0.00  0.00    +0.000 OA
ATOM      6  C   UNL     1       8.421   9.005  18.349  0.00  0.00    +0.000 A 
ATOM      7  N   UNL     1       7.546   8.759  17.392  0.00  0.00    +0.000 NA
ATOM      8  C   UNL     1       7.320   7.417  17.506  0.00  0.00    +0.000 A 
ATOM      9  C   UNL     1       6.490   6.572  16.768  0.00  0.00    +0.000 A 
ENDROOT
BRANCH   6  10
ATOM     10  C   UNL     1       8.994  10.284  18.735  0.00  0.00    +0.000 A 
ATOM     11  C   UNL     1      10.024  10.385  19.661  0.00  0.00    +0.000 A 
ATOM     12  C   UNL     1      10.530  11.639  20.011  0.00  0.00    +0.000 A 
ATOM     13  C   UNL     1      10.009  12.849  19.487  0.00  0.00    +0.000 A 
ATOM     14  C   UNL     1       8.936  12.747  18.571  0.00  0.00    +0.000 A 
ATOM     15  C   UNL     1       8.482  11.462  18.182  0.00  0.00    +0.000 A 
BRANCH  13  16
ATOM     16  C   UNL     1      10.620  14.120  19.950  0.00  0.00    +0.000 A 
ATOM     17  C   UNL     1      10.257  14.733  21.160  0.00  0.00    +0.000 A 
ATOM     18  C   UNL     1      10.894  15.893  21.610  0.00  0.00    +0.000 A 
ATOM     19  C   UNL     1      11.852  16.518  20.820  0.00  0.00    +0.000 A 
ATOM     20  C   UNL     1      12.177  15.981  19.581  0.00  0.00    +0.000 A 
ATOM     21  C   UNL     1      11.584  14.787  19.163  0.00  0.00    +0.000 A 
ENDBRANCH  13  16
BRANCH  14  22
ATOM     22  C   UNL     1       8.176  13.900  17.944  0.00  0.00    +0.000 C 
ATOM     23  F   UNL     1       7.566  14.765  18.792  0.00  0.00    +0.000 F 
ATOM     24  F   UNL     1       8.980  14.657  17.142  0.00  0.00    +0.000 F 
ATOM     25  F   UNL     1       7.172  13.459  17.126  0.00  0.00    +0.000 F 
ENDBRANCH  14  22
ENDBRANCH   6  10
BRANCH   1  26
ATOM     26  C   UNL     1       5.608   4.259  16.280  0.00  0.00    +0.000 C 
BRANCH  26  27
ATOM     27  C   UNL     1       4.123   4.668  16.302  0.00  0.00    +0.000 C 
BRANCH  27  31
ATOM     28  C   UNL     1       2.091   2.426  19.388  0.00  0.00    +0.000 C 
ATOM     29  C   UNL     1       3.235   1.804  18.590  0.00  0.00    +0.000 C 
ATOM     30  C   UNL     1       4.084   2.860  17.884  0.00  0.00    +0.000 C 
ATOM     31  N   UNL     1       3.250   3.717  17.024  0.00  0.00    +0.000 NA
ATOM     32  C   UNL     1       2.235   4.423  17.818  0.00  0.00    +0.000 C 
ATOM     33  C   UNL     1       1.321   3.442  18.546  0.00  0.00    +0.000 C 
BRANCH  28  35
ATOM     34  O   UNL     1       2.215   4.093  21.164  0.00  0.00    +0.000 OA
ATOM     35  C   UNL     1       2.609   3.041  20.677  0.00  0.00    +0.000 C 
BRANCH  35  36
ATOM     36  O   UNL     1       3.589   2.314  21.253  0.00  0.00    +0.000 OA
ATOM     37  H   UNL     1       4.194   2.836  21.814  0.00  0.00    +0.000 HD
ENDBRANCH  35  36
ENDBRANCH  28  35
ENDBRANCH  27  31
ENDBRANCH  26  27
ENDBRANCH   1  26
TORSDOF 8
ENDMDL
MODEL 5
REMARK VINA RESULT:      -8.9      7.613     10.930
REMARK  Name = 
REMARK  8 active torsions:
REMARK  status: ('A' for Active; 'I' for Inactive)
REMARK    1  A    between atoms: C_2  and  O_3
REMARK    2  A    between atoms: C_2  and  C_4
REMARK    3  A    between atoms: N_7  and  C_8
REMARK    4  A    between atoms: C_8  and  C_9
REMARK    5  A    between atoms: C_9  and  C_10
REMARK    6  A    between atoms: C_15  and  C_16
REMARK    7  A    between atoms: C_19  and  C_20
REMARK    8  A    between atoms: C_26  and  C_27
REMARK                            x       y       z     vdW  Elec       q    Type
REMARK                         _______ _______ _______ _____ _____    ______ ____
ROOT
ATOM      1  C   UNL     1       6.257   5.366  17.796  0.00  0.00    +0.000 A 
ATOM      2  C   UNL     1       7.200   5.083  18.806  0.00  0.00    +0.000 A 
ATOM      3  C   UNL     1       8.127   6.039  19.240  0.00  0.00    +0.000 A 
ATOM      4  C   UNL     1       8.050   7.272  18.609  0.00  0.00    +0.000 A 
ATOM      5  O   UNL     1       8.832   8.367  18.829  0.00  0.00    +0.000 OA
ATOM      6  C   UNL     1       8.333   9.303  17.959  0.00  0.00    +0.000 A 
ATOM      7  N   UNL     1       7.318   8.892  17.223  0.00  0.00    +0.000 NA
ATOM      8  C   UNL     1       7.133   7.602  17.627  0.00  0.00    +0.000 A 
ATOM      9  C   UNL     1       6.207   6.645  17.210  0.00  0.00    +0.000 A 
ENDROOT
BRANCH   6  10
ATOM     10  C   UNL     1       8.943  10.622  17.995  0.00  0.00    +0.000 A 
ATOM     11  C   UNL     1      10.309  10.802  18.170  0.00  0.00    +0.000 A 
ATOM     12  C   UNL     1      10.844  12.092  18.212  0.00  0.00    +0.000 A 
ATOM     13  C   UNL     1      10.043  13.257  18.123  0.00  0.00    +0.000 A 
ATOM     14  C   UNL     1       8.647  13.073  17.981  0.00  0.00    +0.000 A 
ATOM     15  C   UNL     1       8.134  11.756  17.876  0.00  0.00    +0.000 A 
BRANCH  13  16
ATOM     16  C   UNL     1      10.727  14.573  18.200  0.00  0.00    +0.000 A 
ATOM     17  C   UNL     1      10.908  15.258  19.412  0.00  0.00    +0.000 A 
ATOM     18  C   UNL     1      11.616  16.462  19.471  0.00  0.00    +0.000 A 
ATOM     19  C   UNL     1      12.089  17.054  18.306  0.00  0.00    +0.000 A 
ATOM     20  C   UNL     1      11.858  16.441  17.081  0.00  0.00    +0.000 A 
ATOM     21  C   UNL     1      11.204  15.208  17.033  0.00  0.00    +0.000 A 
ENDBRANCH  13  16
BRANCH  14  22
ATOM     22  C   UNL     1       7.595  14.164  17.942  0.00  0.00    +0.000 C 
ATOM     23  F   UNL     1       7.901  15.285  17.242  0.00  0.00    +0.000 F 
ATOM     24  F   UNL     1       6.414  13.708  17.431  0.00  0.00    +0.000 F 
ATOM     25  F   UNL     1       7.289  14.617  19.196  0.00  0.00    +0.000 F 
ENDBRANCH  14  22
ENDBRANCH   6  10
BRANCH   1  26
ATOM     26  C   UNL     1       5.291   4.296  17.324  0.00  0.00    +0.000 C 
BRANCH  26  27
ATOM     27  C   UNL     1       3.966   4.901  16.823  0.00  0.00    +0.000 C 
BRANCH  27  31
ATOM     28  C   UNL     1       1.503   3.884  20.226  0.00  0.00    +0.000 C 
ATOM     29  C   UNL     1       1.193   3.328  18.838  0.00  0.00    +0.000 C 
ATOM     30  C   UNL     1       2.389   3.439  17.894  0.00  0.00    +0.000 C 
ATOM     31  N   UNL     1       2.864   4.830  17.807  0.00  0.00    +0.000 NA
ATOM     32  C   UNL     1       3.294   5.318  19.125  0.00  0.00    +0.000 C 
ATOM     33  C   UNL     1       2.150   5.265  20.134  0.00  0.00    +0.000 C 
BRANCH  28  35
ATOM     34  O   UNL     1       3.451   2.480  20.652  0.00  0.00    +0.000 OA
ATOM     35  C   UNL     1       2.364   2.911  21.013  0.00  0.00    +0.000 C 
BRANCH  35  36
ATOM     36  O   UNL     1       1.802   2.531  22.180  0.00  0.00    +0.000 OA
ATOM     37  H   UNL     1       2.286   1.820  22.642  0.00  0.00    +0.000 HD
ENDBRANCH  35  36
ENDBRANCH  28  35
ENDBRANCH  27  31
ENDBRANCH  26  27
ENDBRANCH   1  26
TORSDOF 8
ENDMDL
MODEL 6
REMARK VINA RESULT:      -8.8      4.365     10.577
REMARK  Name = 
REMARK  8 active torsions:
REMARK  status: ('A' for Active; 'I' for Inactive)
REMARK    1  A    between atoms: C_2  and  O_3
REMARK    2  A    between atoms: C_2  and  C_4
REMARK    3  A    between atoms: N_7  and  C_8
REMARK    4  A    between atoms: C_8  and  C_9
REMARK    5  A    between atoms: C_9  and  C_10
REMARK    6  A    between atoms: C_15  and  C_16
REMARK    7  A    between atoms: C_19  and  C_20
REMARK    8  A    between atoms: C_26  and  C_27
REMARK                            x       y       z     vdW  Elec       q    Type
REMARK                         _______ _______ _______ _____ _____    ______ ____
ROOT
ATOM      1  C   UNL     1       3.818   6.169  18.124  0.00  0.00    +0.000 A 
ATOM      2  C   UNL     1       3.682   7.137  17.109  0.00  0.00    +0.000 A 
ATOM      3  C   UNL     1       2.899   8.285  17.282  0.00  0.00    +0.000 A 
ATOM      4  C   UNL     1       2.272   8.397  18.514  0.00  0.00    +0.000 A 
ATOM      5  O   UNL     1       1.450   9.398  18.939  0.00  0.00    +0.000 OA
ATOM      6  C   UNL     1       1.117   9.026  20.217  0.00  0.00    +0.000 A 
ATOM      7  N   UNL     1       1.654   7.891  20.623  0.00  0.00    +0.000 NA
ATOM      8  C   UNL     1       2.387   7.483  19.546  0.00  0.00    +0.000 A 
ATOM      9  C   UNL     1       3.180   6.348  19.367  0.00  0.00    +0.000 A 
ENDROOT
BRANCH   6  10
ATOM     10  C   UNL     1       0.271   9.939  20.967  0.00  0.00    +0.000 A 
ATOM     11  C   UNL     1       0.096   9.828  22.340  0.00  0.00    +0.000 A 
ATOM     12  C   UNL     1      -0.742  10.722  23.012  0.00  0.00    +0.000 A 
ATOM     13  C   UNL     1      -1.472  11.737  22.346  0.00  0.00    +0.000 A 
ATOM     14  C   UNL     1      -1.322  11.826  20.942  0.00  0.00    +0.000 A 
ATOM     15  C   UNL     1      -0.418  10.950  20.290  0.00  0.00    +0.000 A 
BRANCH  13  16
ATOM     16  C   UNL     1      -2.344  12.613  23.169  0.00  0.00    +0.000 A 
ATOM     17  C   UNL     1      -3.644  12.240  23.547  0.00  0.00    +0.000 A 
ATOM     18  C   UNL     1      -4.422  13.050  24.380  0.00  0.00    +0.000 A 
ATOM     19  C   UNL     1      -3.951  14.293  24.788  0.00  0.00    +0.000 A 
ATOM     20  C   UNL     1      -2.700  14.726  24.366  0.00  0.00    +0.000 A 
ATOM     21  C   UNL     1      -1.901  13.887  23.585  0.00  0.00    +0.000 A 
ENDBRANCH  13  16
BRANCH  14  22
ATOM     22  C   UNL     1      -2.056  12.777  20.017  0.00  0.00    +0.000 C 
ATOM     23  F   UNL     1      -3.411  12.770  20.081  0.00  0.00    +0.000 F 
ATOM     24  F   UNL     1      -1.674  14.072  20.218  0.00  0.00    +0.000 F 
ATOM     25  F   UNL     1      -1.774  12.523  18.702  0.00  0.00    +0.000 F 
ENDBRANCH  14  22
ENDBRANCH   6  10
BRANCH   1  26
ATOM     26  C   UNL     1       4.646   4.920  17.891  0.00  0.00    +0.000 C 
BRANCH  26  27
ATOM     27  C   UNL     1       3.926   3.920  16.967  0.00  0.00    +0.000 C 
BRANCH  27  31
ATOM     28  C   UNL     1       1.427   1.979  19.913  0.00  0.00    +0.000 C 
ATOM     29  C   UNL     1       2.882   1.559  19.718  0.00  0.00    +0.000 C 
ATOM     30  C   UNL     1       3.692   2.620  18.974  0.00  0.00    +0.000 C 
ATOM     31  N   UNL     1       3.066   2.953  17.684  0.00  0.00    +0.000 NA
ATOM     32  C   UNL     1       1.712   3.488  17.883  0.00  0.00    +0.000 C 
ATOM     33  C   UNL     1       0.819   2.482  18.604  0.00  0.00    +0.000 C 
BRANCH  28  35
ATOM     34  O   UNL     1       1.791   2.904  22.140  0.00  0.00    +0.000 OA
ATOM     35  C   UNL     1       1.311   3.013  21.019  0.00  0.00    +0.000 C 
BRANCH  35  36
ATOM     36  O   UNL     1       0.592   4.096  20.658  0.00  0.00    +0.000 OA
ATOM     37  H   UNL     1       0.355   4.683  21.401  0.00  0.00    +0.000 HD
ENDBRANCH  35  36
ENDBRANCH  28  35
ENDBRANCH  27  31
ENDBRANCH  26  27
ENDBRANCH   1  26
TORSDOF 8
ENDMDL
MODEL 7
REMARK VINA RESULT:      -8.8      4.408     10.483
REMARK  Name = 
REMARK  8 active torsions:
REMARK  status: ('A' for Active; 'I' for Inactive)
REMARK    1  A    between atoms: C_2  and  O_3
REMARK    2  A    between atoms: C_2  and  C_4
REMARK    3  A    between atoms: N_7  and  C_8
REMARK    4  A    between atoms: C_8  and  C_9
REMARK    5  A    between atoms: C_9  and  C_10
REMARK    6  A    between atoms: C_15  and  C_16
REMARK    7  A    between atoms: C_19  and  C_20
REMARK    8  A    between atoms: C_26  and  C_27
REMARK                            x       y       z     vdW  Elec       q    Type
REMARK                         _______ _______ _______ _____ _____    ______ ____
ROOT
ATOM      1  C   UNL     1       4.052   5.750  18.072  0.00  0.00    +0.000 A 
ATOM      2  C   UNL     1       3.973   6.736  17.068  0.00  0.00    +0.000 A 
ATOM      3  C   UNL     1       3.227   7.909  17.241  0.00  0.00    +0.000 A 
ATOM      4  C   UNL     1       2.578   8.027  18.461  0.00  0.00    +0.000 A 
ATOM      5  O   UNL     1       1.783   9.051  18.882  0.00  0.00    +0.000 OA
ATOM      6  C   UNL     1       1.410   8.674  20.147  0.00  0.00    +0.000 A 
ATOM      7  N   UNL     1       1.897   7.515  20.548  0.00  0.00    +0.000 NA
ATOM      8  C   UNL     1       2.638   7.095  19.482  0.00  0.00    +0.000 A 
ATOM      9  C   UNL     1       3.394   5.935  19.303  0.00  0.00    +0.000 A 
ENDROOT
BRANCH   6  10
ATOM     10  C   UNL     1       0.580   9.606  20.892  0.00  0.00    +0.000 A 
ATOM     11  C   UNL     1       0.409   9.512  22.267  0.00  0.00    +0.000 A 
ATOM     12  C   UNL     1      -0.412  10.424  22.934  0.00  0.00    +0.000 A 
ATOM     13  C   UNL     1      -1.130  11.444  22.261  0.00  0.00    +0.000 A 
ATOM     14  C   UNL     1      -0.983  11.517  20.855  0.00  0.00    +0.000 A 
ATOM     15  C   UNL     1      -0.095  10.622  20.208  0.00  0.00    +0.000 A 
BRANCH  13  16
ATOM     16  C   UNL     1      -1.985  12.340  23.079  0.00  0.00    +0.000 A 
ATOM     17  C   UNL     1      -1.568  13.620  23.477  0.00  0.00    +0.000 A 
ATOM     18  C   UNL     1      -2.416  14.475  24.188  0.00  0.00    +0.000 A 
ATOM     19  C   UNL     1      -3.672  14.039  24.593  0.00  0.00    +0.000 A 
ATOM     20  C   UNL     1      -4.083  12.748  24.284  0.00  0.00    +0.000 A 
ATOM     21  C   UNL     1      -3.258  11.920  23.520  0.00  0.00    +0.000 A 
ENDBRANCH  13  16
BRANCH  14  22
ATOM     22  C   UNL     1      -1.707  12.471  19.924  0.00  0.00    +0.000 C 
ATOM     23  F   UNL     1      -1.598  13.795  20.198  0.00  0.00    +0.000 F 
ATOM     24  F   UNL     1      -1.302  12.316  18.630  0.00  0.00    +0.000 F 
ATOM     25  F   UNL     1      -3.055  12.235  19.906  0.00  0.00    +0.000 F 
ENDBRANCH  14  22
ENDBRANCH   6  10
BRANCH   1  26
ATOM     26  C   UNL     1       4.840   4.475  17.838  0.00  0.00    +0.000 C 
BRANCH  26  27
ATOM     27  C   UNL     1       4.054   3.466  16.981  0.00  0.00    +0.000 C 
BRANCH  27  31
ATOM     28  C   UNL     1       1.265   2.108  19.990  0.00  0.00    +0.000 C 
ATOM     29  C   UNL     1       2.646   1.472  19.857  0.00  0.00    +0.000 C 
ATOM     30  C   UNL     1       3.611   2.353  19.063  0.00  0.00    +0.000 C 
ATOM     31  N   UNL     1       3.055   2.683  17.740  0.00  0.00    +0.000 NA
ATOM     32  C   UNL     1       1.790   3.418  17.873  0.00  0.00    +0.000 C 
ATOM     33  C   UNL     1       0.753   2.601  18.638  0.00  0.00    +0.000 C 
BRANCH  28  35
ATOM     34  O   UNL     1       1.928   3.205  22.065  0.00  0.00    +0.000 OA
ATOM     35  C   UNL     1       1.284   3.220  21.024  0.00  0.00    +0.000 C 
BRANCH  35  36
ATOM     36  O   UNL     1       0.490   4.261  20.696  0.00  0.00    +0.000 OA
ATOM     37  H   UNL     1       0.690   4.656  19.826  0.00  0.00    +0.000 HD
ENDBRANCH  35  36
ENDBRANCH  28  35
ENDBRANCH  27  31
ENDBRANCH  26  27
ENDBRANCH   1  26
TORSDOF 8
ENDMDL
MODEL 8
REMARK VINA RESULT:      -8.8      8.146     11.236
REMARK  Name = 
REMARK  8 active torsions:
REMARK  status: ('A' for Active; 'I' for Inactive)
REMARK    1  A    between atoms: C_2  and  O_3
REMARK    2  A    between atoms: C_2  and  C_4
REMARK    3  A    between atoms: N_7  and  C_8
REMARK    4  A    between atoms: C_8  and  C_9
REMARK    5  A    between atoms: C_9  and  C_10
REMARK    6  A    between atoms: C_15  and  C_16
REMARK    7  A    between atoms: C_19  and  C_20
REMARK    8  A    between atoms: C_26  and  C_27
REMARK                            x       y       z     vdW  Elec       q    Type
REMARK                         _______ _______ _______ _____ _____    ______ ____
ROOT
ATOM      1  C   UNL     1       6.755   5.166  17.464  0.00  0.00    +0.000 A 
ATOM      2  C   UNL     1       7.577   5.017  18.599  0.00  0.00    +0.000 A 
ATOM      3  C   UNL     1       8.255   6.103  19.167  0.00  0.00    +0.000 A 
ATOM      4  C   UNL     1       8.060   7.323  18.536  0.00  0.00    +0.000 A 
ATOM      5  O   UNL     1       8.603   8.527  18.872  0.00  0.00    +0.000 OA
ATOM      6  C   UNL     1       8.082   9.390  17.942  0.00  0.00    +0.000 A 
ATOM      7  N   UNL     1       7.269   8.835  17.063  0.00  0.00    +0.000 NA
ATOM      8  C   UNL     1       7.251   7.521  17.432  0.00  0.00    +0.000 A 
ATOM      9  C   UNL     1       6.571   6.434  16.880  0.00  0.00    +0.000 A 
ENDROOT
BRANCH   6  10
ATOM     10  C   UNL     1       8.446  10.791  18.070  0.00  0.00    +0.000 A 
ATOM     11  C   UNL     1       7.826  11.789  17.330  0.00  0.00    +0.000 A 
ATOM     12  C   UNL     1       8.223  13.120  17.478  0.00  0.00    +0.000 A 
ATOM     13  C   UNL     1       9.279  13.513  18.338  0.00  0.00    +0.000 A 
ATOM     14  C   UNL     1       9.934  12.491  19.065  0.00  0.00    +0.000 A 
ATOM     15  C   UNL     1       9.472  11.157  18.947  0.00  0.00    +0.000 A 
BRANCH  13  16
ATOM     16  C   UNL     1       9.620  14.957  18.395  0.00  0.00    +0.000 A 
ATOM     17  C   UNL     1       9.130  15.806  19.400  0.00  0.00    +0.000 A 
ATOM     18  C   UNL     1       9.520  17.147  19.475  0.00  0.00    +0.000 A 
ATOM     19  C   UNL     1      10.343  17.694  18.497  0.00  0.00    +0.000 A 
ATOM     20  C   UNL     1      10.780  16.899  17.445  0.00  0.00    +0.000 A 
ATOM     21  C   UNL     1      10.440  15.545  17.408  0.00  0.00    +0.000 A 
ENDBRANCH  13  16
BRANCH  14  22
ATOM     22  C   UNL     1      11.131  12.665  19.980  0.00  0.00    +0.000 C 
ATOM     23  F   UNL     1      12.293  13.058  19.401  0.00  0.00    +0.000 F 
ATOM     24  F   UNL     1      10.879  13.566  20.974  0.00  0.00    +0.000 F 
ATOM     25  F   UNL     1      11.447  11.501  20.627  0.00  0.00    +0.000 F 
ENDBRANCH  14  22
ENDBRANCH   6  10
BRANCH   1  26
ATOM     26  C   UNL     1       6.064   3.962  16.852  0.00  0.00    +0.000 C 
BRANCH  26  27
ATOM     27  C   UNL     1       4.722   4.342  16.199  0.00  0.00    +0.000 C 
BRANCH  27  31
ATOM     28  C   UNL     1       1.914   2.857  19.130  0.00  0.00    +0.000 C 
ATOM     29  C   UNL     1       2.794   1.899  18.331  0.00  0.00    +0.000 C 
ATOM     30  C   UNL     1       3.987   2.611  17.694  0.00  0.00    +0.000 C 
ATOM     31  N   UNL     1       3.543   3.737  16.856  0.00  0.00    +0.000 NA
ATOM     32  C   UNL     1       2.812   4.728  17.659  0.00  0.00    +0.000 C 
ATOM     33  C   UNL     1       1.584   4.109  18.319  0.00  0.00    +0.000 C 
BRANCH  28  35
ATOM     34  O   UNL     1       3.358   2.492  21.061  0.00  0.00    +0.000 OA
ATOM     35  C   UNL     1       2.566   3.203  20.458  0.00  0.00    +0.000 C 
BRANCH  35  36
ATOM     36  O   UNL     1       2.172   4.398  20.945  0.00  0.00    +0.000 OA
ATOM     37  H   UNL     1       2.896   5.045  21.046  0.00  0.00    +0.000 HD
ENDBRANCH  35  36
ENDBRANCH  28  35
ENDBRANCH  27  31
ENDBRANCH  26  27
ENDBRANCH   1  26
TORSDOF 8
ENDMDL
MODEL 9
REMARK VINA RESULT:      -8.6      4.421     11.454
REMARK  Name = 
REMARK  8 active torsions:
REMARK  status: ('A' for Active; 'I' for Inactive)
REMARK    1  A    between atoms: C_2  and  O_3
REMARK    2  A    between atoms: C_2  and  C_4
REMARK    3  A    between atoms: N_7  and  C_8
REMARK    4  A    between atoms: C_8  and  C_9
REMARK    5  A    between atoms: C_9  and  C_10
REMARK    6  A    between atoms: C_15  and  C_16
REMARK    7  A    between atoms: C_19  and  C_20
REMARK    8  A    between atoms: C_26  and  C_27
REMARK                            x       y       z     vdW  Elec       q    Type
REMARK                         _______ _______ _______ _____ _____    ______ ____
ROOT
ATOM      1  C   UNL     1       2.701   5.543  19.130  0.00  0.00    +0.000 A 
ATOM      2  C   UNL     1       2.983   6.492  18.127  0.00  0.00    +0.000 A 
ATOM      3  C   UNL     1       2.547   7.819  18.222  0.00  0.00    +0.000 A 
ATOM      4  C   UNL     1       1.824   8.128  19.364  0.00  0.00    +0.000 A 
ATOM      5  O   UNL     1       1.277   9.330  19.701  0.00  0.00    +0.000 OA
ATOM      6  C   UNL     1       0.688   9.092  20.916  0.00  0.00    +0.000 A 
ATOM      7  N   UNL     1       0.818   7.857  21.364  0.00  0.00    +0.000 NA
ATOM      8  C   UNL     1       1.536   7.237  20.382  0.00  0.00    +0.000 A 
ATOM      9  C   UNL     1       1.985   5.919  20.283  0.00  0.00    +0.000 A 
ENDROOT
BRANCH   6  10
ATOM     10  C   UNL     1       0.050  10.222  21.569  0.00  0.00    +0.000 A 
ATOM     11  C   UNL     1      -0.684  10.084  22.741  0.00  0.00    +0.000 A 
ATOM     12  C   UNL     1      -1.291  11.200  23.321  0.00  0.00    +0.000 A 
ATOM     13  C   UNL     1      -1.231  12.493  22.743  0.00  0.00    +0.000 A 
ATOM     14  C   UNL     1      -0.514  12.626  21.531  0.00  0.00    +0.000 A 
ATOM     15  C   UNL     1       0.147  11.493  20.995  0.00  0.00    +0.000 A 
BRANCH  13  16
ATOM     16  C   UNL     1      -1.934  13.596  23.446  0.00  0.00    +0.000 A 
ATOM     17  C   UNL     1      -1.247  14.594  24.156  0.00  0.00    +0.000 A 
ATOM     18  C   UNL     1      -1.925  15.662  24.752  0.00  0.00    +0.000 A 
ATOM     19  C   UNL     1      -3.314  15.713  24.726  0.00  0.00    +0.000 A 
ATOM     20  C   UNL     1      -4.027  14.698  24.100  0.00  0.00    +0.000 A 
ATOM     21  C   UNL     1      -3.344  13.666  23.452  0.00  0.00    +0.000 A 
ENDBRANCH  13  16
BRANCH  14  22
ATOM     22  C   UNL     1      -0.380  13.886  20.699  0.00  0.00    +0.000 C 
ATOM     23  F   UNL     1       0.433  14.858  21.185  0.00  0.00    +0.000 F 
ATOM     24  F   UNL     1       0.067  13.614  19.438  0.00  0.00    +0.000 F 
ATOM     25  F   UNL     1      -1.587  14.507  20.522  0.00  0.00    +0.000 F 
ENDBRANCH  14  22
ENDBRANCH   6  10
BRANCH   1  26
ATOM     26  C   UNL     1       3.157   4.104  18.979  0.00  0.00    +0.000 C 
BRANCH  26  27
ATOM     27  C   UNL     1       4.459   3.831  19.754  0.00  0.00    +0.000 C 
BRANCH  27  31
ATOM     28  C   UNL     1       7.397   5.521  17.071  0.00  0.00    +0.000 C 
ATOM     29  C   UNL     1       6.594   4.283  16.678  0.00  0.00    +0.000 C 
ATOM     30  C   UNL     1       5.343   4.111  17.538  0.00  0.00    +0.000 C 
ATOM     31  N   UNL     1       5.688   4.079  18.969  0.00  0.00    +0.000 NA
ATOM     32  C   UNL     1       6.338   5.332  19.378  0.00  0.00    +0.000 C 
ATOM     33  C   UNL     1       7.618   5.576  18.582  0.00  0.00    +0.000 C 
BRANCH  28  35
ATOM     34  O   UNL     1       5.838   6.814  15.712  0.00  0.00    +0.000 OA
ATOM     35  C   UNL     1       6.726   6.781  16.554  0.00  0.00    +0.000 C 
BRANCH  35  36
ATOM     36  O   UNL     1       7.220   7.909  17.108  0.00  0.00    +0.000 OA
ATOM     37  H   UNL     1       7.097   8.708  16.561  0.00  0.00    +0.000 HD
ENDBRANCH  35  36
ENDBRANCH  28  35
ENDBRANCH  27  31
ENDBRANCH  26  27
ENDBRANCH   1  26
TORSDOF 8
ENDMDL
