MODEL 1
REMARK VINA RESULT:      -6.9      0.000      0.000
REMARK  Name = 
REMARK  16 active torsions:
REMARK  status: ('A' for Active; 'I' for Inactive)
REMARK    1  A    between atoms: C_1  and  C_2
REMARK    2  A    between atoms: C_2  and  C_3
REMARK    3  A    between atoms: C_3  and  C_4
REMARK    4  A    between atoms: C_4  and  C_5
REMARK    5  A    between atoms: C_5  and  C_6
REMARK    6  A    between atoms: C_6  and  C_7
REMARK    7  A    between atoms: C_7  and  C_8
REMARK    8  A    between atoms: C_8  and  N_9
REMARK    9  A    between atoms: C_10  and  C_11
REMARK   10  A    between atoms: C_11  and  C_12
REMARK   11  A    between atoms: C_12  and  O_14
REMARK   12  A    between atoms: O_14  and  C_15
REMARK   13  A    between atoms: C_19  and  C_20
REMARK   14  A    between atoms: C_21  and  C_22
REMARK   15  A    between atoms: C_22  and  O_24
REMARK   16  A    between atoms: O_24  and  C_25
REMARK                            x       y       z     vdW  Elec       q    Type
REMARK                         _______ _______ _______ _____ _____    ______ ____
ROOT
ATOM      1  N   UNL     1       5.625   4.322  17.546  0.00  0.00    +0.000 NA
ATOM      2  C   UNL     1       5.440   5.593  16.692  0.00  0.00    +0.000 C 
ATOM      3  C   UNL     1       4.410   6.450  17.398  0.00  0.00    +0.000 A 
ATOM      4  C   UNL     1       3.714   7.548  16.918  0.00  0.00    +0.000 A 
ATOM      5  C   UNL     1       2.773   8.183  17.739  0.00  0.00    +0.000 A 
ATOM      6  C   UNL     1       2.528   7.744  19.044  0.00  0.00    +0.000 A 
ATOM      7  C   UNL     1       3.284   6.690  19.564  0.00  0.00    +0.000 A 
ATOM      8  C   UNL     1       4.209   6.084  18.728  0.00  0.00    +0.000 A 
ATOM      9  S   UNL     1       5.258   4.767  19.189  0.00  0.00    +0.000 S 
ATOM     10  O   UNL     1       4.463   3.743  19.824  0.00  0.00    +0.000 OA
ATOM     11  O   UNL     1       6.433   5.358  19.785  0.00  0.00    +0.000 OA
ENDROOT
BRANCH   6  12
ATOM     12  C   UNL     1       1.514   8.443  19.840  0.00  0.00    +0.000 C 
ATOM     13  C   UNL     1       1.166   8.084  21.074  0.00  0.00    +0.000 C 
BRANCH  13  14
ATOM     14  C   UNL     1       0.133   8.831  21.808  0.00  0.00    +0.000 C 
ATOM     15  O   UNL     1      -0.861   8.332  22.313  0.00  0.00    +0.000 OA
BRANCH  14  16
ATOM     16  O   UNL     1       0.476  10.134  21.827  0.00  0.00    +0.000 OA
ATOM     17  C   UNL     1      -0.537  10.987  22.382  0.00  0.00    +0.000 C 
ENDBRANCH  14  16
ENDBRANCH  13  14
ENDBRANCH   6  12
BRANCH   1  18
ATOM     18  C   UNL     1       4.919   3.078  17.100  0.00  0.00    +0.000 C 
BRANCH  18  19
ATOM     19  C   UNL     1       3.390   3.214  17.113  0.00  0.00    +0.000 C 
BRANCH  19  20
ATOM     20  C   UNL     1       2.665   1.906  17.428  0.00  0.00    +0.000 C 
BRANCH  20  21
ATOM     21  C   UNL     1       1.685   2.157  18.555  0.00  0.00    +0.000 C 
BRANCH  21  22
ATOM     22  C   UNL     1       1.318   3.621  18.684  0.00  0.00    +0.000 C 
BRANCH  22  23
ATOM     23  C   UNL     1       0.605   3.802  20.014  0.00  0.00    +0.000 C 
BRANCH  23  25
ATOM     24  C   UNL     1       2.257   3.536  21.861  0.00  0.00    +0.000 C 
ATOM     25  C   UNL     1       1.167   2.844  21.057  0.00  0.00    +0.000 C 
ENDBRANCH  23  25
ENDBRANCH  22  23
ENDBRANCH  21  22
ENDBRANCH  20  21
ENDBRANCH  19  20
ENDBRANCH  18  19
ENDBRANCH   1  18
BRANCH   2  26
ATOM     26  C   UNL     1       5.142   5.275  15.232  0.00  0.00    +0.000 C 
BRANCH  26  27
ATOM     27  C   UNL     1       6.302   4.831  14.413  0.00  0.00    +0.000 C 
ATOM     28  O   UNL     1       7.430   5.285  14.530  0.00  0.00    +0.000 OA
BRANCH  27  29
ATOM     29  O   UNL     1       5.923   3.876  13.529  0.00  0.00    +0.000 OA
ATOM     30  C   UNL     1       6.776   3.778  12.393  0.00  0.00    +0.000 C 
ENDBRANCH  27  29
ENDBRANCH  26  27
ENDBRANCH   2  26
TORSDOF 13
ENDMDL
MODEL 2
REMARK VINA RESULT:      -6.9      0.929      1.068
REMARK  Name = 
REMARK  16 active torsions:
REMARK  status: ('A' for Active; 'I' for Inactive)
REMARK    1  A    between atoms: C_1  and  C_2
REMARK    2  A    between atoms: C_2  and  C_3
REMARK    3  A    between atoms: C_3  and  C_4
REMARK    4  A    between atoms: C_4  and  C_5
REMARK    5  A    between atoms: C_5  and  C_6
REMARK    6  A    between atoms: C_6  and  C_7
REMARK    7  A    between atoms: C_7  and  C_8
REMARK    8  A    between atoms: C_8  and  N_9
REMARK    9  A    between atoms: C_10  and  C_11
REMARK   10  A    between atoms: C_11  and  C_12
REMARK   11  A    between atoms: C_12  and  O_14
REMARK   12  A    between atoms: O_14  and  C_15
REMARK   13  A    between atoms: C_19  and  C_20
REMARK   14  A    between atoms: C_21  and  C_22
REMARK   15  A    between atoms: C_22  and  O_24
REMARK   16  A    between atoms: O_24  and  C_25
REMARK                            x       y       z     vdW  Elec       q    Type
REMARK                         _______ _______ _______ _____ _____    ______ ____
ROOT
ATOM      1  N   UNL     1       5.775   4.339  17.574  0.00  0.00    +0.000 NA
ATOM      2  C   UNL     1       5.586   5.613  16.725  0.00  0.00    +0.000 C 
ATOM      3  C   UNL     1       4.499   6.429  17.393  0.00  0.00    +0.000 A 
ATOM      4  C   UNL     1       3.789   7.508  16.892  0.00  0.00    +0.000 A 
ATOM      5  C   UNL     1       2.793   8.104  17.678  0.00  0.00    +0.000 A 
ATOM      6  C   UNL     1       2.505   7.642  18.966  0.00  0.00    +0.000 A 
ATOM      7  C   UNL     1       3.272   6.608  19.509  0.00  0.00    +0.000 A 
ATOM      8  C   UNL     1       4.253   6.042  18.709  0.00  0.00    +0.000 A 
ATOM      9  S   UNL     1       5.322   4.754  19.203  0.00  0.00    +0.000 S 
ATOM     10  O   UNL     1       4.535   3.698  19.793  0.00  0.00    +0.000 OA
ATOM     11  O   UNL     1       6.450   5.376  19.856  0.00  0.00    +0.000 OA
ENDROOT
BRANCH   6  12
ATOM     12  C   UNL     1       1.435   8.300  19.722  0.00  0.00    +0.000 C 
ATOM     13  C   UNL     1       1.084   9.573  19.549  0.00  0.00    +0.000 C 
BRANCH  13  14
ATOM     14  C   UNL     1       0.004  10.167  20.353  0.00  0.00    +0.000 C 
ATOM     15  O   UNL     1       0.065  10.380  21.554  0.00  0.00    +0.000 OA
BRANCH  14  16
ATOM     16  O   UNL     1      -1.039  10.435  19.542  0.00  0.00    +0.000 OA
ATOM     17  C   UNL     1      -1.629  11.723  19.772  0.00  0.00    +0.000 C 
ENDBRANCH  14  16
ENDBRANCH  13  14
ENDBRANCH   6  12
BRANCH   1  18
ATOM     18  C   UNL     1       5.131   3.078  17.086  0.00  0.00    +0.000 C 
BRANCH  18  19
ATOM     19  C   UNL     1       3.598   3.117  17.156  0.00  0.00    +0.000 C 
BRANCH  19  20
ATOM     20  C   UNL     1       2.982   1.848  17.743  0.00  0.00    +0.000 C 
BRANCH  20  21
ATOM     21  C   UNL     1       1.635   2.197  18.339  0.00  0.00    +0.000 C 
BRANCH  21  22
ATOM     22  C   UNL     1       1.407   3.693  18.412  0.00  0.00    +0.000 C 
BRANCH  22  23
ATOM     23  C   UNL     1       0.978   4.025  19.831  0.00  0.00    +0.000 C 
BRANCH  23  25
ATOM     24  C   UNL     1       2.050   3.144  21.901  0.00  0.00    +0.000 C 
ATOM     25  C   UNL     1       1.133   2.809  20.735  0.00  0.00    +0.000 C 
ENDBRANCH  23  25
ENDBRANCH  22  23
ENDBRANCH  21  22
ENDBRANCH  20  21
ENDBRANCH  19  20
ENDBRANCH  18  19
ENDBRANCH   1  18
BRANCH   2  26
ATOM     26  C   UNL     1       5.363   5.301  15.250  0.00  0.00    +0.000 C 
BRANCH  26  27
ATOM     27  C   UNL     1       6.568   4.882  14.485  0.00  0.00    +0.000 C 
ATOM     28  O   UNL     1       7.592   5.546  14.411  0.00  0.00    +0.000 OA
BRANCH  27  29
ATOM     29  O   UNL     1       6.359   3.685  13.884  0.00  0.00    +0.000 OA
ATOM     30  C   UNL     1       5.357   3.720  12.874  0.00  0.00    +0.000 C 
ENDBRANCH  27  29
ENDBRANCH  26  27
ENDBRANCH   2  26
TORSDOF 13
ENDMDL
MODEL 3
REMARK VINA RESULT:      -6.6      1.033      1.240
REMARK  Name = 
REMARK  16 active torsions:
REMARK  status: ('A' for Active; 'I' for Inactive)
REMARK    1  A    between atoms: C_1  and  C_2
REMARK    2  A    between atoms: C_2  and  C_3
REMARK    3  A    between atoms: C_3  and  C_4
REMARK    4  A    between atoms: C_4  and  C_5
REMARK    5  A    between atoms: C_5  and  C_6
REMARK    6  A    between atoms: C_6  and  C_7
REMARK    7  A    between atoms: C_7  and  C_8
REMARK    8  A    between atoms: C_8  and  N_9
REMARK    9  A    between atoms: C_10  and  C_11
REMARK   10  A    between atoms: C_11  and  C_12
REMARK   11  A    between atoms: C_12  and  O_14
REMARK   12  A    between atoms: O_14  and  C_15
REMARK   13  A    between atoms: C_19  and  C_20
REMARK   14  A    between atoms: C_21  and  C_22
REMARK   15  A    between atoms: C_22  and  O_24
REMARK   16  A    between atoms: O_24  and  C_25
REMARK                            x       y       z     vdW  Elec       q    Type
REMARK                         _______ _______ _______ _____ _____    ______ ____
ROOT
ATOM      1  N   UNL     1       5.681   4.264  17.495  0.00  0.00    +0.000 NA
ATOM      2  C   UNL     1       5.517   5.510  16.601  0.00  0.00    +0.000 C 
ATOM      3  C   UNL     1       4.490   6.399  17.272  0.00  0.00    +0.000 A 
ATOM      4  C   UNL     1       3.810   7.489  16.752  0.00  0.00    +0.000 A 
ATOM      5  C   UNL     1       2.870   8.159  17.546  0.00  0.00    +0.000 A 
ATOM      6  C   UNL     1       2.610   7.762  18.861  0.00  0.00    +0.000 A 
ATOM      7  C   UNL     1       3.350   6.718  19.419  0.00  0.00    +0.000 A 
ATOM      8  C   UNL     1       4.276   6.076  18.610  0.00  0.00    +0.000 A 
ATOM      9  S   UNL     1       5.306   4.763  19.120  0.00  0.00    +0.000 S 
ATOM     10  O   UNL     1       4.495   3.767  19.780  0.00  0.00    +0.000 OA
ATOM     11  O   UNL     1       6.483   5.360  19.708  0.00  0.00    +0.000 OA
ENDROOT
BRANCH   6  12
ATOM     12  C   UNL     1       1.597   8.497  19.626  0.00  0.00    +0.000 C 
ATOM     13  C   UNL     1       1.021   9.619  19.201  0.00  0.00    +0.000 C 
BRANCH  13  14
ATOM     14  C   UNL     1       0.018  10.306  20.029  0.00  0.00    +0.000 C 
ATOM     15  O   UNL     1      -1.183  10.318  19.805  0.00  0.00    +0.000 OA
BRANCH  14  16
ATOM     16  O   UNL     1       0.647  10.902  21.062  0.00  0.00    +0.000 OA
ATOM     17  C   UNL     1       1.038  12.256  20.793  0.00  0.00    +0.000 C 
ENDBRANCH  14  16
ENDBRANCH  13  14
ENDBRANCH   6  12
BRANCH   1  18
ATOM     18  C   UNL     1       4.966   3.014  17.082  0.00  0.00    +0.000 C 
BRANCH  18  19
ATOM     19  C   UNL     1       3.438   3.144  17.145  0.00  0.00    +0.000 C 
BRANCH  19  20
ATOM     20  C   UNL     1       2.739   1.882  17.648  0.00  0.00    +0.000 C 
BRANCH  20  21
ATOM     21  C   UNL     1       1.497   2.290  18.413  0.00  0.00    +0.000 C 
BRANCH  21  22
ATOM     22  C   UNL     1       1.342   3.793  18.499  0.00  0.00    +0.000 C 
BRANCH  22  23
ATOM     23  C   UNL     1       1.015   4.141  19.942  0.00  0.00    +0.000 C 
BRANCH  23  25
ATOM     24  C   UNL     1       2.091   3.134  21.952  0.00  0.00    +0.000 C 
ATOM     25  C   UNL     1       1.098   2.901  20.823  0.00  0.00    +0.000 C 
ENDBRANCH  23  25
ENDBRANCH  22  23
ENDBRANCH  21  22
ENDBRANCH  20  21
ENDBRANCH  19  20
ENDBRANCH  18  19
ENDBRANCH   1  18
BRANCH   2  26
ATOM     26  C   UNL     1       5.227   5.150  15.149  0.00  0.00    +0.000 C 
BRANCH  26  27
ATOM     27  C   UNL     1       6.368   4.587  14.378  0.00  0.00    +0.000 C 
ATOM     28  O   UNL     1       6.350   3.492  13.837  0.00  0.00    +0.000 OA
BRANCH  27  29
ATOM     29  O   UNL     1       7.414   5.451  14.377  0.00  0.00    +0.000 OA
ATOM     30  C   UNL     1       8.097   5.519  13.129  0.00  0.00    +0.000 C 
ENDBRANCH  27  29
ENDBRANCH  26  27
ENDBRANCH   2  26
TORSDOF 13
ENDMDL
MODEL 4
REMARK VINA RESULT:      -6.3      3.368      6.086
REMARK  Name = 
REMARK  16 active torsions:
REMARK  status: ('A' for Active; 'I' for Inactive)
REMARK    1  A    between atoms: C_1  and  C_2
REMARK    2  A    between atoms: C_2  and  C_3
REMARK    3  A    between atoms: C_3  and  C_4
REMARK    4  A    between atoms: C_4  and  C_5
REMARK    5  A    between atoms: C_5  and  C_6
REMARK    6  A    between atoms: C_6  and  C_7
REMARK    7  A    between atoms: C_7  and  C_8
REMARK    8  A    between atoms: C_8  and  N_9
REMARK    9  A    between atoms: C_10  and  C_11
REMARK   10  A    between atoms: C_11  and  C_12
REMARK   11  A    between atoms: C_12  and  O_14
REMARK   12  A    between atoms: O_14  and  C_15
REMARK   13  A    between atoms: C_19  and  C_20
REMARK   14  A    between atoms: C_21  and  C_22
REMARK   15  A    between atoms: C_22  and  O_24
REMARK   16  A    between atoms: O_24  and  C_25
REMARK                            x       y       z     vdW  Elec       q    Type
REMARK                         _______ _______ _______ _____ _____    ______ ____
ROOT
ATOM      1  N   UNL     1       5.933   4.408  17.268  0.00  0.00    +0.000 NA
ATOM      2  C   UNL     1       4.692   4.125  18.137  0.00  0.00    +0.000 C 
ATOM      3  C   UNL     1       3.890   5.409  18.190  0.00  0.00    +0.000 A 
ATOM      4  C   UNL     1       2.847   5.750  19.036  0.00  0.00    +0.000 A 
ATOM      5  C   UNL     1       2.260   7.018  18.932  0.00  0.00    +0.000 A 
ATOM      6  C   UNL     1       2.692   7.947  17.981  0.00  0.00    +0.000 A 
ATOM      7  C   UNL     1       3.686   7.581  17.070  0.00  0.00    +0.000 A 
ATOM      8  C   UNL     1       4.246   6.319  17.196  0.00  0.00    +0.000 A 
ATOM      9  S   UNL     1       5.485   5.669  16.153  0.00  0.00    +0.000 S 
ATOM     10  O   UNL     1       6.547   6.640  16.035  0.00  0.00    +0.000 OA
ATOM     11  O   UNL     1       4.810   5.074  15.024  0.00  0.00    +0.000 OA
ENDROOT
BRANCH   6  12
ATOM     12  C   UNL     1       2.045   9.263  17.943  0.00  0.00    +0.000 C 
ATOM     13  C   UNL     1       1.104   9.648  18.804  0.00  0.00    +0.000 C 
BRANCH  13  14
ATOM     14  C   UNL     1       0.494  10.982  18.697  0.00  0.00    +0.000 C 
ATOM     15  O   UNL     1       1.117  12.031  18.636  0.00  0.00    +0.000 OA
BRANCH  14  16
ATOM     16  O   UNL     1      -0.847  10.842  18.674  0.00  0.00    +0.000 OA
ATOM     17  C   UNL     1      -1.527  11.931  18.034  0.00  0.00    +0.000 C 
ENDBRANCH  14  16
ENDBRANCH  13  14
ENDBRANCH   6  12
BRANCH   1  18
ATOM     18  C   UNL     1       7.228   4.678  17.973  0.00  0.00    +0.000 C 
BRANCH  18  19
ATOM     19  C   UNL     1       7.167   5.899  18.901  0.00  0.00    +0.000 C 
BRANCH  19  20
ATOM     20  C   UNL     1       8.401   6.794  18.812  0.00  0.00    +0.000 C 
BRANCH  20  21
ATOM     21  C   UNL     1       7.976   8.153  18.296  0.00  0.00    +0.000 C 
BRANCH  21  22
ATOM     22  C   UNL     1       8.809   9.276  18.878  0.00  0.00    +0.000 C 
BRANCH  22  23
ATOM     23  C   UNL     1       8.923  10.361  17.820  0.00  0.00    +0.000 C 
BRANCH  23  25
ATOM     24  C   UNL     1      10.615  12.187  17.725  0.00  0.00    +0.000 C 
ATOM     25  C   UNL     1       9.378  11.673  18.446  0.00  0.00    +0.000 C 
ENDBRANCH  23  25
ENDBRANCH  22  23
ENDBRANCH  21  22
ENDBRANCH  20  21
ENDBRANCH  19  20
ENDBRANCH  18  19
ENDBRANCH   1  18
BRANCH   2  26
ATOM     26  C   UNL     1       5.053   3.519  19.487  0.00  0.00    +0.000 C 
BRANCH  26  27
ATOM     27  C   UNL     1       4.119   2.483  20.006  0.00  0.00    +0.000 C 
ATOM     28  O   UNL     1       4.069   2.137  21.177  0.00  0.00    +0.000 OA
BRANCH  27  29
ATOM     29  O   UNL     1       3.357   1.983  19.002  0.00  0.00    +0.000 OA
ATOM     30  C   UNL     1       1.959   2.030  19.269  0.00  0.00    +0.000 C 
ENDBRANCH  27  29
ENDBRANCH  26  27
ENDBRANCH   2  26
TORSDOF 13
ENDMDL
MODEL 5
REMARK VINA RESULT:      -6.1      4.003      9.251
REMARK  Name = 
REMARK  16 active torsions:
REMARK  status: ('A' for Active; 'I' for Inactive)
REMARK    1  A    between atoms: C_1  and  C_2
REMARK    2  A    between atoms: C_2  and  C_3
REMARK    3  A    between atoms: C_3  and  C_4
REMARK    4  A    between atoms: C_4  and  C_5
REMARK    5  A    between atoms: C_5  and  C_6
REMARK    6  A    between atoms: C_6  and  C_7
REMARK    7  A    between atoms: C_7  and  C_8
REMARK    8  A    between atoms: C_8  and  N_9
REMARK    9  A    between atoms: C_10  and  C_11
REMARK   10  A    between atoms: C_11  and  C_12
REMARK   11  A    between atoms: C_12  and  O_14
REMARK   12  A    between atoms: O_14  and  C_15
REMARK   13  A    between atoms: C_19  and  C_20
REMARK   14  A    between atoms: C_21  and  C_22
REMARK   15  A    between atoms: C_22  and  O_24
REMARK   16  A    between atoms: O_24  and  C_25
REMARK                            x       y       z     vdW  Elec       q    Type
REMARK                         _______ _______ _______ _____ _____    ______ ____
ROOT
ATOM      1  N   UNL     1       0.122  10.656  19.876  0.00  0.00    +0.000 NA
ATOM      2  C   UNL     1       0.624   9.688  20.967  0.00  0.00    +0.000 C 
ATOM      3  C   UNL     1       1.332   8.554  20.256  0.00  0.00    +0.000 A 
ATOM      4  C   UNL     1       1.724   7.322  20.756  0.00  0.00    +0.000 A 
ATOM      5  C   UNL     1       2.345   6.397  19.907  0.00  0.00    +0.000 A 
ATOM      6  C   UNL     1       2.594   6.693  18.562  0.00  0.00    +0.000 A 
ATOM      7  C   UNL     1       2.277   7.962  18.072  0.00  0.00    +0.000 A 
ATOM      8  C   UNL     1       1.667   8.856  18.937  0.00  0.00    +0.000 A 
ATOM      9  S   UNL     1       1.206  10.488  18.524  0.00  0.00    +0.000 S 
ATOM     10  O   UNL     1       0.467  10.461  17.284  0.00  0.00    +0.000 OA
ATOM     11  O   UNL     1       2.366  11.319  18.750  0.00  0.00    +0.000 OA
ENDROOT
BRANCH   6  12
ATOM     12  C   UNL     1       3.230   5.669  17.727  0.00  0.00    +0.000 C 
ATOM     13  C   UNL     1       3.541   4.450  18.162  0.00  0.00    +0.000 C 
BRANCH  13  14
ATOM     14  C   UNL     1       4.186   3.478  17.266  0.00  0.00    +0.000 C 
ATOM     15  O   UNL     1       4.974   3.764  16.377  0.00  0.00    +0.000 OA
BRANCH  14  16
ATOM     16  O   UNL     1       3.766   2.241  17.598  0.00  0.00    +0.000 OA
ATOM     17  C   UNL     1       2.389   2.191  18.000  0.00  0.00    +0.000 C 
ENDBRANCH  14  16
ENDBRANCH  13  14
ENDBRANCH   6  12
BRANCH   1  18
ATOM     18  C   UNL     1      -1.322  10.575  19.488  0.00  0.00    +0.000 C 
BRANCH  18  19
ATOM     19  C   UNL     1      -1.991  11.950  19.359  0.00  0.00    +0.000 C 
BRANCH  19  20
ATOM     20  C   UNL     1      -3.483  11.875  19.040  0.00  0.00    +0.000 C 
BRANCH  20  21
ATOM     21  C   UNL     1      -3.664  11.081  17.763  0.00  0.00    +0.000 C 
BRANCH  21  22
ATOM     22  C   UNL     1      -4.990  11.368  17.090  0.00  0.00    +0.000 C 
BRANCH  22  23
ATOM     23  C   UNL     1      -5.966  11.816  18.166  0.00  0.00    +0.000 C 
BRANCH  23  25
ATOM     24  C   UNL     1      -7.272  10.855  20.058  0.00  0.00    +0.000 C 
ATOM     25  C   UNL     1      -6.839  10.651  18.614  0.00  0.00    +0.000 C 
ENDBRANCH  23  25
ENDBRANCH  22  23
ENDBRANCH  21  22
ENDBRANCH  20  21
ENDBRANCH  19  20
ENDBRANCH  18  19
ENDBRANCH   1  18
BRANCH   2  26
ATOM     26  C   UNL     1      -0.481   9.273  21.930  0.00  0.00    +0.000 C 
BRANCH  26  27
ATOM     27  C   UNL     1      -0.429   9.888  23.284  0.00  0.00    +0.000 C 
ATOM     28  O   UNL     1       0.453   9.665  24.099  0.00  0.00    +0.000 OA
BRANCH  27  29
ATOM     29  O   UNL     1      -1.493  10.706  23.477  0.00  0.00    +0.000 OA
ATOM     30  C   UNL     1      -1.289  12.031  22.998  0.00  0.00    +0.000 C 
ENDBRANCH  27  29
ENDBRANCH  26  27
ENDBRANCH   2  26
TORSDOF 13
ENDMDL
MODEL 6
REMARK VINA RESULT:      -6.1      4.114      9.609
REMARK  Name = 
REMARK  16 active torsions:
REMARK  status: ('A' for Active; 'I' for Inactive)
REMARK    1  A    between atoms: C_1  and  C_2
REMARK    2  A    between atoms: C_2  and  C_3
REMARK    3  A    between atoms: C_3  and  C_4
REMARK    4  A    between atoms: C_4  and  C_5
REMARK    5  A    between atoms: C_5  and  C_6
REMARK    6  A    between atoms: C_6  and  C_7
REMARK    7  A    between atoms: C_7  and  C_8
REMARK    8  A    between atoms: C_8  and  N_9
REMARK    9  A    between atoms: C_10  and  C_11
REMARK   10  A    between atoms: C_11  and  C_12
REMARK   11  A    between atoms: C_12  and  O_14
REMARK   12  A    between atoms: O_14  and  C_15
REMARK   13  A    between atoms: C_19  and  C_20
REMARK   14  A    between atoms: C_21  and  C_22
REMARK   15  A    between atoms: C_22  and  O_24
REMARK   16  A    between atoms: O_24  and  C_25
REMARK                            x       y       z     vdW  Elec       q    Type
REMARK                         _______ _______ _______ _____ _____    ______ ____
ROOT
ATOM      1  N   UNL     1      -0.848  10.692  21.325  0.00  0.00    +0.000 NA
ATOM      2  C   UNL     1      -1.144  10.507  19.823  0.00  0.00    +0.000 C 
ATOM      3  C   UNL     1       0.004   9.707  19.244  0.00  0.00    +0.000 A 
ATOM      4  C   UNL     1       0.341   9.503  17.915  0.00  0.00    +0.000 A 
ATOM      5  C   UNL     1       1.475   8.744  17.599  0.00  0.00    +0.000 A 
ATOM      6  C   UNL     1       2.273   8.173  18.595  0.00  0.00    +0.000 A 
ATOM      7  C   UNL     1       1.894   8.305  19.933  0.00  0.00    +0.000 A 
ATOM      8  C   UNL     1       0.765   9.058  20.214  0.00  0.00    +0.000 A 
ATOM      9  S   UNL     1       0.121   9.330  21.813  0.00  0.00    +0.000 S 
ATOM     10  O   UNL     1       1.194   9.758  22.679  0.00  0.00    +0.000 OA
ATOM     11  O   UNL     1      -0.753   8.218  22.106  0.00  0.00    +0.000 OA
ENDROOT
BRANCH   6  12
ATOM     12  C   UNL     1       3.458   7.409  18.190  0.00  0.00    +0.000 C 
ATOM     13  C   UNL     1       3.433   6.111  17.893  0.00  0.00    +0.000 C 
BRANCH  13  14
ATOM     14  C   UNL     1       4.666   5.409  17.503  0.00  0.00    +0.000 C 
ATOM     15  O   UNL     1       4.835   4.837  16.437  0.00  0.00    +0.000 OA
BRANCH  14  16
ATOM     16  O   UNL     1       5.557   5.514  18.509  0.00  0.00    +0.000 OA
ATOM     17  C   UNL     1       6.913   5.277  18.101  0.00  0.00    +0.000 C 
ENDBRANCH  14  16
ENDBRANCH  13  14
ENDBRANCH   6  12
BRANCH   1  18
ATOM     18  C   UNL     1      -0.280  12.007  21.764  0.00  0.00    +0.000 C 
BRANCH  18  19
ATOM     19  C   UNL     1      -1.023  12.616  22.960  0.00  0.00    +0.000 C 
BRANCH  19  20
ATOM     20  C   UNL     1      -2.507  12.255  23.005  0.00  0.00    +0.000 C 
BRANCH  20  21
ATOM     21  C   UNL     1      -3.263  13.206  22.101  0.00  0.00    +0.000 C 
BRANCH  21  22
ATOM     22  C   UNL     1      -4.686  12.753  21.849  0.00  0.00    +0.000 C 
BRANCH  22  23
ATOM     23  C   UNL     1      -5.603  13.632  22.683  0.00  0.00    +0.000 C 
BRANCH  23  25
ATOM     24  C   UNL     1      -7.539  13.420  24.238  0.00  0.00    +0.000 C 
ATOM     25  C   UNL     1      -6.187  12.843  23.848  0.00  0.00    +0.000 C 
ENDBRANCH  23  25
ENDBRANCH  22  23
ENDBRANCH  21  22
ENDBRANCH  20  21
ENDBRANCH  19  20
ENDBRANCH  18  19
ENDBRANCH   1  18
BRANCH   2  26
ATOM     26  C   UNL     1      -1.445  11.826  19.122  0.00  0.00    +0.000 C 
BRANCH  26  27
ATOM     27  C   UNL     1      -2.513  11.784  18.087  0.00  0.00    +0.000 C 
ATOM     28  O   UNL     1      -2.298  11.641  16.893  0.00  0.00    +0.000 OA
BRANCH  27  29
ATOM     29  O   UNL     1      -3.735  11.937  18.656  0.00  0.00    +0.000 OA
ATOM     30  C   UNL     1      -4.814  11.780  17.741  0.00  0.00    +0.000 C 
ENDBRANCH  27  29
ENDBRANCH  26  27
ENDBRANCH   2  26
TORSDOF 13
ENDMDL
MODEL 7
REMARK VINA RESULT:      -6.1      3.925      9.282
REMARK  Name = 
REMARK  16 active torsions:
REMARK  status: ('A' for Active; 'I' for Inactive)
REMARK    1  A    between atoms: C_1  and  C_2
REMARK    2  A    between atoms: C_2  and  C_3
REMARK    3  A    between atoms: C_3  and  C_4
REMARK    4  A    between atoms: C_4  and  C_5
REMARK    5  A    between atoms: C_5  and  C_6
REMARK    6  A    between atoms: C_6  and  C_7
REMARK    7  A    between atoms: C_7  and  C_8
REMARK    8  A    between atoms: C_8  and  N_9
REMARK    9  A    between atoms: C_10  and  C_11
REMARK   10  A    between atoms: C_11  and  C_12
REMARK   11  A    between atoms: C_12  and  O_14
REMARK   12  A    between atoms: O_14  and  C_15
REMARK   13  A    between atoms: C_19  and  C_20
REMARK   14  A    between atoms: C_21  and  C_22
REMARK   15  A    between atoms: C_22  and  O_24
REMARK   16  A    between atoms: O_24  and  C_25
REMARK                            x       y       z     vdW  Elec       q    Type
REMARK                         _______ _______ _______ _____ _____    ______ ____
ROOT
ATOM      1  N   UNL     1      -0.656  10.607  21.220  0.00  0.00    +0.000 NA
ATOM      2  C   UNL     1      -0.906  10.402  19.712  0.00  0.00    +0.000 C 
ATOM      3  C   UNL     1       0.212   9.519  19.197  0.00  0.00    +0.000 A 
ATOM      4  C   UNL     1       0.585   9.261  17.888  0.00  0.00    +0.000 A 
ATOM      5  C   UNL     1       1.682   8.428  17.634  0.00  0.00    +0.000 A 
ATOM      6  C   UNL     1       2.406   7.835  18.674  0.00  0.00    +0.000 A 
ATOM      7  C   UNL     1       1.986   8.024  19.993  0.00  0.00    +0.000 A 
ATOM      8  C   UNL     1       0.895   8.851  20.212  0.00  0.00    +0.000 A 
ATOM      9  S   UNL     1       0.209   9.203  21.778  0.00  0.00    +0.000 S 
ATOM     10  O   UNL     1       1.273   9.588  22.675  0.00  0.00    +0.000 OA
ATOM     11  O   UNL     1      -0.741   8.153  22.062  0.00  0.00    +0.000 OA
ENDROOT
BRANCH   6  12
ATOM     12  C   UNL     1       3.556   6.991  18.334  0.00  0.00    +0.000 C 
ATOM     13  C   UNL     1       3.867   5.871  18.984  0.00  0.00    +0.000 C 
BRANCH  13  14
ATOM     14  C   UNL     1       5.044   5.080  18.590  0.00  0.00    +0.000 C 
ATOM     15  O   UNL     1       5.699   4.381  19.347  0.00  0.00    +0.000 OA
BRANCH  14  16
ATOM     16  O   UNL     1       5.259   5.256  17.271  0.00  0.00    +0.000 OA
ATOM     17  C   UNL     1       5.034   4.073  16.489  0.00  0.00    +0.000 C 
ENDBRANCH  14  16
ENDBRANCH  13  14
ENDBRANCH   6  12
BRANCH   1  18
ATOM     18  C   UNL     1      -0.026  11.897  21.649  0.00  0.00    +0.000 C 
BRANCH  18  19
ATOM     19  C   UNL     1      -0.829  12.630  22.732  0.00  0.00    +0.000 C 
BRANCH  19  20
ATOM     20  C   UNL     1      -2.331  12.669  22.456  0.00  0.00    +0.000 C 
BRANCH  20  21
ATOM     21  C   UNL     1      -2.633  13.883  21.603  0.00  0.00    +0.000 C 
BRANCH  21  22
ATOM     22  C   UNL     1      -4.094  13.964  21.212  0.00  0.00    +0.000 C 
BRANCH  22  23
ATOM     23  C   UNL     1      -4.760  12.671  21.652  0.00  0.00    +0.000 C 
BRANCH  23  25
ATOM     24  C   UNL     1      -7.235  12.390  21.571  0.00  0.00    +0.000 C 
ATOM     25  C   UNL     1      -6.073  12.963  22.368  0.00  0.00    +0.000 C 
ENDBRANCH  23  25
ENDBRANCH  22  23
ENDBRANCH  21  22
ENDBRANCH  20  21
ENDBRANCH  19  20
ENDBRANCH  18  19
ENDBRANCH   1  18
BRANCH   2  26
ATOM     26  C   UNL     1      -1.100  11.718  18.970  0.00  0.00    +0.000 C 
BRANCH  26  27
ATOM     27  C   UNL     1      -2.289  11.793  18.079  0.00  0.00    +0.000 C 
ATOM     28  O   UNL     1      -3.431  11.958  18.482  0.00  0.00    +0.000 OA
BRANCH  27  29
ATOM     29  O   UNL     1      -1.925  11.643  16.782  0.00  0.00    +0.000 OA
ATOM     30  C   UNL     1      -2.589  10.570  16.122  0.00  0.00    +0.000 C 
ENDBRANCH  27  29
ENDBRANCH  26  27
ENDBRANCH   2  26
TORSDOF 13
ENDMDL
MODEL 8
REMARK VINA RESULT:      -6.0      3.546      9.118
REMARK  Name = 
REMARK  16 active torsions:
REMARK  status: ('A' for Active; 'I' for Inactive)
REMARK    1  A    between atoms: C_1  and  C_2
REMARK    2  A    between atoms: C_2  and  C_3
REMARK    3  A    between atoms: C_3  and  C_4
REMARK    4  A    between atoms: C_4  and  C_5
REMARK    5  A    between atoms: C_5  and  C_6
REMARK    6  A    between atoms: C_6  and  C_7
REMARK    7  A    between atoms: C_7  and  C_8
REMARK    8  A    between atoms: C_8  and  N_9
REMARK    9  A    between atoms: C_10  and  C_11
REMARK   10  A    between atoms: C_11  and  C_12
REMARK   11  A    between atoms: C_12  and  O_14
REMARK   12  A    between atoms: O_14  and  C_15
REMARK   13  A    between atoms: C_19  and  C_20
REMARK   14  A    between atoms: C_21  and  C_22
REMARK   15  A    between atoms: C_22  and  O_24
REMARK   16  A    between atoms: O_24  and  C_25
REMARK                            x       y       z     vdW  Elec       q    Type
REMARK                         _______ _______ _______ _____ _____    ______ ____
ROOT
ATOM      1  N   UNL     1      -0.117  10.489  20.839  0.00  0.00    +0.000 NA
ATOM      2  C   UNL     1      -0.043  10.258  19.316  0.00  0.00    +0.000 C 
ATOM      3  C   UNL     1       0.964   9.149  19.088  0.00  0.00    +0.000 A 
ATOM      4  C   UNL     1       1.573   8.755  17.908  0.00  0.00    +0.000 A 
ATOM      5  C   UNL     1       2.509   7.712  17.928  0.00  0.00    +0.000 A 
ATOM      6  C   UNL     1       2.834   7.046  19.113  0.00  0.00    +0.000 A 
ATOM      7  C   UNL     1       2.163   7.381  20.292  0.00  0.00    +0.000 A 
ATOM      8  C   UNL     1       1.241   8.415  20.240  0.00  0.00    +0.000 A 
ATOM      9  S   UNL     1       0.292   8.974  21.594  0.00  0.00    +0.000 S 
ATOM     10  O   UNL     1       1.171   9.191  22.718  0.00  0.00    +0.000 OA
ATOM     11  O   UNL     1      -0.890   8.145  21.646  0.00  0.00    +0.000 OA
ENDROOT
BRANCH   6  12
ATOM     12  C   UNL     1       3.837   5.978  19.063  0.00  0.00    +0.000 C 
ATOM     13  C   UNL     1       4.686   5.809  18.051  0.00  0.00    +0.000 C 
BRANCH  13  14
ATOM     14  C   UNL     1       5.661   4.707  18.068  0.00  0.00    +0.000 C 
ATOM     15  O   UNL     1       6.368   4.416  19.020  0.00  0.00    +0.000 OA
BRANCH  14  16
ATOM     16  O   UNL     1       5.629   4.086  16.872  0.00  0.00    +0.000 OA
ATOM     17  C   UNL     1       5.750   4.981  15.756  0.00  0.00    +0.000 C 
ENDBRANCH  14  16
ENDBRANCH  13  14
ENDBRANCH   6  12
BRANCH   1  18
ATOM     18  C   UNL     1       0.641  11.652  21.402  0.00  0.00    +0.000 C 
BRANCH  18  19
ATOM     19  C   UNL     1      -0.254  12.653  22.144  0.00  0.00    +0.000 C 
BRANCH  19  20
ATOM     20  C   UNL     1      -1.427  11.999  22.873  0.00  0.00    +0.000 C 
BRANCH  20  21
ATOM     21  C   UNL     1      -2.411  13.079  23.271  0.00  0.00    +0.000 C 
BRANCH  21  22
ATOM     22  C   UNL     1      -3.619  12.520  23.993  0.00  0.00    +0.000 C 
BRANCH  22  23
ATOM     23  C   UNL     1      -4.859  13.104  23.336  0.00  0.00    +0.000 C 
BRANCH  23  25
ATOM     24  C   UNL     1      -5.327  12.506  20.963  0.00  0.00    +0.000 C 
ATOM     25  C   UNL     1      -4.577  13.458  21.882  0.00  0.00    +0.000 C 
ENDBRANCH  23  25
ENDBRANCH  22  23
ENDBRANCH  21  22
ENDBRANCH  20  21
ENDBRANCH  19  20
ENDBRANCH  18  19
ENDBRANCH   1  18
BRANCH   2  26
ATOM     26  C   UNL     1       0.212  11.546  18.543  0.00  0.00    +0.000 C 
BRANCH  26  27
ATOM     27  C   UNL     1      -0.956  12.456  18.394  0.00  0.00    +0.000 C 
ATOM     28  O   UNL     1      -0.868  13.675  18.362  0.00  0.00    +0.000 OA
BRANCH  27  29
ATOM     29  O   UNL     1      -2.108  11.746  18.314  0.00  0.00    +0.000 OA
ATOM     30  C   UNL     1      -2.448  11.356  16.988  0.00  0.00    +0.000 C 
ENDBRANCH  27  29
ENDBRANCH  26  27
ENDBRANCH   2  26
TORSDOF 13
ENDMDL
MODEL 9
REMARK VINA RESULT:      -6.0      4.519      8.024
REMARK  Name = 
REMARK  16 active torsions:
REMARK  status: ('A' for Active; 'I' for Inactive)
REMARK    1  A    between atoms: C_1  and  C_2
REMARK    2  A    between atoms: C_2  and  C_3
REMARK    3  A    between atoms: C_3  and  C_4
REMARK    4  A    between atoms: C_4  and  C_5
REMARK    5  A    between atoms: C_5  and  C_6
REMARK    6  A    between atoms: C_6  and  C_7
REMARK    7  A    between atoms: C_7  and  C_8
REMARK    8  A    between atoms: C_8  and  N_9
REMARK    9  A    between atoms: C_10  and  C_11
REMARK   10  A    between atoms: C_11  and  C_12
REMARK   11  A    between atoms: C_12  and  O_14
REMARK   12  A    between atoms: O_14  and  C_15
REMARK   13  A    between atoms: C_19  and  C_20
REMARK   14  A    between atoms: C_21  and  C_22
REMARK   15  A    between atoms: C_22  and  O_24
REMARK   16  A    between atoms: O_24  and  C_25
REMARK                            x       y       z     vdW  Elec       q    Type
REMARK                         _______ _______ _______ _____ _____    ______ ____
ROOT
ATOM      1  N   UNL     1       1.135   8.610  19.558  0.00  0.00    +0.000 NA
ATOM      2  C   UNL     1       0.714   9.641  20.624  0.00  0.00    +0.000 C 
ATOM      3  C   UNL     1       1.177  10.996  20.131  0.00  0.00    +0.000 A 
ATOM      4  C   UNL     1       1.274  12.190  20.829  0.00  0.00    +0.000 A 
ATOM      5  C   UNL     1       1.762  13.332  20.179  0.00  0.00    +0.000 A 
ATOM      6  C   UNL     1       2.143  13.300  18.834  0.00  0.00    +0.000 A 
ATOM      7  C   UNL     1       1.971  12.123  18.103  0.00  0.00    +0.000 A 
ATOM      8  C   UNL     1       1.483  11.011  18.772  0.00  0.00    +0.000 A 
ATOM      9  S   UNL     1       1.184   9.456  18.037  0.00  0.00    +0.000 S 
ATOM     10  O   UNL     1       2.351   9.069  17.280  0.00  0.00    +0.000 OA
ATOM     11  O   UNL     1      -0.151   9.504  17.487  0.00  0.00    +0.000 OA
ENDROOT
BRANCH   6  12
ATOM     12  C   UNL     1       2.665  14.528  18.225  0.00  0.00    +0.000 C 
ATOM     13  C   UNL     1       3.052  15.592  18.926  0.00  0.00    +0.000 C 
BRANCH  13  14
ATOM     14  C   UNL     1       3.558  16.794  18.243  0.00  0.00    +0.000 C 
ATOM     15  O   UNL     1       3.093  17.258  17.214  0.00  0.00    +0.000 OA
BRANCH  14  16
ATOM     16  O   UNL     1       4.599  17.282  18.947  0.00  0.00    +0.000 OA
ATOM     17  C   UNL     1       4.568  16.930  20.338  0.00  0.00    +0.000 C 
ENDBRANCH  14  16
ENDBRANCH  13  14
ENDBRANCH   6  12
BRANCH   1  18
ATOM     18  C   UNL     1       2.369   7.802  19.823  0.00  0.00    +0.000 C 
BRANCH  18  19
ATOM     19  C   UNL     1       2.125   6.288  19.754  0.00  0.00    +0.000 C 
BRANCH  19  20
ATOM     20  C   UNL     1       2.398   5.689  18.375  0.00  0.00    +0.000 C 
BRANCH  20  21
ATOM     21  C   UNL     1       3.886   5.443  18.242  0.00  0.00    +0.000 C 
BRANCH  21  22
ATOM     22  C   UNL     1       4.242   4.756  16.939  0.00  0.00    +0.000 C 
BRANCH  22  23
ATOM     23  C   UNL     1       5.426   5.495  16.338  0.00  0.00    +0.000 C 
BRANCH  23  25
ATOM     24  C   UNL     1       7.138   6.910  17.467  0.00  0.00    +0.000 C 
ATOM     25  C   UNL     1       5.672   6.804  17.077  0.00  0.00    +0.000 C 
ENDBRANCH  23  25
ENDBRANCH  22  23
ENDBRANCH  21  22
ENDBRANCH  20  21
ENDBRANCH  19  20
ENDBRANCH  18  19
ENDBRANCH   1  18
BRANCH   2  26
ATOM     26  C   UNL     1       1.180   9.255  22.023  0.00  0.00    +0.000 C 
BRANCH  26  27
ATOM     27  C   UNL     1       0.236   9.564  23.131  0.00  0.00    +0.000 C 
ATOM     28  O   UNL     1       0.531   9.495  24.315  0.00  0.00    +0.000 OA
BRANCH  27  29
ATOM     29  O   UNL     1      -0.978   9.915  22.639  0.00  0.00    +0.000 OA
ATOM     30  C   UNL     1      -1.438  11.180  23.103  0.00  0.00    +0.000 C 
ENDBRANCH  27  29
ENDBRANCH  26  27
ENDBRANCH   2  26
TORSDOF 13
ENDMDL
