MODEL 1
REMARK VINA RESULT:      -8.9      0.000      0.000
REMARK  Name = 
REMARK  8 active torsions:
REMARK  status: ('A' for Active; 'I' for Inactive)
REMARK    1  A    between atoms: C_1  and  C_2
REMARK    2  A    between atoms: C_5  and  N_6
REMARK    3  A    between atoms: C_7  and  C_9
REMARK    4  A    between atoms: C_9  and  S_10
REMARK    5  A    between atoms: S_10  and  C_11
REMARK    6  A    between atoms: N_21  and  C_22
REMARK    7  A    between atoms: C_22  and  C_23
REMARK    8  A    between atoms: C_23  and  C_24
REMARK                            x       y       z     vdW  Elec       q    Type
REMARK                         _______ _______ _______ _____ _____    ______ ____
ROOT
ATOM      1  C   UNL     1       5.405   5.142  18.623  0.00  0.00    +0.000 A 
ATOM      2  N   UNL     1       4.620   5.305  19.639  0.00  0.00    +0.000 NA
ATOM      3  C   UNL     1       3.366   4.701  19.626  0.00  0.00    +0.000 A 
ATOM      4  C   UNL     1       2.649   4.625  20.827  0.00  0.00    +0.000 A 
ATOM      5  C   UNL     1       1.414   3.973  20.883  0.00  0.00    +0.000 A 
ATOM      6  C   UNL     1       0.871   3.415  19.730  0.00  0.00    +0.000 A 
ATOM      7  C   UNL     1       1.584   3.479  18.533  0.00  0.00    +0.000 A 
ATOM      8  C   UNL     1       2.840   4.101  18.496  0.00  0.00    +0.000 A 
ATOM      9  C   UNL     1       3.689   4.035  17.297  0.00  0.00    +0.000 A 
ATOM     10  O   UNL     1       3.168   3.580  16.284  0.00  0.00    +0.000 OA
ATOM     11  N   UNL     1       5.033   4.456  17.416  0.00  0.00    +0.000 N 
ENDROOT
BRANCH   1  12
ATOM     12  S   UNL     1       7.038   5.698  18.983  0.00  0.00    +0.000 S 
BRANCH  12  13
ATOM     13  C   UNL     1       7.562   6.957  17.742  0.00  0.00    +0.000 C 
BRANCH  13  15
ATOM     14  N   UNL     1       8.853   8.802  18.924  0.00  0.00    +0.000 N 
ATOM     15  C   UNL     1       7.941   8.447  17.975  0.00  0.00    +0.000 C 
ATOM     16  O   UNL     1       7.407   9.281  17.231  0.00  0.00    +0.000 OA
ATOM     17  H   UNL     1       9.236   8.029  19.476  0.00  0.00    +0.000 HD
BRANCH  14  22
ATOM     18  C   UNL     1      11.146  14.036  19.972  0.00  0.00    +0.000 C 
ATOM     19  C   UNL     1      10.465  12.713  19.745  0.00  0.00    +0.000 A 
ATOM     20  C   UNL     1       9.884  11.978  20.785  0.00  0.00    +0.000 A 
ATOM     21  C   UNL     1       9.315  10.699  20.549  0.00  0.00    +0.000 A 
ATOM     22  C   UNL     1       9.329  10.117  19.271  0.00  0.00    +0.000 A 
ATOM     23  C   UNL     1       9.877  10.887  18.236  0.00  0.00    +0.000 A 
ATOM     24  C   UNL     1      10.428  12.163  18.462  0.00  0.00    +0.000 A 
ENDBRANCH  14  22
ENDBRANCH  13  15
ENDBRANCH  12  13
ENDBRANCH   1  12
BRANCH  11  25
ATOM     25  C   UNL     1       6.005   3.936  16.330  0.00  0.00    +0.000 C 
BRANCH  25  26
ATOM     26  C   UNL     1       6.141   4.764  14.972  0.00  0.00    +0.000 C 
BRANCH  26  27
ATOM     27  C   UNL     1       5.983   4.219  13.537  0.00  0.00    +0.000 A 
ATOM     28  C   UNL     1       7.145   3.859  12.805  0.00  0.00    +0.000 A 
ATOM     29  C   UNL     1       7.087   3.050  11.656  0.00  0.00    +0.000 A 
ATOM     30  C   UNL     1       5.863   2.586  11.205  0.00  0.00    +0.000 A 
ATOM     31  C   UNL     1       4.701   2.988  11.858  0.00  0.00    +0.000 A 
ATOM     32  C   UNL     1       4.758   3.805  13.012  0.00  0.00    +0.000 A 
ENDBRANCH  26  27
ENDBRANCH  25  26
ENDBRANCH  11  25
TORSDOF 7
ENDMDL
MODEL 2
REMARK VINA RESULT:      -8.8      1.554      5.451
REMARK  Name = 
REMARK  8 active torsions:
REMARK  status: ('A' for Active; 'I' for Inactive)
REMARK    1  A    between atoms: C_1  and  C_2
REMARK    2  A    between atoms: C_5  and  N_6
REMARK    3  A    between atoms: C_7  and  C_9
REMARK    4  A    between atoms: C_9  and  S_10
REMARK    5  A    between atoms: S_10  and  C_11
REMARK    6  A    between atoms: N_21  and  C_22
REMARK    7  A    between atoms: C_22  and  C_23
REMARK    8  A    between atoms: C_23  and  C_24
REMARK                            x       y       z     vdW  Elec       q    Type
REMARK                         _______ _______ _______ _____ _____    ______ ____
ROOT
ATOM      1  C   UNL     1       6.926   5.783  17.105  0.00  0.00    +0.000 A 
ATOM      2  N   UNL     1       7.643   5.522  16.059  0.00  0.00    +0.000 NA
ATOM      3  C   UNL     1       7.032   4.947  14.948  0.00  0.00    +0.000 A 
ATOM      4  C   UNL     1       7.726   4.944  13.732  0.00  0.00    +0.000 A 
ATOM      5  C   UNL     1       7.134   4.437  12.571  0.00  0.00    +0.000 A 
ATOM      6  C   UNL     1       5.851   3.901  12.624  0.00  0.00    +0.000 A 
ATOM      7  C   UNL     1       5.150   3.909  13.831  0.00  0.00    +0.000 A 
ATOM      8  C   UNL     1       5.739   4.456  14.980  0.00  0.00    +0.000 A 
ATOM      9  C   UNL     1       4.969   4.636  16.220  0.00  0.00    +0.000 A 
ATOM     10  O   UNL     1       3.859   4.114  16.253  0.00  0.00    +0.000 OA
ATOM     11  N   UNL     1       5.542   5.421  17.245  0.00  0.00    +0.000 N 
ENDROOT
BRANCH   1  12
ATOM     12  S   UNL     1       7.806   6.797  18.245  0.00  0.00    +0.000 S 
BRANCH  12  13
ATOM     13  C   UNL     1       7.841   8.539  17.641  0.00  0.00    +0.000 C 
BRANCH  13  15
ATOM     14  N   UNL     1       8.556  10.980  17.642  0.00  0.00    +0.000 N 
ATOM     15  C   UNL     1       8.600   9.756  18.241  0.00  0.00    +0.000 C 
ATOM     16  O   UNL     1       9.206   9.567  19.306  0.00  0.00    +0.000 OA
ATOM     17  H   UNL     1       8.019  11.023  16.771  0.00  0.00    +0.000 HD
BRANCH  14  22
ATOM     18  C   UNL     1      11.533  15.726  19.179  0.00  0.00    +0.000 C 
ATOM     19  C   UNL     1      10.676  14.555  18.776  0.00  0.00    +0.000 A 
ATOM     20  C   UNL     1       9.527  14.186  19.484  0.00  0.00    +0.000 A 
ATOM     21  C   UNL     1       8.783  13.032  19.122  0.00  0.00    +0.000 A 
ATOM     22  C   UNL     1       9.182  12.210  18.055  0.00  0.00    +0.000 A 
ATOM     23  C   UNL     1      10.311  12.621  17.333  0.00  0.00    +0.000 A 
ATOM     24  C   UNL     1      11.043  13.774  17.679  0.00  0.00    +0.000 A 
ENDBRANCH  14  22
ENDBRANCH  13  15
ENDBRANCH  12  13
ENDBRANCH   1  12
BRANCH  11  25
ATOM     25  C   UNL     1       4.557   5.990  18.295  0.00  0.00    +0.000 C 
BRANCH  25  26
ATOM     26  C   UNL     1       4.287   5.145  19.620  0.00  0.00    +0.000 C 
BRANCH  26  27
ATOM     27  C   UNL     1       3.154   4.121  19.849  0.00  0.00    +0.000 A 
ATOM     28  C   UNL     1       1.901   4.578  20.338  0.00  0.00    +0.000 A 
ATOM     29  C   UNL     1       0.733   3.799  20.250  0.00  0.00    +0.000 A 
ATOM     30  C   UNL     1       0.790   2.539  19.677  0.00  0.00    +0.000 A 
ATOM     31  C   UNL     1       2.020   2.036  19.262  0.00  0.00    +0.000 A 
ATOM     32  C   UNL     1       3.197   2.817  19.353  0.00  0.00    +0.000 A 
ENDBRANCH  26  27
ENDBRANCH  25  26
ENDBRANCH  11  25
TORSDOF 7
ENDMDL
MODEL 3
REMARK VINA RESULT:      -8.8      2.366      5.724
REMARK  Name = 
REMARK  8 active torsions:
REMARK  status: ('A' for Active; 'I' for Inactive)
REMARK    1  A    between atoms: C_1  and  C_2
REMARK    2  A    between atoms: C_5  and  N_6
REMARK    3  A    between atoms: C_7  and  C_9
REMARK    4  A    between atoms: C_9  and  S_10
REMARK    5  A    between atoms: S_10  and  C_11
REMARK    6  A    between atoms: N_21  and  C_22
REMARK    7  A    between atoms: C_22  and  C_23
REMARK    8  A    between atoms: C_23  and  C_24
REMARK                            x       y       z     vdW  Elec       q    Type
REMARK                         _______ _______ _______ _____ _____    ______ ____
ROOT
ATOM      1  C   UNL     1       6.869   5.590  17.167  0.00  0.00    +0.000 A 
ATOM      2  N   UNL     1       7.583   5.497  16.092  0.00  0.00    +0.000 NA
ATOM      3  C   UNL     1       7.028   4.903  14.962  0.00  0.00    +0.000 A 
ATOM      4  C   UNL     1       7.677   5.071  13.733  0.00  0.00    +0.000 A 
ATOM      5  C   UNL     1       7.129   4.550  12.557  0.00  0.00    +0.000 A 
ATOM      6  C   UNL     1       5.940   3.830  12.606  0.00  0.00    +0.000 A 
ATOM      7  C   UNL     1       5.282   3.667  13.825  0.00  0.00    +0.000 A 
ATOM      8  C   UNL     1       5.821   4.228  14.993  0.00  0.00    +0.000 A 
ATOM      9  C   UNL     1       5.071   4.222  16.258  0.00  0.00    +0.000 A 
ATOM     10  O   UNL     1       4.050   3.542  16.284  0.00  0.00    +0.000 OA
ATOM     11  N   UNL     1       5.556   5.023  17.316  0.00  0.00    +0.000 N 
ENDROOT
BRANCH   1  12
ATOM     12  S   UNL     1       7.627   6.655  18.348  0.00  0.00    +0.000 S 
BRANCH  12  13
ATOM     13  C   UNL     1       7.747   8.365  17.668  0.00  0.00    +0.000 C 
BRANCH  13  15
ATOM     14  N   UNL     1       8.558  10.773  17.577  0.00  0.00    +0.000 N 
ATOM     15  C   UNL     1       8.564   9.569  18.216  0.00  0.00    +0.000 C 
ATOM     16  O   UNL     1       9.178   9.390  19.277  0.00  0.00    +0.000 OA
ATOM     17  H   UNL     1       8.010  10.810  16.713  0.00  0.00    +0.000 HD
BRANCH  14  22
ATOM     18  C   UNL     1      11.704  15.386  19.186  0.00  0.00    +0.000 C 
ATOM     19  C   UNL     1      10.830  14.254  18.713  0.00  0.00    +0.000 A 
ATOM     20  C   UNL     1       9.440  14.259  18.876  0.00  0.00    +0.000 A 
ATOM     21  C   UNL     1       8.653  13.144  18.485  0.00  0.00    +0.000 A 
ATOM     22  C   UNL     1       9.239  11.990  17.939  0.00  0.00    +0.000 A 
ATOM     23  C   UNL     1      10.627  12.023  17.746  0.00  0.00    +0.000 A 
ATOM     24  C   UNL     1      11.410  13.134  18.116  0.00  0.00    +0.000 A 
ENDBRANCH  14  22
ENDBRANCH  13  15
ENDBRANCH  12  13
ENDBRANCH   1  12
BRANCH  11  25
ATOM     25  C   UNL     1       4.532   5.380  18.420  0.00  0.00    +0.000 C 
BRANCH  25  26
ATOM     26  C   UNL     1       3.186   6.124  17.995  0.00  0.00    +0.000 C 
BRANCH  26  27
ATOM     27  C   UNL     1       2.612   7.419  18.609  0.00  0.00    +0.000 A 
ATOM     28  C   UNL     1       2.317   8.514  17.754  0.00  0.00    +0.000 A 
ATOM     29  C   UNL     1       1.490   9.578  18.158  0.00  0.00    +0.000 A 
ATOM     30  C   UNL     1       0.944   9.578  19.430  0.00  0.00    +0.000 A 
ATOM     31  C   UNL     1       1.281   8.557  20.315  0.00  0.00    +0.000 A 
ATOM     32  C   UNL     1       2.115   7.488  19.911  0.00  0.00    +0.000 A 
ENDBRANCH  26  27
ENDBRANCH  25  26
ENDBRANCH  11  25
TORSDOF 7
ENDMDL
MODEL 4
REMARK VINA RESULT:      -8.7      1.326      5.414
REMARK  Name = 
REMARK  8 active torsions:
REMARK  status: ('A' for Active; 'I' for Inactive)
REMARK    1  A    between atoms: C_1  and  C_2
REMARK    2  A    between atoms: C_5  and  N_6
REMARK    3  A    between atoms: C_7  and  C_9
REMARK    4  A    between atoms: C_9  and  S_10
REMARK    5  A    between atoms: S_10  and  C_11
REMARK    6  A    between atoms: N_21  and  C_22
REMARK    7  A    between atoms: C_22  and  C_23
REMARK    8  A    between atoms: C_23  and  C_24
REMARK                            x       y       z     vdW  Elec       q    Type
REMARK                         _______ _______ _______ _____ _____    ______ ____
ROOT
ATOM      1  C   UNL     1       6.873   5.809  17.195  0.00  0.00    +0.000 A 
ATOM      2  N   UNL     1       7.599   5.547  16.156  0.00  0.00    +0.000 NA
ATOM      3  C   UNL     1       7.005   4.942  15.053  0.00  0.00    +0.000 A 
ATOM      4  C   UNL     1       7.704   4.934  13.839  0.00  0.00    +0.000 A 
ATOM      5  C   UNL     1       7.127   4.397  12.684  0.00  0.00    +0.000 A 
ATOM      6  C   UNL     1       5.855   3.835  12.741  0.00  0.00    +0.000 A 
ATOM      7  C   UNL     1       5.150   3.848  13.945  0.00  0.00    +0.000 A 
ATOM      8  C   UNL     1       5.722   4.425  15.088  0.00  0.00    +0.000 A 
ATOM      9  C   UNL     1       4.943   4.608  16.322  0.00  0.00    +0.000 A 
ATOM     10  O   UNL     1       3.845   4.063  16.359  0.00  0.00    +0.000 OA
ATOM     11  N   UNL     1       5.496   5.421  17.336  0.00  0.00    +0.000 N 
ENDROOT
BRANCH   1  12
ATOM     12  S   UNL     1       7.727   6.860  18.323  0.00  0.00    +0.000 S 
BRANCH  12  13
ATOM     13  C   UNL     1       8.179   8.441  17.490  0.00  0.00    +0.000 C 
BRANCH  13  15
ATOM     14  N   UNL     1       9.247   9.995  19.197  0.00  0.00    +0.000 N 
ATOM     15  C   UNL     1       8.413   9.839  18.129  0.00  0.00    +0.000 C 
ATOM     16  O   UNL     1       7.842  10.800  17.595  0.00  0.00    +0.000 OA
ATOM     17  H   UNL     1       9.671   9.134  19.552  0.00  0.00    +0.000 HD
BRANCH  14  22
ATOM     18  C   UNL     1      10.129  14.881  22.215  0.00  0.00    +0.000 C 
ATOM     19  C   UNL     1      10.003  13.599  21.434  0.00  0.00    +0.000 A 
ATOM     20  C   UNL     1      10.694  13.377  20.237  0.00  0.00    +0.000 A 
ATOM     21  C   UNL     1      10.495  12.188  19.488  0.00  0.00    +0.000 A 
ATOM     22  C   UNL     1       9.588  11.202  19.907  0.00  0.00    +0.000 A 
ATOM     23  C   UNL     1       8.938  11.425  21.129  0.00  0.00    +0.000 A 
ATOM     24  C   UNL     1       9.144  12.595  21.884  0.00  0.00    +0.000 A 
ENDBRANCH  14  22
ENDBRANCH  13  15
ENDBRANCH  12  13
ENDBRANCH   1  12
BRANCH  11  25
ATOM     25  C   UNL     1       4.495   5.985  18.373  0.00  0.00    +0.000 C 
BRANCH  25  26
ATOM     26  C   UNL     1       4.189   5.125  19.681  0.00  0.00    +0.000 C 
BRANCH  26  27
ATOM     27  C   UNL     1       3.080   4.065  19.852  0.00  0.00    +0.000 A 
ATOM     28  C   UNL     1       1.824   4.462  20.383  0.00  0.00    +0.000 A 
ATOM     29  C   UNL     1       0.671   3.666  20.255  0.00  0.00    +0.000 A 
ATOM     30  C   UNL     1       0.747   2.449  19.599  0.00  0.00    +0.000 A 
ATOM     31  C   UNL     1       1.982   2.000  19.139  0.00  0.00    +0.000 A 
ATOM     32  C   UNL     1       3.144   2.798  19.270  0.00  0.00    +0.000 A 
ENDBRANCH  26  27
ENDBRANCH  25  26
ENDBRANCH  11  25
TORSDOF 7
ENDMDL
MODEL 5
REMARK VINA RESULT:      -8.6      5.003      7.165
REMARK  Name = 
REMARK  8 active torsions:
REMARK  status: ('A' for Active; 'I' for Inactive)
REMARK    1  A    between atoms: C_1  and  C_2
REMARK    2  A    between atoms: C_5  and  N_6
REMARK    3  A    between atoms: C_7  and  C_9
REMARK    4  A    between atoms: C_9  and  S_10
REMARK    5  A    between atoms: S_10  and  C_11
REMARK    6  A    between atoms: N_21  and  C_22
REMARK    7  A    between atoms: C_22  and  C_23
REMARK    8  A    between atoms: C_23  and  C_24
REMARK                            x       y       z     vdW  Elec       q    Type
REMARK                         _______ _______ _______ _____ _____    ______ ____
ROOT
ATOM      1  C   UNL     1       3.003   6.300  17.996  0.00  0.00    +0.000 A 
ATOM      2  N   UNL     1       2.052   5.998  18.822  0.00  0.00    +0.000 NA
ATOM      3  C   UNL     1       2.060   4.746  19.431  0.00  0.00    +0.000 A 
ATOM      4  C   UNL     1       1.220   4.535  20.531  0.00  0.00    +0.000 A 
ATOM      5  C   UNL     1       1.235   3.318  21.219  0.00  0.00    +0.000 A 
ATOM      6  C   UNL     1       2.072   2.291  20.794  0.00  0.00    +0.000 A 
ATOM      7  C   UNL     1       2.919   2.498  19.705  0.00  0.00    +0.000 A 
ATOM      8  C   UNL     1       2.924   3.736  19.046  0.00  0.00    +0.000 A 
ATOM      9  C   UNL     1       3.920   4.044  18.009  0.00  0.00    +0.000 A 
ATOM     10  O   UNL     1       4.612   3.108  17.623  0.00  0.00    +0.000 OA
ATOM     11  N   UNL     1       4.029   5.385  17.576  0.00  0.00    +0.000 N 
ENDROOT
BRANCH   1  12
ATOM     12  S   UNL     1       2.987   8.018  17.606  0.00  0.00    +0.000 S 
BRANCH  12  13
ATOM     13  C   UNL     1       2.197   8.967  18.975  0.00  0.00    +0.000 C 
BRANCH  13  15
ATOM     14  N   UNL     1       0.056   9.929  17.997  0.00  0.00    +0.000 N 
ATOM     15  C   UNL     1       0.727   9.461  19.088  0.00  0.00    +0.000 C 
ATOM     16  O   UNL     1       0.190   9.368  20.201  0.00  0.00    +0.000 OA
ATOM     17  H   UNL     1       0.595   9.954  17.127  0.00  0.00    +0.000 HD
BRANCH  14  22
ATOM     18  C   UNL     1      -5.354  11.865  17.134  0.00  0.00    +0.000 C 
ATOM     19  C   UNL     1      -3.979  11.339  17.454  0.00  0.00    +0.000 A 
ATOM     20  C   UNL     1      -3.230  11.807  18.539  0.00  0.00    +0.000 A 
ATOM     21  C   UNL     1      -1.908  11.343  18.770  0.00  0.00    +0.000 A 
ATOM     22  C   UNL     1      -1.298  10.414  17.911  0.00  0.00    +0.000 A 
ATOM     23  C   UNL     1      -2.081   9.927  16.855  0.00  0.00    +0.000 A 
ATOM     24  C   UNL     1      -3.399  10.372  16.632  0.00  0.00    +0.000 A 
ENDBRANCH  14  22
ENDBRANCH  13  15
ENDBRANCH  12  13
ENDBRANCH   1  12
BRANCH  11  25
ATOM     25  C   UNL     1       5.358   5.767  16.882  0.00  0.00    +0.000 C 
BRANCH  25  26
ATOM     26  C   UNL     1       5.367   5.933  15.295  0.00  0.00    +0.000 C 
BRANCH  26  27
ATOM     27  C   UNL     1       6.057   5.006  14.272  0.00  0.00    +0.000 A 
ATOM     28  C   UNL     1       5.307   3.958  13.676  0.00  0.00    +0.000 A 
ATOM     29  C   UNL     1       5.736   3.300  12.509  0.00  0.00    +0.000 A 
ATOM     30  C   UNL     1       6.931   3.667  11.914  0.00  0.00    +0.000 A 
ATOM     31  C   UNL     1       7.724   4.637  12.522  0.00  0.00    +0.000 A 
ATOM     32  C   UNL     1       7.295   5.298  13.697  0.00  0.00    +0.000 A 
ENDBRANCH  26  27
ENDBRANCH  25  26
ENDBRANCH  11  25
TORSDOF 7
ENDMDL
MODEL 6
REMARK VINA RESULT:      -8.6      4.923      7.098
REMARK  Name = 
REMARK  8 active torsions:
REMARK  status: ('A' for Active; 'I' for Inactive)
REMARK    1  A    between atoms: C_1  and  C_2
REMARK    2  A    between atoms: C_5  and  N_6
REMARK    3  A    between atoms: C_7  and  C_9
REMARK    4  A    between atoms: C_9  and  S_10
REMARK    5  A    between atoms: S_10  and  C_11
REMARK    6  A    between atoms: N_21  and  C_22
REMARK    7  A    between atoms: C_22  and  C_23
REMARK    8  A    between atoms: C_23  and  C_24
REMARK                            x       y       z     vdW  Elec       q    Type
REMARK                         _______ _______ _______ _____ _____    ______ ____
ROOT
ATOM      1  C   UNL     1       3.332   6.060  18.100  0.00  0.00    +0.000 A 
ATOM      2  N   UNL     1       2.236   5.556  18.571  0.00  0.00    +0.000 NA
ATOM      3  C   UNL     1       2.313   4.494  19.467  0.00  0.00    +0.000 A 
ATOM      4  C   UNL     1       1.167   4.152  20.196  0.00  0.00    +0.000 A 
ATOM      5  C   UNL     1       1.206   3.135  21.156  0.00  0.00    +0.000 A 
ATOM      6  C   UNL     1       2.387   2.432  21.374  0.00  0.00    +0.000 A 
ATOM      7  C   UNL     1       3.535   2.774  20.658  0.00  0.00    +0.000 A 
ATOM      8  C   UNL     1       3.495   3.821  19.726  0.00  0.00    +0.000 A 
ATOM      9  C   UNL     1       4.720   4.317  19.082  0.00  0.00    +0.000 A 
ATOM     10  O   UNL     1       5.735   3.651  19.256  0.00  0.00    +0.000 OA
ATOM     11  N   UNL     1       4.642   5.529  18.360  0.00  0.00    +0.000 N 
ENDROOT
BRANCH   1  12
ATOM     12  S   UNL     1       3.027   7.581  17.264  0.00  0.00    +0.000 S 
BRANCH  12  13
ATOM     13  C   UNL     1       2.498   8.869  18.473  0.00  0.00    +0.000 C 
BRANCH  13  15
ATOM     14  N   UNL     1       0.251   9.821  17.758  0.00  0.00    +0.000 N 
ATOM     15  C   UNL     1       1.063   9.391  18.765  0.00  0.00    +0.000 C 
ATOM     16  O   UNL     1       0.685   9.354  19.945  0.00  0.00    +0.000 OA
ATOM     17  H   UNL     1       0.664   9.801  16.822  0.00  0.00    +0.000 HD
BRANCH  14  22
ATOM     18  C   UNL     1      -5.198  11.827  17.563  0.00  0.00    +0.000 C 
ATOM     19  C   UNL     1      -3.802  11.284  17.713  0.00  0.00    +0.000 A 
ATOM     20  C   UNL     1      -2.919  11.741  18.697  0.00  0.00    +0.000 A 
ATOM     21  C   UNL     1      -1.585  11.260  18.765  0.00  0.00    +0.000 A 
ATOM     22  C   UNL     1      -1.097  10.324  17.838  0.00  0.00    +0.000 A 
ATOM     23  C   UNL     1      -2.009   9.848  16.886  0.00  0.00    +0.000 A 
ATOM     24  C   UNL     1      -3.339  10.310  16.826  0.00  0.00    +0.000 A 
ENDBRANCH  14  22
ENDBRANCH  13  15
ENDBRANCH  12  13
ENDBRANCH   1  12
BRANCH  11  25
ATOM     25  C   UNL     1       5.983   6.264  18.121  0.00  0.00    +0.000 C 
BRANCH  25  26
ATOM     26  C   UNL     1       6.930   5.754  16.942  0.00  0.00    +0.000 C 
BRANCH  26  27
ATOM     27  C   UNL     1       6.485   5.242  15.556  0.00  0.00    +0.000 A 
ATOM     28  C   UNL     1       7.396   5.321  14.468  0.00  0.00    +0.000 A 
ATOM     29  C   UNL     1       7.214   4.584  13.284  0.00  0.00    +0.000 A 
ATOM     30  C   UNL     1       6.113   3.755  13.154  0.00  0.00    +0.000 A 
ATOM     31  C   UNL     1       5.165   3.719  14.173  0.00  0.00    +0.000 A 
ATOM     32  C   UNL     1       5.344   4.463  15.363  0.00  0.00    +0.000 A 
ENDBRANCH  26  27
ENDBRANCH  25  26
ENDBRANCH  11  25
TORSDOF 7
ENDMDL
MODEL 7
REMARK VINA RESULT:      -8.6      4.239      6.649
REMARK  Name = 
REMARK  8 active torsions:
REMARK  status: ('A' for Active; 'I' for Inactive)
REMARK    1  A    between atoms: C_1  and  C_2
REMARK    2  A    between atoms: C_5  and  N_6
REMARK    3  A    between atoms: C_7  and  C_9
REMARK    4  A    between atoms: C_9  and  S_10
REMARK    5  A    between atoms: S_10  and  C_11
REMARK    6  A    between atoms: N_21  and  C_22
REMARK    7  A    between atoms: C_22  and  C_23
REMARK    8  A    between atoms: C_23  and  C_24
REMARK                            x       y       z     vdW  Elec       q    Type
REMARK                         _______ _______ _______ _____ _____    ______ ____
ROOT
ATOM      1  C   UNL     1       3.194   5.805  18.068  0.00  0.00    +0.000 A 
ATOM      2  N   UNL     1       2.644   5.795  19.240  0.00  0.00    +0.000 NA
ATOM      3  C   UNL     1       2.383   4.574  19.853  0.00  0.00    +0.000 A 
ATOM      4  C   UNL     1       2.074   4.565  21.219  0.00  0.00    +0.000 A 
ATOM      5  C   UNL     1       1.867   3.361  21.899  0.00  0.00    +0.000 A 
ATOM      6  C   UNL     1       1.939   2.154  21.210  0.00  0.00    +0.000 A 
ATOM      7  C   UNL     1       2.256   2.155  19.851  0.00  0.00    +0.000 A 
ATOM      8  C   UNL     1       2.501   3.366  19.188  0.00  0.00    +0.000 A 
ATOM      9  C   UNL     1       3.002   3.392  17.806  0.00  0.00    +0.000 A 
ATOM     10  O   UNL     1       3.012   2.320  17.209  0.00  0.00    +0.000 OA
ATOM     11  N   UNL     1       3.468   4.624  17.295  0.00  0.00    +0.000 N 
ENDROOT
BRANCH   1  12
ATOM     12  S   UNL     1       3.734   7.424  17.629  0.00  0.00    +0.000 S 
BRANCH  12  13
ATOM     13  C   UNL     1       2.279   8.537  17.419  0.00  0.00    +0.000 C 
BRANCH  13  15
ATOM     14  N   UNL     1       0.767   9.111  19.382  0.00  0.00    +0.000 N 
ATOM     15  C   UNL     1       1.665   9.531  18.445  0.00  0.00    +0.000 C 
ATOM     16  O   UNL     1       2.063  10.703  18.394  0.00  0.00    +0.000 OA
ATOM     17  H   UNL     1       0.516   8.120  19.336  0.00  0.00    +0.000 HD
BRANCH  14  22
ATOM     18  C   UNL     1      -1.824  12.625  23.216  0.00  0.00    +0.000 C 
ATOM     19  C   UNL     1      -1.197  11.634  22.270  0.00  0.00    +0.000 A 
ATOM     20  C   UNL     1      -0.428  10.553  22.715  0.00  0.00    +0.000 A 
ATOM     21  C   UNL     1       0.209   9.681  21.794  0.00  0.00    +0.000 A 
ATOM     22  C   UNL     1       0.108   9.880  20.407  0.00  0.00    +0.000 A 
ATOM     23  C   UNL     1      -0.701  10.943  19.983  0.00  0.00    +0.000 A 
ATOM     24  C   UNL     1      -1.349  11.801  20.892  0.00  0.00    +0.000 A 
ENDBRANCH  14  22
ENDBRANCH  13  15
ENDBRANCH  12  13
ENDBRANCH   1  12
BRANCH  11  25
ATOM     25  C   UNL     1       4.412   4.538  16.072  0.00  0.00    +0.000 C 
BRANCH  25  26
ATOM     26  C   UNL     1       5.965   4.276  16.328  0.00  0.00    +0.000 C 
BRANCH  26  27
ATOM     27  C   UNL     1       6.944   5.194  17.090  0.00  0.00    +0.000 A 
ATOM     28  C   UNL     1       7.105   6.538  16.660  0.00  0.00    +0.000 A 
ATOM     29  C   UNL     1       7.691   7.522  17.477  0.00  0.00    +0.000 A 
ATOM     30  C   UNL     1       8.139   7.184  18.742  0.00  0.00    +0.000 A 
ATOM     31  C   UNL     1       8.066   5.858  19.158  0.00  0.00    +0.000 A 
ATOM     32  C   UNL     1       7.479   4.866  18.337  0.00  0.00    +0.000 A 
ENDBRANCH  26  27
ENDBRANCH  25  26
ENDBRANCH  11  25
TORSDOF 7
ENDMDL
MODEL 8
REMARK VINA RESULT:      -8.6      4.756      6.957
REMARK  Name = 
REMARK  8 active torsions:
REMARK  status: ('A' for Active; 'I' for Inactive)
REMARK    1  A    between atoms: C_1  and  C_2
REMARK    2  A    between atoms: C_5  and  N_6
REMARK    3  A    between atoms: C_7  and  C_9
REMARK    4  A    between atoms: C_9  and  S_10
REMARK    5  A    between atoms: S_10  and  C_11
REMARK    6  A    between atoms: N_21  and  C_22
REMARK    7  A    between atoms: C_22  and  C_23
REMARK    8  A    between atoms: C_23  and  C_24
REMARK                            x       y       z     vdW  Elec       q    Type
REMARK                         _______ _______ _______ _____ _____    ______ ____
ROOT
ATOM      1  C   UNL     1       3.258   5.729  18.116  0.00  0.00    +0.000 A 
ATOM      2  N   UNL     1       2.721   5.728  19.295  0.00  0.00    +0.000 NA
ATOM      3  C   UNL     1       2.392   4.512  19.885  0.00  0.00    +0.000 A 
ATOM      4  C   UNL     1       2.099   4.493  21.255  0.00  0.00    +0.000 A 
ATOM      5  C   UNL     1       1.825   3.289  21.911  0.00  0.00    +0.000 A 
ATOM      6  C   UNL     1       1.815   2.095  21.197  0.00  0.00    +0.000 A 
ATOM      7  C   UNL     1       2.116   2.106  19.834  0.00  0.00    +0.000 A 
ATOM      8  C   UNL     1       2.428   3.314  19.194  0.00  0.00    +0.000 A 
ATOM      9  C   UNL     1       2.914   3.339  17.806  0.00  0.00    +0.000 A 
ATOM     10  O   UNL     1       2.851   2.281  17.187  0.00  0.00    +0.000 OA
ATOM     11  N   UNL     1       3.449   4.551  17.316  0.00  0.00    +0.000 N 
ENDROOT
BRANCH   1  12
ATOM     12  S   UNL     1       3.891   7.321  17.705  0.00  0.00    +0.000 S 
BRANCH  12  13
ATOM     13  C   UNL     1       2.502   8.473  17.328  0.00  0.00    +0.000 C 
BRANCH  13  15
ATOM     14  N   UNL     1       0.652  10.123  17.897  0.00  0.00    +0.000 N 
ATOM     15  C   UNL     1       1.511   9.150  18.316  0.00  0.00    +0.000 C 
ATOM     16  O   UNL     1       1.512   8.731  19.482  0.00  0.00    +0.000 OA
ATOM     17  H   UNL     1       0.732  10.384  16.911  0.00  0.00    +0.000 HD
BRANCH  14  22
ATOM     18  C   UNL     1      -3.543  13.164  20.525  0.00  0.00    +0.000 C 
ATOM     19  C   UNL     1      -2.437  12.330  19.935  0.00  0.00    +0.000 A 
ATOM     20  C   UNL     1      -1.140  12.323  20.460  0.00  0.00    +0.000 A 
ATOM     21  C   UNL     1      -0.102  11.582  19.835  0.00  0.00    +0.000 A 
ATOM     22  C   UNL     1      -0.332  10.847  18.661  0.00  0.00    +0.000 A 
ATOM     23  C   UNL     1      -1.647  10.835  18.175  0.00  0.00    +0.000 A 
ATOM     24  C   UNL     1      -2.684  11.554  18.801  0.00  0.00    +0.000 A 
ENDBRANCH  14  22
ENDBRANCH  13  15
ENDBRANCH  12  13
ENDBRANCH   1  12
BRANCH  11  25
ATOM     25  C   UNL     1       4.373   4.433  16.079  0.00  0.00    +0.000 C 
BRANCH  25  26
ATOM     26  C   UNL     1       5.930   4.182  16.315  0.00  0.00    +0.000 C 
BRANCH  26  27
ATOM     27  C   UNL     1       6.910   5.100  17.075  0.00  0.00    +0.000 A 
ATOM     28  C   UNL     1       7.131   6.419  16.596  0.00  0.00    +0.000 A 
ATOM     29  C   UNL     1       7.719   7.417  17.394  0.00  0.00    +0.000 A 
ATOM     30  C   UNL     1       8.109   7.120  18.688  0.00  0.00    +0.000 A 
ATOM     31  C   UNL     1       7.977   5.815  19.156  0.00  0.00    +0.000 A 
ATOM     32  C   UNL     1       7.388   4.809  18.354  0.00  0.00    +0.000 A 
ENDBRANCH  26  27
ENDBRANCH  25  26
ENDBRANCH  11  25
TORSDOF 7
ENDMDL
MODEL 9
REMARK VINA RESULT:      -8.6      1.664      5.444
REMARK  Name = 
REMARK  8 active torsions:
REMARK  status: ('A' for Active; 'I' for Inactive)
REMARK    1  A    between atoms: C_1  and  C_2
REMARK    2  A    between atoms: C_5  and  N_6
REMARK    3  A    between atoms: C_7  and  C_9
REMARK    4  A    between atoms: C_9  and  S_10
REMARK    5  A    between atoms: S_10  and  C_11
REMARK    6  A    between atoms: N_21  and  C_22
REMARK    7  A    between atoms: C_22  and  C_23
REMARK    8  A    between atoms: C_23  and  C_24
REMARK                            x       y       z     vdW  Elec       q    Type
REMARK                         _______ _______ _______ _____ _____    ______ ____
ROOT
ATOM      1  C   UNL     1       7.203   5.768  17.620  0.00  0.00    +0.000 A 
ATOM      2  N   UNL     1       7.722   5.762  16.434  0.00  0.00    +0.000 NA
ATOM      3  C   UNL     1       7.073   5.071  15.416  0.00  0.00    +0.000 A 
ATOM      4  C   UNL     1       7.462   5.311  14.092  0.00  0.00    +0.000 A 
ATOM      5  C   UNL     1       6.800   4.692  13.027  0.00  0.00    +0.000 A 
ATOM      6  C   UNL     1       5.759   3.804  13.280  0.00  0.00    +0.000 A 
ATOM      7  C   UNL     1       5.359   3.568  14.596  0.00  0.00    +0.000 A 
ATOM      8  C   UNL     1       6.005   4.224  15.654  0.00  0.00    +0.000 A 
ATOM      9  C   UNL     1       5.500   4.130  17.032  0.00  0.00    +0.000 A 
ATOM     10  O   UNL     1       4.613   3.307  17.233  0.00  0.00    +0.000 OA
ATOM     11  N   UNL     1       6.038   5.014  17.994  0.00  0.00    +0.000 N 
ENDROOT
BRANCH   1  12
ATOM     12  S   UNL     1       7.990   6.956  18.656  0.00  0.00    +0.000 S 
BRANCH  12  13
ATOM     13  C   UNL     1       7.979   8.609  17.838  0.00  0.00    +0.000 C 
BRANCH  13  15
ATOM     14  N   UNL     1       8.590  11.061  17.557  0.00  0.00    +0.000 N 
ATOM     15  C   UNL     1       8.696   9.914  18.286  0.00  0.00    +0.000 C 
ATOM     16  O   UNL     1       9.326   9.867  19.352  0.00  0.00    +0.000 OA
ATOM     17  H   UNL     1       8.038  10.987  16.698  0.00  0.00    +0.000 HD
BRANCH  14  22
ATOM     18  C   UNL     1      10.457  16.474  18.544  0.00  0.00    +0.000 C 
ATOM     19  C   UNL     1      10.059  15.037  18.335  0.00  0.00    +0.000 A 
ATOM     20  C   UNL     1      10.890  14.112  17.694  0.00  0.00    +0.000 A 
ATOM     21  C   UNL     1      10.454  12.784  17.447  0.00  0.00    +0.000 A 
ATOM     22  C   UNL     1       9.170  12.354  17.820  0.00  0.00    +0.000 A 
ATOM     23  C   UNL     1       8.369  13.283  18.498  0.00  0.00    +0.000 A 
ATOM     24  C   UNL     1       8.804  14.597  18.760  0.00  0.00    +0.000 A 
ENDBRANCH  14  22
ENDBRANCH  13  15
ENDBRANCH  12  13
ENDBRANCH   1  12
BRANCH  11  25
ATOM     25  C   UNL     1       5.182   5.235  19.264  0.00  0.00    +0.000 C 
BRANCH  25  26
ATOM     26  C   UNL     1       3.663   5.690  19.088  0.00  0.00    +0.000 C 
BRANCH  26  27
ATOM     27  C   UNL     1       2.406   4.835  19.350  0.00  0.00    +0.000 A 
ATOM     28  C   UNL     1       1.806   4.140  18.266  0.00  0.00    +0.000 A 
ATOM     29  C   UNL     1       0.894   3.088  18.462  0.00  0.00    +0.000 A 
ATOM     30  C   UNL     1       0.550   2.710  19.749  0.00  0.00    +0.000 A 
ATOM     31  C   UNL     1       1.062   3.425  20.828  0.00  0.00    +0.000 A 
ATOM     32  C   UNL     1       1.978   4.485  20.632  0.00  0.00    +0.000 A 
ENDBRANCH  26  27
ENDBRANCH  25  26
ENDBRANCH  11  25
TORSDOF 7
ENDMDL
