MODEL 1
REMARK VINA RESULT:      -9.0      0.000      0.000
REMARK  Name = 
REMARK  8 active torsions:
REMARK  status: ('A' for Active; 'I' for Inactive)
REMARK    1  A    between atoms: C_1  and  O_2
REMARK    2  A    between atoms: O_2  and  C_3
REMARK    3  A    between atoms: C_7  and  C_8
REMARK    4  A    between atoms: C_10  and  S_11
REMARK    5  A    between atoms: S_11  and  C_14
REMARK    6  A    between atoms: C_21  and  N_22
REMARK    7  A    between atoms: N_22  and  C_23
REMARK    8  A    between atoms: C_23  and  C_24
REMARK                            x       y       z     vdW  Elec       q    Type
REMARK                         _______ _______ _______ _____ _____    ______ ____
ROOT
ATOM      1  C   UNL     1       3.994   6.769  18.297  0.00  0.00    +0.000 A 
ATOM      2  N   UNL     1       4.985   6.942  17.447  0.00  0.00    +0.000 NA
ATOM      3  C   UNL     1       5.715   5.773  17.564  0.00  0.00    +0.000 A 
ATOM      4  C   UNL     1       5.105   4.919  18.458  0.00  0.00    +0.000 A 
ATOM      5  O   UNL     1       3.998   5.568  18.941  0.00  0.00    +0.000 OA
ENDROOT
BRANCH   1  10
ATOM      6  C   UNL     1       1.181   8.365  20.172  0.00  0.00    +0.000 A 
ATOM      7  C   UNL     1       0.688   9.265  19.225  0.00  0.00    +0.000 A 
ATOM      8  C   UNL     1       1.303   9.391  17.978  0.00  0.00    +0.000 A 
ATOM      9  C   UNL     1       2.412   8.607  17.661  0.00  0.00    +0.000 A 
ATOM     10  C   UNL     1       2.901   7.682  18.591  0.00  0.00    +0.000 A 
ATOM     11  C   UNL     1       2.285   7.581  19.846  0.00  0.00    +0.000 A 
BRANCH   6  13
ATOM     12  C   UNL     1      -0.270   9.476  21.686  0.00  0.00    +0.000 C 
ATOM     13  O   UNL     1       0.508   8.325  21.363  0.00  0.00    +0.000 OA
ENDBRANCH   6  13
ENDBRANCH   1  10
BRANCH   3  14
ATOM     14  S   UNL     1       7.142   5.482  16.647  0.00  0.00    +0.000 S 
ATOM     15  O   UNL     1       7.716   6.786  16.371  0.00  0.00    +0.000 OA
ATOM     16  O   UNL     1       7.856   4.468  17.398  0.00  0.00    +0.000 OA
BRANCH  14  17
ATOM     17  C   UNL     1       6.584   4.782  15.113  0.00  0.00    +0.000 A 
ATOM     18  C   UNL     1       5.330   4.159  15.063  0.00  0.00    +0.000 A 
ATOM     19  C   UNL     1       4.910   3.553  13.877  0.00  0.00    +0.000 A 
ATOM     20  C   UNL     1       5.733   3.583  12.751  0.00  0.00    +0.000 A 
ATOM     21 CL   UNL     1       5.226   2.805  11.302  0.00  0.00    +0.000 Cl
ATOM     22  C   UNL     1       6.968   4.232  12.792  0.00  0.00    +0.000 A 
ATOM     23  C   UNL     1       7.398   4.838  13.977  0.00  0.00    +0.000 A 
ENDBRANCH  14  17
ENDBRANCH   3  14
BRANCH   4  24
ATOM     24  N   UNL     1       5.364   3.694  18.958  0.00  0.00    +0.000 N 
ATOM     25  H   UNL     1       6.321   3.431  19.188  0.00  0.00    +0.000 HD
BRANCH  24  26
ATOM     26  C   UNL     1       4.492   2.571  18.653  0.00  0.00    +0.000 C 
BRANCH  26  27
ATOM     27  C   UNL     1       3.201   2.686  19.421  0.00  0.00    +0.000 A 
ATOM     28  C   UNL     1       3.213   2.710  20.825  0.00  0.00    +0.000 A 
ATOM     29  C   UNL     1       2.025   2.828  21.545  0.00  0.00    +0.000 A 
ATOM     30  C   UNL     1       0.810   2.930  20.870  0.00  0.00    +0.000 A 
ATOM     31  C   UNL     1       0.785   2.921  19.476  0.00  0.00    +0.000 A 
ATOM     32  C   UNL     1       1.973   2.800  18.754  0.00  0.00    +0.000 A 
ENDBRANCH  26  27
ENDBRANCH  24  26
ENDBRANCH   4  24
TORSDOF 7
ENDMDL
MODEL 2
REMARK VINA RESULT:      -8.6      0.530      1.290
REMARK  Name = 
REMARK  8 active torsions:
REMARK  status: ('A' for Active; 'I' for Inactive)
REMARK    1  A    between atoms: C_1  and  O_2
REMARK    2  A    between atoms: O_2  and  C_3
REMARK    3  A    between atoms: C_7  and  C_8
REMARK    4  A    between atoms: C_10  and  S_11
REMARK    5  A    between atoms: S_11  and  C_14
REMARK    6  A    between atoms: C_21  and  N_22
REMARK    7  A    between atoms: N_22  and  C_23
REMARK    8  A    between atoms: C_23  and  C_24
REMARK                            x       y       z     vdW  Elec       q    Type
REMARK                         _______ _______ _______ _____ _____    ______ ____
ROOT
ATOM      1  C   UNL     1       4.012   6.710  18.266  0.00  0.00    +0.000 A 
ATOM      2  N   UNL     1       5.011   6.886  17.427  0.00  0.00    +0.000 NA
ATOM      3  C   UNL     1       5.728   5.708  17.529  0.00  0.00    +0.000 A 
ATOM      4  C   UNL     1       5.101   4.846  18.404  0.00  0.00    +0.000 A 
ATOM      5  O   UNL     1       3.998   5.499  18.890  0.00  0.00    +0.000 OA
ENDROOT
BRANCH   1  10
ATOM      6  C   UNL     1       1.213   8.315  20.154  0.00  0.00    +0.000 A 
ATOM      7  C   UNL     1       0.727   9.227  19.215  0.00  0.00    +0.000 A 
ATOM      8  C   UNL     1       1.344   9.359  17.969  0.00  0.00    +0.000 A 
ATOM      9  C   UNL     1       2.446   8.568  17.646  0.00  0.00    +0.000 A 
ATOM     10  C   UNL     1       2.927   7.630  18.568  0.00  0.00    +0.000 A 
ATOM     11  C   UNL     1       2.309   7.524  19.822  0.00  0.00    +0.000 A 
BRANCH   6  13
ATOM     12  C   UNL     1       0.945   9.214  22.334  0.00  0.00    +0.000 C 
ATOM     13  O   UNL     1       0.539   8.270  21.344  0.00  0.00    +0.000 OA
ENDBRANCH   6  13
ENDBRANCH   1  10
BRANCH   3  14
ATOM     14  S   UNL     1       7.157   5.416  16.617  0.00  0.00    +0.000 S 
ATOM     15  O   UNL     1       7.718   6.721  16.319  0.00  0.00    +0.000 OA
ATOM     16  O   UNL     1       7.882   4.422  17.385  0.00  0.00    +0.000 OA
BRANCH  14  17
ATOM     17  C   UNL     1       6.607   4.684  15.095  0.00  0.00    +0.000 A 
ATOM     18  C   UNL     1       7.419   4.783  13.958  0.00  0.00    +0.000 A 
ATOM     19  C   UNL     1       6.967   4.262  12.743  0.00  0.00    +0.000 A 
ATOM     20  C   UNL     1       5.719   3.639  12.674  0.00  0.00    +0.000 A 
ATOM     21 CL   UNL     1       5.152   3.031  11.168  0.00  0.00    +0.000 Cl
ATOM     22  C   UNL     1       4.926   3.514  13.815  0.00  0.00    +0.000 A 
ATOM     23  C   UNL     1       5.369   4.035  15.034  0.00  0.00    +0.000 A 
ENDBRANCH  14  17
ENDBRANCH   3  14
BRANCH   4  24
ATOM     24  N   UNL     1       5.344   3.610  18.885  0.00  0.00    +0.000 N 
ATOM     25  H   UNL     1       5.644   2.868  18.254  0.00  0.00    +0.000 HD
BRANCH  24  26
ATOM     26  C   UNL     1       4.670   3.138  20.085  0.00  0.00    +0.000 C 
BRANCH  26  27
ATOM     27  C   UNL     1       3.192   2.986  19.831  0.00  0.00    +0.000 A 
ATOM     28  C   UNL     1       2.737   2.234  18.736  0.00  0.00    +0.000 A 
ATOM     29  C   UNL     1       1.372   2.077  18.499  0.00  0.00    +0.000 A 
ATOM     30  C   UNL     1       0.445   2.665  19.359  0.00  0.00    +0.000 A 
ATOM     31  C   UNL     1       0.884   3.402  20.458  0.00  0.00    +0.000 A 
ATOM     32  C   UNL     1       2.250   3.562  20.695  0.00  0.00    +0.000 A 
ENDBRANCH  26  27
ENDBRANCH  24  26
ENDBRANCH   4  24
TORSDOF 7
ENDMDL
MODEL 3
REMARK VINA RESULT:      -8.4      0.897      1.615
REMARK  Name = 
REMARK  8 active torsions:
REMARK  status: ('A' for Active; 'I' for Inactive)
REMARK    1  A    between atoms: C_1  and  O_2
REMARK    2  A    between atoms: O_2  and  C_3
REMARK    3  A    between atoms: C_7  and  C_8
REMARK    4  A    between atoms: C_10  and  S_11
REMARK    5  A    between atoms: S_11  and  C_14
REMARK    6  A    between atoms: C_21  and  N_22
REMARK    7  A    between atoms: N_22  and  C_23
REMARK    8  A    between atoms: C_23  and  C_24
REMARK                            x       y       z     vdW  Elec       q    Type
REMARK                         _______ _______ _______ _____ _____    ______ ____
ROOT
ATOM      1  C   UNL     1       3.899   6.500  18.733  0.00  0.00    +0.000 A 
ATOM      2  N   UNL     1       4.857   6.818  17.888  0.00  0.00    +0.000 NA
ATOM      3  C   UNL     1       5.645   5.682  17.851  0.00  0.00    +0.000 A 
ATOM      4  C   UNL     1       5.099   4.701  18.652  0.00  0.00    +0.000 A 
ATOM      5  O   UNL     1       3.977   5.234  19.232  0.00  0.00    +0.000 OA
ENDROOT
BRANCH   1  10
ATOM      6  C   UNL     1       1.308   9.193  18.648  0.00  0.00    +0.000 A 
ATOM      7  C   UNL     1       0.723   9.059  19.909  0.00  0.00    +0.000 A 
ATOM      8  C   UNL     1       1.141   8.053  20.782  0.00  0.00    +0.000 A 
ATOM      9  C   UNL     1       2.158   7.178  20.406  0.00  0.00    +0.000 A 
ATOM     10  C   UNL     1       2.773   7.316  19.155  0.00  0.00    +0.000 A 
ATOM     11  C   UNL     1       2.328   8.319  18.281  0.00  0.00    +0.000 A 
BRANCH   6  13
ATOM     12  C   UNL     1      -0.480  10.688  18.202  0.00  0.00    +0.000 C 
ATOM     13  O   UNL     1       0.820  10.207  17.869  0.00  0.00    +0.000 OA
ENDBRANCH   6  13
ENDBRANCH   1  10
BRANCH   3  14
ATOM     14  S   UNL     1       7.057   5.571  16.876  0.00  0.00    +0.000 S 
ATOM     15  O   UNL     1       7.485   6.935  16.630  0.00  0.00    +0.000 OA
ATOM     16  O   UNL     1       7.899   4.609  17.562  0.00  0.00    +0.000 OA
BRANCH  14  17
ATOM     17  C   UNL     1       6.515   4.870  15.336  0.00  0.00    +0.000 A 
ATOM     18  C   UNL     1       5.260   4.252  15.272  0.00  0.00    +0.000 A 
ATOM     19  C   UNL     1       4.852   3.646  14.082  0.00  0.00    +0.000 A 
ATOM     20  C   UNL     1       5.689   3.671  12.965  0.00  0.00    +0.000 A 
ATOM     21 CL   UNL     1       5.197   2.893  11.512  0.00  0.00    +0.000 Cl
ATOM     22  C   UNL     1       6.926   4.315  13.021  0.00  0.00    +0.000 A 
ATOM     23  C   UNL     1       7.344   4.921  14.210  0.00  0.00    +0.000 A 
ENDBRANCH  14  17
ENDBRANCH   3  14
BRANCH   4  24
ATOM     24  N   UNL     1       5.430   3.441  19.000  0.00  0.00    +0.000 N 
ATOM     25  H   UNL     1       6.410   3.164  19.039  0.00  0.00    +0.000 HD
BRANCH  24  26
ATOM     26  C   UNL     1       4.508   2.342  18.761  0.00  0.00    +0.000 C 
BRANCH  26  27
ATOM     27  C   UNL     1       3.225   2.558  19.522  0.00  0.00    +0.000 A 
ATOM     28  C   UNL     1       2.006   2.674  18.834  0.00  0.00    +0.000 A 
ATOM     29  C   UNL     1       0.812   2.863  19.528  0.00  0.00    +0.000 A 
ATOM     30  C   UNL     1       0.821   2.932  20.920  0.00  0.00    +0.000 A 
ATOM     31  C   UNL     1       2.022   2.805  21.616  0.00  0.00    +0.000 A 
ATOM     32  C   UNL     1       3.219   2.618  20.922  0.00  0.00    +0.000 A 
ENDBRANCH  26  27
ENDBRANCH  24  26
ENDBRANCH   4  24
TORSDOF 7
ENDMDL
MODEL 4
REMARK VINA RESULT:      -8.3      0.990      1.490
REMARK  Name = 
REMARK  8 active torsions:
REMARK  status: ('A' for Active; 'I' for Inactive)
REMARK    1  A    between atoms: C_1  and  O_2
REMARK    2  A    between atoms: O_2  and  C_3
REMARK    3  A    between atoms: C_7  and  C_8
REMARK    4  A    between atoms: C_10  and  S_11
REMARK    5  A    between atoms: S_11  and  C_14
REMARK    6  A    between atoms: C_21  and  N_22
REMARK    7  A    between atoms: N_22  and  C_23
REMARK    8  A    between atoms: C_23  and  C_24
REMARK                            x       y       z     vdW  Elec       q    Type
REMARK                         _______ _______ _______ _____ _____    ______ ____
ROOT
ATOM      1  C   UNL     1       3.934   6.332  18.755  0.00  0.00    +0.000 A 
ATOM      2  N   UNL     1       4.903   6.664  17.927  0.00  0.00    +0.000 NA
ATOM      3  C   UNL     1       5.667   5.514  17.847  0.00  0.00    +0.000 A 
ATOM      4  C   UNL     1       5.098   4.513  18.605  0.00  0.00    +0.000 A 
ATOM      5  O   UNL     1       3.984   5.045  19.202  0.00  0.00    +0.000 OA
ENDROOT
BRANCH   1  10
ATOM      6  C   UNL     1       1.469   9.140  18.827  0.00  0.00    +0.000 A 
ATOM      7  C   UNL     1       0.815   8.908  20.039  0.00  0.00    +0.000 A 
ATOM      8  C   UNL     1       1.143   7.800  20.822  0.00  0.00    +0.000 A 
ATOM      9  C   UNL     1       2.141   6.919  20.405  0.00  0.00    +0.000 A 
ATOM     10  C   UNL     1       2.824   7.154  19.206  0.00  0.00    +0.000 A 
ATOM     11  C   UNL     1       2.468   8.260  18.421  0.00  0.00    +0.000 A 
BRANCH   6  13
ATOM     12  C   UNL     1       1.437  11.509  18.692  0.00  0.00    +0.000 C 
ATOM     13  O   UNL     1       1.066  10.250  18.135  0.00  0.00    +0.000 OA
ENDBRANCH   6  13
ENDBRANCH   1  10
BRANCH   3  14
ATOM     14  S   UNL     1       7.081   5.412  16.872  0.00  0.00    +0.000 S 
ATOM     15  O   UNL     1       7.532   6.777  16.673  0.00  0.00    +0.000 OA
ATOM     16  O   UNL     1       7.904   4.415  17.530  0.00  0.00    +0.000 OA
BRANCH  14  17
ATOM     17  C   UNL     1       6.534   4.771  15.309  0.00  0.00    +0.000 A 
ATOM     18  C   UNL     1       5.256   4.204  15.213  0.00  0.00    +0.000 A 
ATOM     19  C   UNL     1       4.841   3.644  14.003  0.00  0.00    +0.000 A 
ATOM     20  C   UNL     1       5.694   3.664  12.898  0.00  0.00    +0.000 A 
ATOM     21 CL   UNL     1       5.192   2.942  11.420  0.00  0.00    +0.000 Cl
ATOM     22  C   UNL     1       6.954   4.258  12.986  0.00  0.00    +0.000 A 
ATOM     23  C   UNL     1       7.378   4.818  14.195  0.00  0.00    +0.000 A 
ENDBRANCH  14  17
ENDBRANCH   3  14
BRANCH   4  24
ATOM     24  N   UNL     1       5.400   3.233  18.903  0.00  0.00    +0.000 N 
ATOM     25  H   UNL     1       5.735   2.606  18.173  0.00  0.00    +0.000 HD
BRANCH  24  26
ATOM     26  C   UNL     1       4.752   2.560  20.017  0.00  0.00    +0.000 C 
BRANCH  26  27
ATOM     27  C   UNL     1       3.253   2.617  19.864  0.00  0.00    +0.000 A 
ATOM     28  C   UNL     1       2.459   3.161  20.887  0.00  0.00    +0.000 A 
ATOM     29  C   UNL     1       1.073   3.229  20.751  0.00  0.00    +0.000 A 
ATOM     30  C   UNL     1       0.465   2.760  19.587  0.00  0.00    +0.000 A 
ATOM     31  C   UNL     1       1.243   2.231  18.559  0.00  0.00    +0.000 A 
ATOM     32  C   UNL     1       2.631   2.159  18.695  0.00  0.00    +0.000 A 
ENDBRANCH  26  27
ENDBRANCH  24  26
ENDBRANCH   4  24
TORSDOF 7
ENDMDL
MODEL 5
REMARK VINA RESULT:      -8.1      1.221      1.722
REMARK  Name = 
REMARK  8 active torsions:
REMARK  status: ('A' for Active; 'I' for Inactive)
REMARK    1  A    between atoms: C_1  and  O_2
REMARK    2  A    between atoms: O_2  and  C_3
REMARK    3  A    between atoms: C_7  and  C_8
REMARK    4  A    between atoms: C_10  and  S_11
REMARK    5  A    between atoms: S_11  and  C_14
REMARK    6  A    between atoms: C_21  and  N_22
REMARK    7  A    between atoms: N_22  and  C_23
REMARK    8  A    between atoms: C_23  and  C_24
REMARK                            x       y       z     vdW  Elec       q    Type
REMARK                         _______ _______ _______ _____ _____    ______ ____
ROOT
ATOM      1  C   UNL     1       3.052   6.903  18.315  0.00  0.00    +0.000 A 
ATOM      2  N   UNL     1       4.369   6.873  18.361  0.00  0.00    +0.000 NA
ATOM      3  C   UNL     1       4.679   5.609  17.896  0.00  0.00    +0.000 A 
ATOM      4  C   UNL     1       3.527   4.937  17.546  0.00  0.00    +0.000 A 
ATOM      5  O   UNL     1       2.475   5.769  17.828  0.00  0.00    +0.000 OA
ENDROOT
BRANCH   1  10
ATOM      6  C   UNL     1       0.897   9.090  20.446  0.00  0.00    +0.000 A 
ATOM      7  C   UNL     1       0.355   9.959  19.498  0.00  0.00    +0.000 A 
ATOM      8  C   UNL     1       0.729   9.868  18.156  0.00  0.00    +0.000 A 
ATOM      9  C   UNL     1       1.640   8.895  17.748  0.00  0.00    +0.000 A 
ATOM     10  C   UNL     1       2.170   7.998  18.683  0.00  0.00    +0.000 A 
ATOM     11  C   UNL     1       1.801   8.116  20.030  0.00  0.00    +0.000 A 
BRANCH   6  13
ATOM     12  C   UNL     1      -0.362  10.405  21.968  0.00  0.00    +0.000 C 
ATOM     13  O   UNL     1       0.468   9.269  21.733  0.00  0.00    +0.000 OA
ENDBRANCH   6  13
ENDBRANCH   1  10
BRANCH   3  14
ATOM     14  S   UNL     1       6.300   5.051  17.753  0.00  0.00    +0.000 S 
ATOM     15  O   UNL     1       7.145   6.175  18.112  0.00  0.00    +0.000 OA
ATOM     16  O   UNL     1       6.321   3.802  18.490  0.00  0.00    +0.000 OA
BRANCH  14  17
ATOM     17  C   UNL     1       6.532   4.708  16.026  0.00  0.00    +0.000 A 
ATOM     18  C   UNL     1       7.381   5.530  15.274  0.00  0.00    +0.000 A 
ATOM     19  C   UNL     1       7.522   5.304  13.904  0.00  0.00    +0.000 A 
ATOM     20  C   UNL     1       6.828   4.256  13.296  0.00  0.00    +0.000 A 
ATOM     21 CL   UNL     1       6.977   4.003  11.601  0.00  0.00    +0.000 Cl
ATOM     22  C   UNL     1       6.007   3.418  14.052  0.00  0.00    +0.000 A 
ATOM     23  C   UNL     1       5.858   3.640  15.424  0.00  0.00    +0.000 A 
ENDBRANCH  14  17
ENDBRANCH   3  14
BRANCH   4  24
ATOM     24  N   UNL     1       3.229   3.713  17.065  0.00  0.00    +0.000 N 
ATOM     25  H   UNL     1       2.509   3.607  16.352  0.00  0.00    +0.000 HD
BRANCH  24  26
ATOM     26  C   UNL     1       3.440   2.526  17.880  0.00  0.00    +0.000 C 
BRANCH  26  27
ATOM     27  C   UNL     1       2.699   2.649  19.187  0.00  0.00    +0.000 A 
ATOM     28  C   UNL     1       1.305   2.813  19.196  0.00  0.00    +0.000 A 
ATOM     29  C   UNL     1       0.608   2.916  20.399  0.00  0.00    +0.000 A 
ATOM     30  C   UNL     1       1.297   2.848  21.609  0.00  0.00    +0.000 A 
ATOM     31  C   UNL     1       2.680   2.671  21.614  0.00  0.00    +0.000 A 
ATOM     32  C   UNL     1       3.379   2.571  20.410  0.00  0.00    +0.000 A 
ENDBRANCH  26  27
ENDBRANCH  24  26
ENDBRANCH   4  24
TORSDOF 7
ENDMDL
MODEL 6
REMARK VINA RESULT:      -8.0      4.237      8.879
REMARK  Name = 
REMARK  8 active torsions:
REMARK  status: ('A' for Active; 'I' for Inactive)
REMARK    1  A    between atoms: C_1  and  O_2
REMARK    2  A    between atoms: O_2  and  C_3
REMARK    3  A    between atoms: C_7  and  C_8
REMARK    4  A    between atoms: C_10  and  S_11
REMARK    5  A    between atoms: S_11  and  C_14
REMARK    6  A    between atoms: C_21  and  N_22
REMARK    7  A    between atoms: N_22  and  C_23
REMARK    8  A    between atoms: C_23  and  C_24
REMARK                            x       y       z     vdW  Elec       q    Type
REMARK                         _______ _______ _______ _____ _____    ______ ____
ROOT
ATOM      1  C   UNL     1       1.885   6.999  20.080  0.00  0.00    +0.000 A 
ATOM      2  N   UNL     1       2.069   7.925  19.161  0.00  0.00    +0.000 NA
ATOM      3  C   UNL     1       1.258   8.963  19.583  0.00  0.00    +0.000 A 
ATOM      4  C   UNL     1       0.645   8.632  20.773  0.00  0.00    +0.000 A 
ATOM      5  O   UNL     1       1.041   7.358  21.089  0.00  0.00    +0.000 OA
ENDROOT
BRANCH   1  10
ATOM      6  C   UNL     1       4.368   4.261  19.522  0.00  0.00    +0.000 A 
ATOM      7  C   UNL     1       3.711   3.168  20.090  0.00  0.00    +0.000 A 
ATOM      8  C   UNL     1       2.469   3.327  20.705  0.00  0.00    +0.000 A 
ATOM      9  C   UNL     1       1.863   4.582  20.746  0.00  0.00    +0.000 A 
ATOM     10  C   UNL     1       2.497   5.683  20.156  0.00  0.00    +0.000 A 
ATOM     11  C   UNL     1       3.754   5.511  19.560  0.00  0.00    +0.000 A 
BRANCH   6  13
ATOM     12  C   UNL     1       5.810   4.564  17.662  0.00  0.00    +0.000 C 
ATOM     13  O   UNL     1       5.582   3.996  18.950  0.00  0.00    +0.000 OA
ENDBRANCH   6  13
ENDBRANCH   1  10
BRANCH   3  14
ATOM     14  S   UNL     1       1.132  10.444  18.718  0.00  0.00    +0.000 S 
ATOM     15  O   UNL     1       1.522  11.488  19.647  0.00  0.00    +0.000 OA
ATOM     16  O   UNL     1       1.848  10.204  17.480  0.00  0.00    +0.000 OA
BRANCH  14  17
ATOM     17  C   UNL     1      -0.597  10.635  18.358  0.00  0.00    +0.000 A 
ATOM     18  C   UNL     1      -1.324  11.636  19.015  0.00  0.00    +0.000 A 
ATOM     19  C   UNL     1      -2.696  11.755  18.782  0.00  0.00    +0.000 A 
ATOM     20  C   UNL     1      -3.329  10.886  17.891  0.00  0.00    +0.000 A 
ATOM     21 CL   UNL     1      -5.025  11.013  17.635  0.00  0.00    +0.000 Cl
ATOM     22  C   UNL     1      -2.597   9.910  17.213  0.00  0.00    +0.000 A 
ATOM     23  C   UNL     1      -1.224   9.783  17.443  0.00  0.00    +0.000 A 
ENDBRANCH  14  17
ENDBRANCH   3  14
BRANCH   4  24
ATOM     24  N   UNL     1      -0.230   9.226  21.609  0.00  0.00    +0.000 N 
ATOM     25  H   UNL     1      -1.203   9.340  21.330  0.00  0.00    +0.000 HD
BRANCH  24  26
ATOM     26  C   UNL     1       0.227  10.198  22.591  0.00  0.00    +0.000 C 
BRANCH  26  27
ATOM     27  C   UNL     1      -0.728  11.362  22.660  0.00  0.00    +0.000 A 
ATOM     28  C   UNL     1      -1.996  11.202  23.240  0.00  0.00    +0.000 A 
ATOM     29  C   UNL     1      -2.883  12.275  23.320  0.00  0.00    +0.000 A 
ATOM     30  C   UNL     1      -2.509  13.524  22.827  0.00  0.00    +0.000 A 
ATOM     31  C   UNL     1      -1.246  13.699  22.261  0.00  0.00    +0.000 A 
ATOM     32  C   UNL     1      -0.359  12.626  22.178  0.00  0.00    +0.000 A 
ENDBRANCH  26  27
ENDBRANCH  24  26
ENDBRANCH   4  24
TORSDOF 7
ENDMDL
MODEL 7
REMARK VINA RESULT:      -8.0      4.742      9.681
REMARK  Name = 
REMARK  8 active torsions:
REMARK  status: ('A' for Active; 'I' for Inactive)
REMARK    1  A    between atoms: C_1  and  O_2
REMARK    2  A    between atoms: O_2  and  C_3
REMARK    3  A    between atoms: C_7  and  C_8
REMARK    4  A    between atoms: C_10  and  S_11
REMARK    5  A    between atoms: S_11  and  C_14
REMARK    6  A    between atoms: C_21  and  N_22
REMARK    7  A    between atoms: N_22  and  C_23
REMARK    8  A    between atoms: C_23  and  C_24
REMARK                            x       y       z     vdW  Elec       q    Type
REMARK                         _______ _______ _______ _____ _____    ______ ____
ROOT
ATOM      1  C   UNL     1       2.460   8.090  18.318  0.00  0.00    +0.000 A 
ATOM      2  N   UNL     1       1.631   8.185  19.337  0.00  0.00    +0.000 NA
ATOM      3  C   UNL     1       1.226   9.506  19.301  0.00  0.00    +0.000 A 
ATOM      4  C   UNL     1       1.802  10.149  18.226  0.00  0.00    +0.000 A 
ATOM      5  O   UNL     1       2.609   9.237  17.597  0.00  0.00    +0.000 OA
ENDROOT
BRANCH   1  10
ATOM      6  C   UNL     1       5.060   6.047  16.574  0.00  0.00    +0.000 A 
ATOM      7  C   UNL     1       4.595   4.750  16.800  0.00  0.00    +0.000 A 
ATOM      8  C   UNL     1       3.451   4.530  17.569  0.00  0.00    +0.000 A 
ATOM      9  C   UNL     1       2.751   5.609  18.108  0.00  0.00    +0.000 A 
ATOM     10  C   UNL     1       3.189   6.916  17.866  0.00  0.00    +0.000 A 
ATOM     11  C   UNL     1       4.352   7.120  17.109  0.00  0.00    +0.000 A 
BRANCH   6  13
ATOM     12  C   UNL     1       6.864   4.928  15.514  0.00  0.00    +0.000 C 
ATOM     13  O   UNL     1       6.192   6.150  15.813  0.00  0.00    +0.000 OA
ENDBRANCH   6  13
ENDBRANCH   1  10
BRANCH   3  14
ATOM     14  S   UNL     1       0.116  10.162  20.440  0.00  0.00    +0.000 S 
ATOM     15  O   UNL     1      -0.301   9.054  21.280  0.00  0.00    +0.000 OA
ATOM     16  O   UNL     1       0.792  11.326  20.978  0.00  0.00    +0.000 OA
BRANCH  14  17
ATOM     17  C   UNL     1      -1.283  10.695  19.484  0.00  0.00    +0.000 A 
ATOM     18  C   UNL     1      -2.037  11.788  19.929  0.00  0.00    +0.000 A 
ATOM     19  C   UNL     1      -3.173  12.176  19.216  0.00  0.00    +0.000 A 
ATOM     20  C   UNL     1      -3.542  11.481  18.062  0.00  0.00    +0.000 A 
ATOM     21 CL   UNL     1      -4.962  11.941  17.206  0.00  0.00    +0.000 Cl
ATOM     22  C   UNL     1      -2.771  10.412  17.602  0.00  0.00    +0.000 A 
ATOM     23  C   UNL     1      -1.634  10.016  18.312  0.00  0.00    +0.000 A 
ENDBRANCH  14  17
ENDBRANCH   3  14
BRANCH   4  24
ATOM     24  N   UNL     1       1.781  11.399  17.722  0.00  0.00    +0.000 N 
ATOM     25  H   UNL     1       1.457  11.559  16.769  0.00  0.00    +0.000 HD
BRANCH  24  26
ATOM     26  C   UNL     1       2.701  12.412  18.217  0.00  0.00    +0.000 C 
BRANCH  26  27
ATOM     27  C   UNL     1       1.991  13.731  18.379  0.00  0.00    +0.000 A 
ATOM     28  C   UNL     1       0.608  13.764  18.623  0.00  0.00    +0.000 A 
ATOM     29  C   UNL     1      -0.056  14.979  18.787  0.00  0.00    +0.000 A 
ATOM     30  C   UNL     1       0.655  16.176  18.716  0.00  0.00    +0.000 A 
ATOM     31  C   UNL     1       2.030  16.156  18.488  0.00  0.00    +0.000 A 
ATOM     32  C   UNL     1       2.697  14.941  18.321  0.00  0.00    +0.000 A 
ENDBRANCH  26  27
ENDBRANCH  24  26
ENDBRANCH   4  24
TORSDOF 7
ENDMDL
MODEL 8
REMARK VINA RESULT:      -8.0      4.314      8.977
REMARK  Name = 
REMARK  8 active torsions:
REMARK  status: ('A' for Active; 'I' for Inactive)
REMARK    1  A    between atoms: C_1  and  O_2
REMARK    2  A    between atoms: O_2  and  C_3
REMARK    3  A    between atoms: C_7  and  C_8
REMARK    4  A    between atoms: C_10  and  S_11
REMARK    5  A    between atoms: S_11  and  C_14
REMARK    6  A    between atoms: C_21  and  N_22
REMARK    7  A    between atoms: N_22  and  C_23
REMARK    8  A    between atoms: C_23  and  C_24
REMARK                            x       y       z     vdW  Elec       q    Type
REMARK                         _______ _______ _______ _____ _____    ______ ____
ROOT
ATOM      1  C   UNL     1       1.855   7.313  20.175  0.00  0.00    +0.000 A 
ATOM      2  N   UNL     1       1.809   8.133  19.146  0.00  0.00    +0.000 NA
ATOM      3  C   UNL     1       1.339   9.312  19.695  0.00  0.00    +0.000 A 
ATOM      4  C   UNL     1       1.158   9.164  21.053  0.00  0.00    +0.000 A 
ATOM      5  O   UNL     1       1.480   7.867  21.362  0.00  0.00    +0.000 OA
ENDROOT
BRANCH   1  10
ATOM      6  C   UNL     1       3.835   4.257  19.331  0.00  0.00    +0.000 A 
ATOM      7  C   UNL     1       3.122   3.265  20.007  0.00  0.00    +0.000 A 
ATOM      8  C   UNL     1       2.012   3.595  20.786  0.00  0.00    +0.000 A 
ATOM      9  C   UNL     1       1.596   4.922  20.885  0.00  0.00    +0.000 A 
ATOM     10  C   UNL     1       2.285   5.924  20.191  0.00  0.00    +0.000 A 
ATOM     11  C   UNL     1       3.410   5.579  19.430  0.00  0.00    +0.000 A 
BRANCH   6  13
ATOM     12  C   UNL     1       6.028   4.709  18.546  0.00  0.00    +0.000 C 
ATOM     13  O   UNL     1       4.910   3.826  18.602  0.00  0.00    +0.000 OA
ENDBRANCH   6  13
ENDBRANCH   1  10
BRANCH   3  14
ATOM     14  S   UNL     1       1.095  10.733  18.756  0.00  0.00    +0.000 S 
ATOM     15  O   UNL     1       1.459  11.848  19.610  0.00  0.00    +0.000 OA
ATOM     16  O   UNL     1       1.777  10.464  17.505  0.00  0.00    +0.000 OA
BRANCH  14  17
ATOM     17  C   UNL     1      -0.654  10.808  18.457  0.00  0.00    +0.000 A 
ATOM     18  C   UNL     1      -1.231   9.906  17.554  0.00  0.00    +0.000 A 
ATOM     19  C   UNL     1      -2.595   9.996  17.268  0.00  0.00    +0.000 A 
ATOM     20  C   UNL     1      -3.374  10.974  17.891  0.00  0.00    +0.000 A 
ATOM     21 CL   UNL     1      -5.046  11.104  17.509  0.00  0.00    +0.000 Cl
ATOM     22  C   UNL     1      -2.804  11.851  18.815  0.00  0.00    +0.000 A 
ATOM     23  C   UNL     1      -1.438  11.769  19.104  0.00  0.00    +0.000 A 
ENDBRANCH  14  17
ENDBRANCH   3  14
BRANCH   4  24
ATOM     24  N   UNL     1       0.722   9.944  22.063  0.00  0.00    +0.000 N 
ATOM     25  H   UNL     1       1.361  10.218  22.807  0.00  0.00    +0.000 HD
BRANCH  24  26
ATOM     26  C   UNL     1      -0.680   9.934  22.453  0.00  0.00    +0.000 C 
BRANCH  26  27
ATOM     27  C   UNL     1      -1.159  11.337  22.724  0.00  0.00    +0.000 A 
ATOM     28  C   UNL     1      -0.354  12.437  22.383  0.00  0.00    +0.000 A 
ATOM     29  C   UNL     1      -0.792  13.739  22.618  0.00  0.00    +0.000 A 
ATOM     30  C   UNL     1      -2.044  13.959  23.191  0.00  0.00    +0.000 A 
ATOM     31  C   UNL     1      -2.858  12.876  23.521  0.00  0.00    +0.000 A 
ATOM     32  C   UNL     1      -2.420  11.572  23.288  0.00  0.00    +0.000 A 
ENDBRANCH  26  27
ENDBRANCH  24  26
ENDBRANCH   4  24
TORSDOF 7
ENDMDL
MODEL 9
REMARK VINA RESULT:      -8.0      3.143      3.932
REMARK  Name = 
REMARK  8 active torsions:
REMARK  status: ('A' for Active; 'I' for Inactive)
REMARK    1  A    between atoms: C_1  and  O_2
REMARK    2  A    between atoms: O_2  and  C_3
REMARK    3  A    between atoms: C_7  and  C_8
REMARK    4  A    between atoms: C_10  and  S_11
REMARK    5  A    between atoms: S_11  and  C_14
REMARK    6  A    between atoms: C_21  and  N_22
REMARK    7  A    between atoms: N_22  and  C_23
REMARK    8  A    between atoms: C_23  and  C_24
REMARK                            x       y       z     vdW  Elec       q    Type
REMARK                         _______ _______ _______ _____ _____    ______ ____
ROOT
ATOM      1  C   UNL     1       2.745   6.621  18.725  0.00  0.00    +0.000 A 
ATOM      2  N   UNL     1       4.058   6.594  18.629  0.00  0.00    +0.000 NA
ATOM      3  C   UNL     1       4.305   5.433  17.920  0.00  0.00    +0.000 A 
ATOM      4  C   UNL     1       3.117   4.824  17.579  0.00  0.00    +0.000 A 
ATOM      5  O   UNL     1       2.108   5.585  18.110  0.00  0.00    +0.000 OA
ENDROOT
BRANCH   1  10
ATOM      6  C   UNL     1       0.884   9.826  19.211  0.00  0.00    +0.000 A 
ATOM      7  C   UNL     1       0.469   9.712  20.539  0.00  0.00    +0.000 A 
ATOM      8  C   UNL     1       0.755   8.560  21.275  0.00  0.00    +0.000 A 
ATOM      9  C   UNL     1       1.471   7.516  20.691  0.00  0.00    +0.000 A 
ATOM     10  C   UNL     1       1.917   7.628  19.368  0.00  0.00    +0.000 A 
ATOM     11  C   UNL     1       1.605   8.782  18.636  0.00  0.00    +0.000 A 
BRANCH   6  13
ATOM     12  C   UNL     1       0.177  12.081  19.423  0.00  0.00    +0.000 C 
ATOM     13  O   UNL     1       0.546  10.993  18.580  0.00  0.00    +0.000 OA
ENDBRANCH   6  13
ENDBRANCH   1  10
BRANCH   3  14
ATOM     14  S   UNL     1       5.897   4.922  17.515  0.00  0.00    +0.000 S 
ATOM     15  O   UNL     1       6.228   3.859  18.445  0.00  0.00    +0.000 OA
ATOM     16  O   UNL     1       5.856   4.708  16.081  0.00  0.00    +0.000 OA
BRANCH  14  17
ATOM     17  C   UNL     1       6.944   6.314  17.863  0.00  0.00    +0.000 A 
ATOM     18  C   UNL     1       7.838   6.243  18.939  0.00  0.00    +0.000 A 
ATOM     19  C   UNL     1       8.622   7.355  19.256  0.00  0.00    +0.000 A 
ATOM     20  C   UNL     1       8.518   8.520  18.494  0.00  0.00    +0.000 A 
ATOM     21 CL   UNL     1       9.460   9.898  18.910  0.00  0.00    +0.000 Cl
ATOM     22  C   UNL     1       7.651   8.577  17.402  0.00  0.00    +0.000 A 
ATOM     23  C   UNL     1       6.861   7.470  17.080  0.00  0.00    +0.000 A 
ENDBRANCH  14  17
ENDBRANCH   3  14
BRANCH   4  24
ATOM     24  N   UNL     1       2.758   3.700  16.926  0.00  0.00    +0.000 N 
ATOM     25  H   UNL     1       2.094   3.750  16.154  0.00  0.00    +0.000 HD
BRANCH  24  26
ATOM     26  C   UNL     1       2.799   2.409  17.595  0.00  0.00    +0.000 C 
BRANCH  26  27
ATOM     27  C   UNL     1       2.414   2.557  19.044  0.00  0.00    +0.000 A 
ATOM     28  C   UNL     1       1.071   2.767  19.400  0.00  0.00    +0.000 A 
ATOM     29  C   UNL     1       0.702   2.894  20.739  0.00  0.00    +0.000 A 
ATOM     30  C   UNL     1       1.669   2.804  21.739  0.00  0.00    +0.000 A 
ATOM     31  C   UNL     1       3.003   2.582  21.399  0.00  0.00    +0.000 A 
ATOM     32  C   UNL     1       3.375   2.458  20.059  0.00  0.00    +0.000 A 
ENDBRANCH  26  27
ENDBRANCH  24  26
ENDBRANCH   4  24
TORSDOF 7
ENDMDL
