MODEL 1
REMARK VINA RESULT:      -8.5      0.000      0.000
REMARK  Name = 
REMARK  4 active torsions:
REMARK  status: ('A' for Active; 'I' for Inactive)
REMARK    1  A    between atoms: C_1  and  N_2
REMARK    2  A    between atoms: C_5  and  C_6
REMARK    3  A    between atoms: C_10  and  C_11
REMARK    4  A    between atoms: C_12  and  C_13
REMARK                            x       y       z     vdW  Elec       q    Type
REMARK                         _______ _______ _______ _____ _____    ______ ____
ROOT
ATOM      1  C   UNL     1       6.572   4.774  14.536  0.00  0.00    +0.000 C 
ATOM      2  N   UNL     1       7.389   4.560  15.706  0.00  0.00    +0.000 N 
ATOM      3  C   UNL     1       6.900   4.798  16.978  0.00  0.00    +0.000 A 
ATOM      4  C   UNL     1       5.570   4.661  17.306  0.00  0.00    +0.000 A 
ATOM      5  C   UNL     1       5.213   4.804  18.634  0.00  0.00    +0.000 A 
ATOM      6  N   UNL     1       6.137   5.092  19.569  0.00  0.00    +0.000 NA
ATOM      7  C   UNL     1       7.399   5.220  19.164  0.00  0.00    +0.000 A 
ATOM      8  N   UNL     1       8.335   5.549  20.125  0.00  0.00    +0.000 N 
ATOM      9  N   UNL     1       7.819   5.100  17.904  0.00  0.00    +0.000 NA
ATOM     10  H   UNL     1       8.358   4.862  15.656  0.00  0.00    +0.000 HD
ATOM     11  H   UNL     1       7.875   6.005  20.903  0.00  0.00    +0.000 HD
ATOM     12  H   UNL     1       9.116   6.023  19.695  0.00  0.00    +0.000 HD
ENDROOT
BRANCH   5  13
ATOM     13  C   UNL     1       3.816   4.587  19.104  0.00  0.00    +0.000 A 
ATOM     14  C   UNL     1       3.225   5.567  19.935  0.00  0.00    +0.000 A 
ATOM     15  C   UNL     1       1.922   5.451  20.411  0.00  0.00    +0.000 A 
ATOM     16  C   UNL     1       1.157   4.354  20.051  0.00  0.00    +0.000 A 
ATOM     17  C   UNL     1       1.686   3.353  19.224  0.00  0.00    +0.000 A 
ATOM     18  C   UNL     1       0.790   2.199  18.856  0.00  0.00    +0.000 C 
ATOM     19  C   UNL     1       3.024   3.452  18.754  0.00  0.00    +0.000 A 
ATOM     20  C   UNL     1       3.595   2.364  17.871  0.00  0.00    +0.000 C 
ENDBRANCH   5  13
TORSDOF 1
ENDMDL
MODEL 2
REMARK VINA RESULT:      -8.4      1.102      1.104
REMARK  Name = 
REMARK  4 active torsions:
REMARK  status: ('A' for Active; 'I' for Inactive)
REMARK    1  A    between atoms: C_1  and  N_2
REMARK    2  A    between atoms: C_5  and  C_6
REMARK    3  A    between atoms: C_10  and  C_11
REMARK    4  A    between atoms: C_12  and  C_13
REMARK                            x       y       z     vdW  Elec       q    Type
REMARK                         _______ _______ _______ _____ _____    ______ ____
ROOT
ATOM      1  C   UNL     1       5.837   4.328  14.510  0.00  0.00    +0.000 C 
ATOM      2  N   UNL     1       6.813   4.140  15.556  0.00  0.00    +0.000 N 
ATOM      3  C   UNL     1       6.569   4.558  16.852  0.00  0.00    +0.000 A 
ATOM      4  C   UNL     1       5.305   4.607  17.396  0.00  0.00    +0.000 A 
ATOM      5  C   UNL     1       5.190   4.922  18.738  0.00  0.00    +0.000 A 
ATOM      6  N   UNL     1       6.280   5.193  19.478  0.00  0.00    +0.000 NA
ATOM      7  C   UNL     1       7.463   5.136  18.870  0.00  0.00    +0.000 A 
ATOM      8  N   UNL     1       8.573   5.449  19.629  0.00  0.00    +0.000 N 
ATOM      9  N   UNL     1       7.654   4.843  17.582  0.00  0.00    +0.000 NA
ATOM     10  H   UNL     1       7.785   4.323  15.321  0.00  0.00    +0.000 HD
ATOM     11  H   UNL     1       8.296   6.030  20.410  0.00  0.00    +0.000 HD
ATOM     12  H   UNL     1       9.314   5.785  19.031  0.00  0.00    +0.000 HD
ENDROOT
BRANCH   5  13
ATOM     13  C   UNL     1       3.877   4.913  19.440  0.00  0.00    +0.000 A 
ATOM     14  C   UNL     1       3.124   6.111  19.477  0.00  0.00    +0.000 A 
ATOM     15  C   UNL     1       1.883   6.191  20.101  0.00  0.00    +0.000 A 
ATOM     16  C   UNL     1       1.342   5.063  20.696  0.00  0.00    +0.000 A 
ATOM     17  C   UNL     1       2.037   3.845  20.685  0.00  0.00    +0.000 A 
ATOM     18  C   UNL     1       1.378   2.654  21.332  0.00  0.00    +0.000 C 
ATOM     19  C   UNL     1       3.316   3.762  20.071  0.00  0.00    +0.000 A 
ATOM     20  C   UNL     1       4.068   2.449  20.072  0.00  0.00    +0.000 C 
ENDBRANCH   5  13
TORSDOF 1
ENDMDL
MODEL 3
REMARK VINA RESULT:      -8.3      0.704      1.958
REMARK  Name = 
REMARK  4 active torsions:
REMARK  status: ('A' for Active; 'I' for Inactive)
REMARK    1  A    between atoms: C_1  and  N_2
REMARK    2  A    between atoms: C_5  and  C_6
REMARK    3  A    between atoms: C_10  and  C_11
REMARK    4  A    between atoms: C_12  and  C_13
REMARK                            x       y       z     vdW  Elec       q    Type
REMARK                         _______ _______ _______ _____ _____    ______ ____
ROOT
ATOM      1  C   UNL     1       6.718   4.846  14.069  0.00  0.00    +0.000 C 
ATOM      2  N   UNL     1       7.539   4.760  15.253  0.00  0.00    +0.000 N 
ATOM      3  C   UNL     1       6.980   4.769  16.518  0.00  0.00    +0.000 A 
ATOM      4  C   UNL     1       5.723   4.273  16.784  0.00  0.00    +0.000 A 
ATOM      5  C   UNL     1       5.314   4.220  18.104  0.00  0.00    +0.000 A 
ATOM      6  N   UNL     1       6.114   4.662  19.091  0.00  0.00    +0.000 NA
ATOM      7  C   UNL     1       7.309   5.138  18.746  0.00  0.00    +0.000 A 
ATOM      8  N   UNL     1       8.109   5.620  19.762  0.00  0.00    +0.000 N 
ATOM      9  N   UNL     1       7.771   5.224  17.497  0.00  0.00    +0.000 NA
ATOM     10  H   UNL     1       8.399   5.301  15.261  0.00  0.00    +0.000 HD
ATOM     11  H   UNL     1       7.532   5.884  20.551  0.00  0.00    +0.000 HD
ATOM     12  H   UNL     1       8.751   6.308  19.396  0.00  0.00    +0.000 HD
ENDROOT
BRANCH   5  13
ATOM     13  C   UNL     1       4.011   3.619  18.503  0.00  0.00    +0.000 A 
ATOM     14  C   UNL     1       3.748   2.278  18.139  0.00  0.00    +0.000 A 
ATOM     15  C   UNL     1       2.563   1.633  18.480  0.00  0.00    +0.000 A 
ATOM     16  C   UNL     1       1.605   2.308  19.218  0.00  0.00    +0.000 A 
ATOM     17  C   UNL     1       1.811   3.637  19.615  0.00  0.00    +0.000 A 
ATOM     18  C   UNL     1       0.736   4.302  20.435  0.00  0.00    +0.000 C 
ATOM     19  C   UNL     1       3.010   4.309  19.249  0.00  0.00    +0.000 A 
ATOM     20  C   UNL     1       3.224   5.748  19.669  0.00  0.00    +0.000 C 
ENDBRANCH   5  13
TORSDOF 1
ENDMDL
MODEL 4
REMARK VINA RESULT:      -7.8      1.846      3.113
REMARK  Name = 
REMARK  4 active torsions:
REMARK  status: ('A' for Active; 'I' for Inactive)
REMARK    1  A    between atoms: C_1  and  N_2
REMARK    2  A    between atoms: C_5  and  C_6
REMARK    3  A    between atoms: C_10  and  C_11
REMARK    4  A    between atoms: C_12  and  C_13
REMARK                            x       y       z     vdW  Elec       q    Type
REMARK                         _______ _______ _______ _____ _____    ______ ____
ROOT
ATOM      1  C   UNL     1       8.120   7.790  18.118  0.00  0.00    +0.000 C 
ATOM      2  N   UNL     1       7.634   7.262  16.865  0.00  0.00    +0.000 N 
ATOM      3  C   UNL     1       6.924   6.077  16.811  0.00  0.00    +0.000 A 
ATOM      4  C   UNL     1       6.129   5.633  17.844  0.00  0.00    +0.000 A 
ATOM      5  C   UNL     1       5.367   4.498  17.633  0.00  0.00    +0.000 A 
ATOM      6  N   UNL     1       5.424   3.839  16.462  0.00  0.00    +0.000 NA
ATOM      7  C   UNL     1       6.228   4.328  15.520  0.00  0.00    +0.000 A 
ATOM      8  N   UNL     1       6.305   3.626  14.334  0.00  0.00    +0.000 N 
ATOM      9  N   UNL     1       6.994   5.413  15.650  0.00  0.00    +0.000 NA
ATOM     10  H   UNL     1       8.259   7.317  16.066  0.00  0.00    +0.000 HD
ATOM     11  H   UNL     1       6.039   2.662  14.494  0.00  0.00    +0.000 HD
ATOM     12  H   UNL     1       7.194   3.801  13.889  0.00  0.00    +0.000 HD
ENDROOT
BRANCH   5  13
ATOM     13  C   UNL     1       4.410   3.990  18.654  0.00  0.00    +0.000 A 
ATOM     14  C   UNL     1       4.782   2.864  19.426  0.00  0.00    +0.000 A 
ATOM     15  C   UNL     1       3.955   2.329  20.409  0.00  0.00    +0.000 A 
ATOM     16  C   UNL     1       2.728   2.919  20.666  0.00  0.00    +0.000 A 
ATOM     17  C   UNL     1       2.306   4.041  19.938  0.00  0.00    +0.000 A 
ATOM     18  C   UNL     1       0.970   4.643  20.286  0.00  0.00    +0.000 C 
ATOM     19  C   UNL     1       3.136   4.578  18.916  0.00  0.00    +0.000 A 
ATOM     20  C   UNL     1       2.672   5.782  18.125  0.00  0.00    +0.000 C 
ENDBRANCH   5  13
TORSDOF 1
ENDMDL
MODEL 5
REMARK VINA RESULT:      -7.8      1.584      2.182
REMARK  Name = 
REMARK  4 active torsions:
REMARK  status: ('A' for Active; 'I' for Inactive)
REMARK    1  A    between atoms: C_1  and  N_2
REMARK    2  A    between atoms: C_5  and  C_6
REMARK    3  A    between atoms: C_10  and  C_11
REMARK    4  A    between atoms: C_12  and  C_13
REMARK                            x       y       z     vdW  Elec       q    Type
REMARK                         _______ _______ _______ _____ _____    ______ ____
ROOT
ATOM      1  C   UNL     1       5.995   3.901  13.642  0.00  0.00    +0.000 C 
ATOM      2  N   UNL     1       6.957   4.553  14.497  0.00  0.00    +0.000 N 
ATOM      3  C   UNL     1       6.610   5.006  15.756  0.00  0.00    +0.000 A 
ATOM      4  C   UNL     1       5.634   4.409  16.523  0.00  0.00    +0.000 A 
ATOM      5  C   UNL     1       5.455   4.868  17.815  0.00  0.00    +0.000 A 
ATOM      6  N   UNL     1       6.199   5.881  18.295  0.00  0.00    +0.000 NA
ATOM      7  C   UNL     1       7.113   6.410  17.483  0.00  0.00    +0.000 A 
ATOM      8  N   UNL     1       7.847   7.471  17.974  0.00  0.00    +0.000 N 
ATOM      9  N   UNL     1       7.340   6.024  16.227  0.00  0.00    +0.000 NA
ATOM     10  H   UNL     1       7.587   5.221  14.060  0.00  0.00    +0.000 HD
ATOM     11  H   UNL     1       7.333   7.923  18.720  0.00  0.00    +0.000 HD
ATOM     12  H   UNL     1       8.172   8.045  17.209  0.00  0.00    +0.000 HD
ENDROOT
BRANCH   5  13
ATOM     13  C   UNL     1       4.488   4.232  18.752  0.00  0.00    +0.000 A 
ATOM     14  C   UNL     1       4.869   3.035  19.403  0.00  0.00    +0.000 A 
ATOM     15  C   UNL     1       4.034   2.379  20.302  0.00  0.00    +0.000 A 
ATOM     16  C   UNL     1       2.791   2.913  20.597  0.00  0.00    +0.000 A 
ATOM     17  C   UNL     1       2.360   4.102  19.989  0.00  0.00    +0.000 A 
ATOM     18  C   UNL     1       1.005   4.637  20.373  0.00  0.00    +0.000 C 
ATOM     19  C   UNL     1       3.198   4.764  19.050  0.00  0.00    +0.000 A 
ATOM     20  C   UNL     1       2.725   6.040  18.388  0.00  0.00    +0.000 C 
ENDBRANCH   5  13
TORSDOF 1
ENDMDL
MODEL 6
REMARK VINA RESULT:      -7.7      1.146      2.325
REMARK  Name = 
REMARK  4 active torsions:
REMARK  status: ('A' for Active; 'I' for Inactive)
REMARK    1  A    between atoms: C_1  and  N_2
REMARK    2  A    between atoms: C_5  and  C_6
REMARK    3  A    between atoms: C_10  and  C_11
REMARK    4  A    between atoms: C_12  and  C_13
REMARK                            x       y       z     vdW  Elec       q    Type
REMARK                         _______ _______ _______ _____ _____    ______ ____
ROOT
ATOM      1  C   UNL     1       5.607   3.914  13.081  0.00  0.00    +0.000 C 
ATOM      2  N   UNL     1       6.608   3.795  14.114  0.00  0.00    +0.000 N 
ATOM      3  C   UNL     1       6.304   4.031  15.442  0.00  0.00    +0.000 A 
ATOM      4  C   UNL     1       5.054   3.802  15.975  0.00  0.00    +0.000 A 
ATOM      5  C   UNL     1       4.895   3.954  17.340  0.00  0.00    +0.000 A 
ATOM      6  N   UNL     1       5.926   4.337  18.115  0.00  0.00    +0.000 NA
ATOM      7  C   UNL     1       7.097   4.549  17.518  0.00  0.00    +0.000 A 
ATOM      8  N   UNL     1       8.141   4.974  18.316  0.00  0.00    +0.000 N 
ATOM      9  N   UNL     1       7.327   4.426  16.209  0.00  0.00    +0.000 NA
ATOM     10  H   UNL     1       7.531   4.168  13.909  0.00  0.00    +0.000 HD
ATOM     11  H   UNL     1       7.771   5.415  19.150  0.00  0.00    +0.000 HD
ATOM     12  H   UNL     1       8.806   5.493  17.763  0.00  0.00    +0.000 HD
ENDROOT
BRANCH   5  13
ATOM     13  C   UNL     1       3.609   3.645  18.024  0.00  0.00    +0.000 A 
ATOM     14  C   UNL     1       3.016   2.380  17.803  0.00  0.00    +0.000 A 
ATOM     15  C   UNL     1       1.822   2.002  18.410  0.00  0.00    +0.000 A 
ATOM     16  C   UNL     1       1.189   2.876  19.279  0.00  0.00    +0.000 A 
ATOM     17  C   UNL     1       1.732   4.142  19.543  0.00  0.00    +0.000 A 
ATOM     18  C   UNL     1       1.002   5.031  20.515  0.00  0.00    +0.000 C 
ATOM     19  C   UNL     1       2.939   4.543  18.908  0.00  0.00    +0.000 A 
ATOM     20  C   UNL     1       3.516   5.915  19.187  0.00  0.00    +0.000 C 
ENDBRANCH   5  13
TORSDOF 1
ENDMDL
MODEL 7
REMARK VINA RESULT:      -7.7      1.495      2.514
REMARK  Name = 
REMARK  4 active torsions:
REMARK  status: ('A' for Active; 'I' for Inactive)
REMARK    1  A    between atoms: C_1  and  N_2
REMARK    2  A    between atoms: C_5  and  C_6
REMARK    3  A    between atoms: C_10  and  C_11
REMARK    4  A    between atoms: C_12  and  C_13
REMARK                            x       y       z     vdW  Elec       q    Type
REMARK                         _______ _______ _______ _____ _____    ______ ____
ROOT
ATOM      1  C   UNL     1       5.960   3.648  12.886  0.00  0.00    +0.000 C 
ATOM      2  N   UNL     1       6.857   4.240  13.850  0.00  0.00    +0.000 N 
ATOM      3  C   UNL     1       6.406   4.664  15.086  0.00  0.00    +0.000 A 
ATOM      4  C   UNL     1       5.343   4.077  15.736  0.00  0.00    +0.000 A 
ATOM      5  C   UNL     1       5.058   4.500  17.022  0.00  0.00    +0.000 A 
ATOM      6  N   UNL     1       5.783   5.472  17.604  0.00  0.00    +0.000 NA
ATOM      7  C   UNL     1       6.785   5.995  16.901  0.00  0.00    +0.000 A 
ATOM      8  N   UNL     1       7.502   7.014  17.494  0.00  0.00    +0.000 N 
ATOM      9  N   UNL     1       7.119   5.642  15.658  0.00  0.00    +0.000 NA
ATOM     10  H   UNL     1       7.545   4.900  13.498  0.00  0.00    +0.000 HD
ATOM     11  H   UNL     1       6.934   7.460  18.204  0.00  0.00    +0.000 HD
ATOM     12  H   UNL     1       7.915   7.601  16.784  0.00  0.00    +0.000 HD
ENDROOT
BRANCH   5  13
ATOM     13  C   UNL     1       3.987   3.867  17.841  0.00  0.00    +0.000 A 
ATOM     14  C   UNL     1       3.881   2.456  17.837  0.00  0.00    +0.000 A 
ATOM     15  C   UNL     1       2.920   1.780  18.582  0.00  0.00    +0.000 A 
ATOM     16  C   UNL     1       2.040   2.497  19.376  0.00  0.00    +0.000 A 
ATOM     17  C   UNL     1       2.100   3.898  19.427  0.00  0.00    +0.000 A 
ATOM     18  C   UNL     1       1.127   4.611  20.328  0.00  0.00    +0.000 C 
ATOM     19  C   UNL     1       3.065   4.596  18.649  0.00  0.00    +0.000 A 
ATOM     20  C   UNL     1       3.119   6.108  18.698  0.00  0.00    +0.000 C 
ENDBRANCH   5  13
TORSDOF 1
ENDMDL
MODEL 8
REMARK VINA RESULT:      -7.7      1.866      2.625
REMARK  Name = 
REMARK  4 active torsions:
REMARK  status: ('A' for Active; 'I' for Inactive)
REMARK    1  A    between atoms: C_1  and  N_2
REMARK    2  A    between atoms: C_5  and  C_6
REMARK    3  A    between atoms: C_10  and  C_11
REMARK    4  A    between atoms: C_12  and  C_13
REMARK                            x       y       z     vdW  Elec       q    Type
REMARK                         _______ _______ _______ _____ _____    ______ ____
ROOT
ATOM      1  C   UNL     1       8.093   8.226  17.878  0.00  0.00    +0.000 C 
ATOM      2  N   UNL     1       7.700   7.358  16.794  0.00  0.00    +0.000 N 
ATOM      3  C   UNL     1       6.856   6.283  17.002  0.00  0.00    +0.000 A 
ATOM      4  C   UNL     1       5.890   6.271  17.984  0.00  0.00    +0.000 A 
ATOM      5  C   UNL     1       5.021   5.195  18.023  0.00  0.00    +0.000 A 
ATOM      6  N   UNL     1       5.135   4.185  17.142  0.00  0.00    +0.000 NA
ATOM      7  C   UNL     1       6.105   4.271  16.233  0.00  0.00    +0.000 A 
ATOM      8  N   UNL     1       6.235   3.214  15.354  0.00  0.00    +0.000 N 
ATOM      9  N   UNL     1       6.981   5.272  16.135  0.00  0.00    +0.000 NA
ATOM     10  H   UNL     1       8.421   7.096  16.126  0.00  0.00    +0.000 HD
ATOM     11  H   UNL     1       5.830   2.381  15.764  0.00  0.00    +0.000 HD
ATOM     12  H   UNL     1       7.187   3.160  15.022  0.00  0.00    +0.000 HD
ENDROOT
BRANCH   5  13
ATOM     13  C   UNL     1       3.888   5.131  18.987  0.00  0.00    +0.000 A 
ATOM     14  C   UNL     1       3.055   6.265  19.125  0.00  0.00    +0.000 A 
ATOM     15  C   UNL     1       1.967   6.289  19.993  0.00  0.00    +0.000 A 
ATOM     16  C   UNL     1       1.665   5.164  20.742  0.00  0.00    +0.000 A 
ATOM     17  C   UNL     1       2.450   4.006  20.644  0.00  0.00    +0.000 A 
ATOM     18  C   UNL     1       2.050   2.813  21.471  0.00  0.00    +0.000 C 
ATOM     19  C   UNL     1       3.577   3.983  19.777  0.00  0.00    +0.000 A 
ATOM     20  C   UNL     1       4.429   2.736  19.682  0.00  0.00    +0.000 C 
ENDBRANCH   5  13
TORSDOF 1
ENDMDL
MODEL 9
REMARK VINA RESULT:      -7.4      1.678      2.602
REMARK  Name = 
REMARK  4 active torsions:
REMARK  status: ('A' for Active; 'I' for Inactive)
REMARK    1  A    between atoms: C_1  and  N_2
REMARK    2  A    between atoms: C_5  and  C_6
REMARK    3  A    between atoms: C_10  and  C_11
REMARK    4  A    between atoms: C_12  and  C_13
REMARK                            x       y       z     vdW  Elec       q    Type
REMARK                         _______ _______ _______ _____ _____    ______ ____
ROOT
ATOM      1  C   UNL     1       8.065   7.983  18.023  0.00  0.00    +0.000 C 
ATOM      2  N   UNL     1       7.724   7.335  16.779  0.00  0.00    +0.000 N 
ATOM      3  C   UNL     1       6.839   6.273  16.740  0.00  0.00    +0.000 A 
ATOM      4  C   UNL     1       5.809   6.124  17.641  0.00  0.00    +0.000 A 
ATOM      5  C   UNL     1       4.912   5.092  17.433  0.00  0.00    +0.000 A 
ATOM      6  N   UNL     1       5.059   4.250  16.395  0.00  0.00    +0.000 NA
ATOM      7  C   UNL     1       6.090   4.458  15.578  0.00  0.00    +0.000 A 
ATOM      8  N   UNL     1       6.252   3.568  14.534  0.00  0.00    +0.000 N 
ATOM      9  N   UNL     1       6.997   5.427  15.715  0.00  0.00    +0.000 NA
ATOM     10  H   UNL     1       8.480   7.168  16.121  0.00  0.00    +0.000 HD
ATOM     11  H   UNL     1       5.798   2.692  14.763  0.00  0.00    +0.000 HD
ATOM     12  H   UNL     1       7.222   3.538  14.257  0.00  0.00    +0.000 HD
ENDROOT
BRANCH   5  13
ATOM     13  C   UNL     1       3.715   4.901  18.299  0.00  0.00    +0.000 A 
ATOM     14  C   UNL     1       3.346   5.945  19.179  0.00  0.00    +0.000 A 
ATOM     15  C   UNL     1       2.236   5.857  20.014  0.00  0.00    +0.000 A 
ATOM     16  C   UNL     1       1.444   4.722  19.982  0.00  0.00    +0.000 A 
ATOM     17  C   UNL     1       1.754   3.656  19.125  0.00  0.00    +0.000 A 
ATOM     18  C   UNL     1       0.836   2.462  19.126  0.00  0.00    +0.000 C 
ATOM     19  C   UNL     1       2.900   3.730  18.286  0.00  0.00    +0.000 A 
ATOM     20  C   UNL     1       3.239   2.572  17.371  0.00  0.00    +0.000 C 
ENDBRANCH   5  13
TORSDOF 1
ENDMDL
