MODEL 1
REMARK VINA RESULT:      -7.8      0.000      0.000
REMARK  Name = 
REMARK  11 active torsions:
REMARK  status: ('A' for Active; 'I' for Inactive)
REMARK    1  A    between atoms: C_1  and  O_2
REMARK    2  A    between atoms: O_2  and  C_3
REMARK    3  A    between atoms: C_5  and  N_6
REMARK    4  A    between atoms: C_7  and  C_9
REMARK    5  A    between atoms: C_9  and  O_10
REMARK    6  A    between atoms: O_10  and  C_11
REMARK    7  A    between atoms: C_11  and  C_13
REMARK    8  A    between atoms: C_13  and  N_14
REMARK    9  A    between atoms: C_15  and  C_17
REMARK   10  A    between atoms: C_24  and  O_25
REMARK   11  A    between atoms: O_25  and  C_26
REMARK                            x       y       z     vdW  Elec       q    Type
REMARK                         _______ _______ _______ _____ _____    ______ ____
ROOT
ATOM      1  C   UNL     1       7.138   7.822  17.256  0.00  0.00    +0.000 C 
ENDROOT
BRANCH   1   3
ATOM      2  N   UNL     1       8.394   9.857  17.910  0.00  0.00    +0.000 N 
ATOM      3  C   UNL     1       8.197   8.498  18.129  0.00  0.00    +0.000 C 
ATOM      4  O   UNL     1       8.782   7.823  18.975  0.00  0.00    +0.000 OA
ATOM      5  H   UNL     1       7.744  10.324  17.276  0.00  0.00    +0.000 HD
BRANCH   2   8
ATOM      6  C   UNL     1      11.266  12.205  18.532  0.00  0.00    +0.000 A 
ATOM      7  C   UNL     1      10.440  11.273  17.890  0.00  0.00    +0.000 A 
ATOM      8  C   UNL     1       9.371  10.663  18.562  0.00  0.00    +0.000 A 
ATOM      9  C   UNL     1       9.228  10.926  19.932  0.00  0.00    +0.000 A 
ATOM     10  C   UNL     1      10.066  11.838  20.591  0.00  0.00    +0.000 A 
ATOM     11  C   UNL     1      11.079  12.476  19.883  0.00  0.00    +0.000 A 
BRANCH   6  13
ATOM     12  C   UNL     1      11.738  13.417  16.554  0.00  0.00    +0.000 C 
ATOM     13  O   UNL     1      12.219  12.823  17.761  0.00  0.00    +0.000 OA
ENDBRANCH   6  13
BRANCH  10  14
ATOM     14  O   UNL     1       9.775  12.058  21.911  0.00  0.00    +0.000 OA
ATOM     15  C   UNL     1       8.411  12.324  22.221  0.00  0.00    +0.000 C 
ENDBRANCH  10  14
ENDBRANCH   2   8
ENDBRANCH   1   3
BRANCH   1  16
ATOM     16  O   UNL     1       7.597   6.630  16.616  0.00  0.00    +0.000 OA
BRANCH  16  17
ATOM     17  C   UNL     1       7.122   5.454  17.109  0.00  0.00    +0.000 C 
ATOM     18  O   UNL     1       7.684   4.381  17.056  0.00  0.00    +0.000 OA
BRANCH  17  19
ATOM     19  C   UNL     1       5.702   5.639  17.661  0.00  0.00    +0.000 C 
BRANCH  19  20
ATOM     20  N   UNL     1       5.210   4.471  18.379  0.00  0.00    +0.000 N 
ATOM     21  C   UNL     1       4.138   3.749  17.912  0.00  0.00    +0.000 C 
ATOM     22  O   UNL     1       3.580   4.069  16.858  0.00  0.00    +0.000 OA
ATOM     23  H   UNL     1       5.635   4.243  19.268  0.00  0.00    +0.000 HD
BRANCH  21  24
ATOM     24  C   UNL     1       3.748   2.486  18.707  0.00  0.00    +0.000 C 
ATOM     25  C   UNL     1       3.716   2.669  20.232  0.00  0.00    +0.000 C 
ATOM     26  C   UNL     1       2.572   3.584  20.673  0.00  0.00    +0.000 C 
ATOM     27  C   UNL     1       1.220   3.066  20.185  0.00  0.00    +0.000 C 
ATOM     28  C   UNL     1       1.218   2.832  18.679  0.00  0.00    +0.000 C 
ATOM     29  C   UNL     1       2.382   1.935  18.253  0.00  0.00    +0.000 C 
ENDBRANCH  21  24
ENDBRANCH  19  20
ENDBRANCH  17  19
ENDBRANCH  16  17
ENDBRANCH   1  16
TORSDOF 9
ENDMDL
MODEL 2
REMARK VINA RESULT:      -7.6      1.317      1.541
REMARK  Name = 
REMARK  11 active torsions:
REMARK  status: ('A' for Active; 'I' for Inactive)
REMARK    1  A    between atoms: C_1  and  O_2
REMARK    2  A    between atoms: O_2  and  C_3
REMARK    3  A    between atoms: C_5  and  N_6
REMARK    4  A    between atoms: C_7  and  C_9
REMARK    5  A    between atoms: C_9  and  O_10
REMARK    6  A    between atoms: O_10  and  C_11
REMARK    7  A    between atoms: C_11  and  C_13
REMARK    8  A    between atoms: C_13  and  N_14
REMARK    9  A    between atoms: C_15  and  C_17
REMARK   10  A    between atoms: C_24  and  O_25
REMARK   11  A    between atoms: O_25  and  C_26
REMARK                            x       y       z     vdW  Elec       q    Type
REMARK                         _______ _______ _______ _____ _____    ______ ____
ROOT
ATOM      1  C   UNL     1       7.763   7.094  18.016  0.00  0.00    +0.000 C 
ENDROOT
BRANCH   1   3
ATOM      2  N   UNL     1       8.998   8.991  19.027  0.00  0.00    +0.000 N 
ATOM      3  C   UNL     1       8.074   8.590  18.067  0.00  0.00    +0.000 C 
ATOM      4  O   UNL     1       7.523   9.336  17.258  0.00  0.00    +0.000 OA
ATOM      5  H   UNL     1       9.484   8.254  19.539  0.00  0.00    +0.000 HD
BRANCH   2   8
ATOM      6  C   UNL     1      10.013  12.583  18.560  0.00  0.00    +0.000 A 
ATOM      7  C   UNL     1       9.828  11.219  18.294  0.00  0.00    +0.000 A 
ATOM      8  C   UNL     1       9.381  10.338  19.289  0.00  0.00    +0.000 A 
ATOM      9  C   UNL     1       9.238  10.842  20.590  0.00  0.00    +0.000 A 
ATOM     10  C   UNL     1       9.447  12.201  20.872  0.00  0.00    +0.000 A 
ATOM     11  C   UNL     1       9.829  13.065  19.851  0.00  0.00    +0.000 A 
BRANCH   6  13
ATOM     12  C   UNL     1      11.667  13.178  16.975  0.00  0.00    +0.000 C 
ATOM     13  O   UNL     1      10.353  13.381  17.496  0.00  0.00    +0.000 OA
ENDBRANCH   6  13
BRANCH  10  14
ATOM     14  O   UNL     1       9.206  12.577  22.167  0.00  0.00    +0.000 OA
ATOM     15  C   UNL     1       8.248  11.802  22.882  0.00  0.00    +0.000 C 
ENDBRANCH  10  14
ENDBRANCH   2   8
ENDBRANCH   1   3
BRANCH   1  16
ATOM     16  O   UNL     1       7.664   6.572  16.691  0.00  0.00    +0.000 OA
BRANCH  16  17
ATOM     17  C   UNL     1       6.458   6.056  16.328  0.00  0.00    +0.000 C 
ATOM     18  O   UNL     1       6.076   5.868  15.193  0.00  0.00    +0.000 OA
BRANCH  17  19
ATOM     19  C   UNL     1       5.577   5.835  17.564  0.00  0.00    +0.000 C 
BRANCH  19  20
ATOM     20  N   UNL     1       4.306   5.194  17.255  0.00  0.00    +0.000 N 
ATOM     21  C   UNL     1       3.977   3.971  17.790  0.00  0.00    +0.000 C 
ATOM     22  O   UNL     1       4.751   3.398  18.561  0.00  0.00    +0.000 OA
ATOM     23  H   UNL     1       3.697   5.642  16.582  0.00  0.00    +0.000 HD
BRANCH  21  24
ATOM     24  C   UNL     1       2.575   3.420  17.459  0.00  0.00    +0.000 C 
ATOM     25  C   UNL     1       2.256   2.054  18.084  0.00  0.00    +0.000 C 
ATOM     26  C   UNL     1       2.119   2.139  19.605  0.00  0.00    +0.000 C 
ATOM     27  C   UNL     1       1.058   3.157  20.016  0.00  0.00    +0.000 C 
ATOM     28  C   UNL     1       1.313   4.521  19.387  0.00  0.00    +0.000 C 
ATOM     29  C   UNL     1       1.470   4.414  17.869  0.00  0.00    +0.000 C 
ENDBRANCH  21  24
ENDBRANCH  19  20
ENDBRANCH  17  19
ENDBRANCH  16  17
ENDBRANCH   1  16
TORSDOF 9
ENDMDL
MODEL 3
REMARK VINA RESULT:      -7.6      1.498      1.979
REMARK  Name = 
REMARK  11 active torsions:
REMARK  status: ('A' for Active; 'I' for Inactive)
REMARK    1  A    between atoms: C_1  and  O_2
REMARK    2  A    between atoms: O_2  and  C_3
REMARK    3  A    between atoms: C_5  and  N_6
REMARK    4  A    between atoms: C_7  and  C_9
REMARK    5  A    between atoms: C_9  and  O_10
REMARK    6  A    between atoms: O_10  and  C_11
REMARK    7  A    between atoms: C_11  and  C_13
REMARK    8  A    between atoms: C_13  and  N_14
REMARK    9  A    between atoms: C_15  and  C_17
REMARK   10  A    between atoms: C_24  and  O_25
REMARK   11  A    between atoms: O_25  and  C_26
REMARK                            x       y       z     vdW  Elec       q    Type
REMARK                         _______ _______ _______ _____ _____    ______ ____
ROOT
ATOM      1  C   UNL     1       7.692   7.758  17.629  0.00  0.00    +0.000 C 
ENDROOT
BRANCH   1   3
ATOM      2  N   UNL     1       9.108   9.229  19.035  0.00  0.00    +0.000 N 
ATOM      3  C   UNL     1       8.142   9.162  18.037  0.00  0.00    +0.000 C 
ATOM      4  O   UNL     1       7.654  10.130  17.455  0.00  0.00    +0.000 OA
ATOM      5  H   UNL     1       9.528   8.348  19.334  0.00  0.00    +0.000 HD
BRANCH   2   8
ATOM      6  C   UNL     1      10.841  12.539  19.468  0.00  0.00    +0.000 A 
ATOM      7  C   UNL     1      10.514  11.279  18.948  0.00  0.00    +0.000 A 
ATOM      8  C   UNL     1       9.616  10.429  19.609  0.00  0.00    +0.000 A 
ATOM      9  C   UNL     1       9.147  10.830  20.869  0.00  0.00    +0.000 A 
ATOM     10  C   UNL     1       9.490  12.078  21.411  0.00  0.00    +0.000 A 
ATOM     11  C   UNL     1      10.333  12.928  20.703  0.00  0.00    +0.000 A 
BRANCH   6  13
ATOM     12  C   UNL     1      12.330  14.378  19.398  0.00  0.00    +0.000 C 
ATOM     13  O   UNL     1      11.647  13.338  18.696  0.00  0.00    +0.000 OA
ENDBRANCH   6  13
BRANCH  10  14
ATOM     14  O   UNL     1       8.909  12.377  22.614  0.00  0.00    +0.000 OA
ATOM     15  C   UNL     1       8.217  13.620  22.690  0.00  0.00    +0.000 C 
ENDBRANCH  10  14
ENDBRANCH   2   8
ENDBRANCH   1   3
BRANCH   1  16
ATOM     16  O   UNL     1       7.952   6.761  18.618  0.00  0.00    +0.000 OA
BRANCH  16  17
ATOM     17  C   UNL     1       7.519   5.501  18.340  0.00  0.00    +0.000 C 
ATOM     18  O   UNL     1       7.831   4.837  17.375  0.00  0.00    +0.000 OA
BRANCH  17  19
ATOM     19  C   UNL     1       6.475   5.054  19.372  0.00  0.00    +0.000 C 
BRANCH  19  20
ATOM     20  N   UNL     1       5.141   5.574  19.101  0.00  0.00    +0.000 N 
ATOM     21  C   UNL     1       4.189   4.801  18.480  0.00  0.00    +0.000 C 
ATOM     22  O   UNL     1       4.444   3.638  18.155  0.00  0.00    +0.000 OA
ATOM     23  H   UNL     1       4.953   6.544  19.321  0.00  0.00    +0.000 HD
BRANCH  21  24
ATOM     24  C   UNL     1       2.787   5.423  18.312  0.00  0.00    +0.000 C 
ATOM     25  C   UNL     1       1.706   4.449  17.821  0.00  0.00    +0.000 C 
ATOM     26  C   UNL     1       1.367   3.394  18.875  0.00  0.00    +0.000 C 
ATOM     27  C   UNL     1       0.929   4.035  20.190  0.00  0.00    +0.000 C 
ATOM     28  C   UNL     1       1.957   5.039  20.696  0.00  0.00    +0.000 C 
ATOM     29  C   UNL     1       2.301   6.073  19.623  0.00  0.00    +0.000 C 
ENDBRANCH  21  24
ENDBRANCH  19  20
ENDBRANCH  17  19
ENDBRANCH  16  17
ENDBRANCH   1  16
TORSDOF 9
ENDMDL
MODEL 4
REMARK VINA RESULT:      -7.5      1.328      1.448
REMARK  Name = 
REMARK  11 active torsions:
REMARK  status: ('A' for Active; 'I' for Inactive)
REMARK    1  A    between atoms: C_1  and  O_2
REMARK    2  A    between atoms: O_2  and  C_3
REMARK    3  A    between atoms: C_5  and  N_6
REMARK    4  A    between atoms: C_7  and  C_9
REMARK    5  A    between atoms: C_9  and  O_10
REMARK    6  A    between atoms: O_10  and  C_11
REMARK    7  A    between atoms: C_11  and  C_13
REMARK    8  A    between atoms: C_13  and  N_14
REMARK    9  A    between atoms: C_15  and  C_17
REMARK   10  A    between atoms: C_24  and  O_25
REMARK   11  A    between atoms: O_25  and  C_26
REMARK                            x       y       z     vdW  Elec       q    Type
REMARK                         _______ _______ _______ _____ _____    ______ ____
ROOT
ATOM      1  C   UNL     1       7.717   7.811  17.648  0.00  0.00    +0.000 C 
ENDROOT
BRANCH   1   3
ATOM      2  N   UNL     1       9.106   9.323  19.037  0.00  0.00    +0.000 N 
ATOM      3  C   UNL     1       8.159   9.226  18.023  0.00  0.00    +0.000 C 
ATOM      4  O   UNL     1       7.683  10.177  17.403  0.00  0.00    +0.000 OA
ATOM      5  H   UNL     1       9.520   8.452  19.370  0.00  0.00    +0.000 HD
BRANCH   2   8
ATOM      6  C   UNL     1      10.687  12.720  19.369  0.00  0.00    +0.000 A 
ATOM      7  C   UNL     1      10.379  11.453  18.856  0.00  0.00    +0.000 A 
ATOM      8  C   UNL     1       9.604  10.540  19.585  0.00  0.00    +0.000 A 
ATOM      9  C   UNL     1       9.247  10.890  20.895  0.00  0.00    +0.000 A 
ATOM     10  C   UNL     1       9.574  12.146  21.430  0.00  0.00    +0.000 A 
ATOM     11  C   UNL     1      10.290  13.056  20.659  0.00  0.00    +0.000 A 
BRANCH   6  13
ATOM     12  C   UNL     1      12.303  14.439  19.182  0.00  0.00    +0.000 C 
ATOM     13  O   UNL     1      11.363  13.578  18.538  0.00  0.00    +0.000 OA
ENDBRANCH   6  13
BRANCH  10  14
ATOM     14  O   UNL     1       9.105  12.389  22.693  0.00  0.00    +0.000 OA
ATOM     15  C   UNL     1       8.011  13.295  22.798  0.00  0.00    +0.000 C 
ENDBRANCH  10  14
ENDBRANCH   2   8
ENDBRANCH   1   3
BRANCH   1  16
ATOM     16  O   UNL     1       8.105   6.817  18.598  0.00  0.00    +0.000 OA
BRANCH  16  17
ATOM     17  C   UNL     1       7.622   5.561  18.396  0.00  0.00    +0.000 C 
ATOM     18  O   UNL     1       7.945   4.809  17.502  0.00  0.00    +0.000 OA
BRANCH  17  19
ATOM     19  C   UNL     1       6.510   5.246  19.405  0.00  0.00    +0.000 C 
BRANCH  19  20
ATOM     20  N   UNL     1       5.701   4.096  19.026  0.00  0.00    +0.000 N 
ATOM     21  C   UNL     1       4.573   4.242  18.254  0.00  0.00    +0.000 C 
ATOM     22  O   UNL     1       4.234   5.358  17.850  0.00  0.00    +0.000 OA
ATOM     23  H   UNL     1       5.952   3.191  19.402  0.00  0.00    +0.000 HD
BRANCH  21  24
ATOM     24  C   UNL     1       3.834   2.951  17.846  0.00  0.00    +0.000 C 
ATOM     25  C   UNL     1       3.564   1.972  18.998  0.00  0.00    +0.000 C 
ATOM     26  C   UNL     1       2.537   2.525  19.987  0.00  0.00    +0.000 C 
ATOM     27  C   UNL     1       1.225   2.881  19.292  0.00  0.00    +0.000 C 
ATOM     28  C   UNL     1       1.450   3.823  18.116  0.00  0.00    +0.000 C 
ATOM     29  C   UNL     1       2.496   3.266  17.149  0.00  0.00    +0.000 C 
ENDBRANCH  21  24
ENDBRANCH  19  20
ENDBRANCH  17  19
ENDBRANCH  16  17
ENDBRANCH   1  16
TORSDOF 9
ENDMDL
MODEL 5
REMARK VINA RESULT:      -7.5      1.389      1.637
REMARK  Name = 
REMARK  11 active torsions:
REMARK  status: ('A' for Active; 'I' for Inactive)
REMARK    1  A    between atoms: C_1  and  O_2
REMARK    2  A    between atoms: O_2  and  C_3
REMARK    3  A    between atoms: C_5  and  N_6
REMARK    4  A    between atoms: C_7  and  C_9
REMARK    5  A    between atoms: C_9  and  O_10
REMARK    6  A    between atoms: O_10  and  C_11
REMARK    7  A    between atoms: C_11  and  C_13
REMARK    8  A    between atoms: C_13  and  N_14
REMARK    9  A    between atoms: C_15  and  C_17
REMARK   10  A    between atoms: C_24  and  O_25
REMARK   11  A    between atoms: O_25  and  C_26
REMARK                            x       y       z     vdW  Elec       q    Type
REMARK                         _______ _______ _______ _____ _____    ______ ____
ROOT
ATOM      1  C   UNL     1       7.838   8.161  17.661  0.00  0.00    +0.000 C 
ENDROOT
BRANCH   1   3
ATOM      2  N   UNL     1       9.210   9.536  19.201  0.00  0.00    +0.000 N 
ATOM      3  C   UNL     1       8.358   9.530  18.101  0.00  0.00    +0.000 C 
ATOM      4  O   UNL     1       8.023  10.523  17.457  0.00  0.00    +0.000 OA
ATOM      5  H   UNL     1       9.517   8.630  19.555  0.00  0.00    +0.000 HD
BRANCH   2   8
ATOM      6  C   UNL     1      11.165  12.695  19.789  0.00  0.00    +0.000 A 
ATOM      7  C   UNL     1      10.791  11.456  19.251  0.00  0.00    +0.000 A 
ATOM      8  C   UNL     1       9.752  10.701  19.814  0.00  0.00    +0.000 A 
ATOM      9  C   UNL     1       9.179  11.170  21.006  0.00  0.00    +0.000 A 
ATOM     10  C   UNL     1       9.565  12.396  21.568  0.00  0.00    +0.000 A 
ATOM     11  C   UNL     1      10.555  13.154  20.952  0.00  0.00    +0.000 A 
BRANCH   6  13
ATOM     12  C   UNL     1      12.174  13.162  17.699  0.00  0.00    +0.000 C 
ATOM     13  O   UNL     1      12.121  13.404  19.107  0.00  0.00    +0.000 OA
ENDBRANCH   6  13
BRANCH  10  14
ATOM     14  O   UNL     1       8.878  12.771  22.692  0.00  0.00    +0.000 OA
ATOM     15  C   UNL     1       8.107  11.757  23.329  0.00  0.00    +0.000 C 
ENDBRANCH  10  14
ENDBRANCH   2   8
ENDBRANCH   1   3
BRANCH   1  16
ATOM     16  O   UNL     1       8.206   7.096  18.539  0.00  0.00    +0.000 OA
BRANCH  16  17
ATOM     17  C   UNL     1       7.420   5.986  18.512  0.00  0.00    +0.000 C 
ATOM     18  O   UNL     1       7.700   4.903  18.981  0.00  0.00    +0.000 OA
BRANCH  17  19
ATOM     19  C   UNL     1       6.147   6.250  17.698  0.00  0.00    +0.000 C 
BRANCH  19  20
ATOM     20  N   UNL     1       5.293   5.077  17.571  0.00  0.00    +0.000 N 
ATOM     21  C   UNL     1       3.924   5.184  17.618  0.00  0.00    +0.000 C 
ATOM     22  O   UNL     1       3.388   6.289  17.751  0.00  0.00    +0.000 OA
ATOM     23  H   UNL     1       5.736   4.169  17.515  0.00  0.00    +0.000 HD
BRANCH  21  24
ATOM     24  C   UNL     1       3.114   3.890  17.394  0.00  0.00    +0.000 C 
ATOM     25  C   UNL     1       3.706   2.638  18.058  0.00  0.00    +0.000 C 
ATOM     26  C   UNL     1       3.620   2.706  19.583  0.00  0.00    +0.000 C 
ATOM     27  C   UNL     1       2.182   2.911  20.055  0.00  0.00    +0.000 C 
ATOM     28  C   UNL     1       1.541   4.124  19.391  0.00  0.00    +0.000 C 
ATOM     29  C   UNL     1       1.656   4.052  17.868  0.00  0.00    +0.000 C 
ENDBRANCH  21  24
ENDBRANCH  19  20
ENDBRANCH  17  19
ENDBRANCH  16  17
ENDBRANCH   1  16
TORSDOF 9
ENDMDL
MODEL 6
REMARK VINA RESULT:      -7.5      1.208      2.711
REMARK  Name = 
REMARK  11 active torsions:
REMARK  status: ('A' for Active; 'I' for Inactive)
REMARK    1  A    between atoms: C_1  and  O_2
REMARK    2  A    between atoms: O_2  and  C_3
REMARK    3  A    between atoms: C_5  and  N_6
REMARK    4  A    between atoms: C_7  and  C_9
REMARK    5  A    between atoms: C_9  and  O_10
REMARK    6  A    between atoms: O_10  and  C_11
REMARK    7  A    between atoms: C_11  and  C_13
REMARK    8  A    between atoms: C_13  and  N_14
REMARK    9  A    between atoms: C_15  and  C_17
REMARK   10  A    between atoms: C_24  and  O_25
REMARK   11  A    between atoms: O_25  and  C_26
REMARK                            x       y       z     vdW  Elec       q    Type
REMARK                         _______ _______ _______ _____ _____    ______ ____
ROOT
ATOM      1  C   UNL     1       7.874   7.321  18.100  0.00  0.00    +0.000 C 
ENDROOT
BRANCH   1   3
ATOM      2  N   UNL     1       9.163   9.158  19.154  0.00  0.00    +0.000 N 
ATOM      3  C   UNL     1       8.205   8.810  18.206  0.00  0.00    +0.000 C 
ATOM      4  O   UNL     1       7.640   9.596  17.447  0.00  0.00    +0.000 OA
ATOM      5  H   UNL     1       9.654   8.394  19.619  0.00  0.00    +0.000 HD
BRANCH   2   8
ATOM      6  C   UNL     1       9.843  12.357  21.013  0.00  0.00    +0.000 A 
ATOM      7  C   UNL     1       9.267  11.125  20.674  0.00  0.00    +0.000 A 
ATOM      8  C   UNL     1       9.569  10.488  19.462  0.00  0.00    +0.000 A 
ATOM      9  C   UNL     1      10.374  11.180  18.546  0.00  0.00    +0.000 A 
ATOM     10  C   UNL     1      10.934  12.427  18.863  0.00  0.00    +0.000 A 
ATOM     11  C   UNL     1      10.668  13.005  20.100  0.00  0.00    +0.000 A 
BRANCH   6  13
ATOM     12  C   UNL     1       8.791  14.048  22.292  0.00  0.00    +0.000 C 
ATOM     13  O   UNL     1       9.565  12.847  22.263  0.00  0.00    +0.000 OA
ENDBRANCH   6  13
BRANCH  10  14
ATOM     14  O   UNL     1      11.758  12.963  17.910  0.00  0.00    +0.000 OA
ATOM     15  C   UNL     1      11.184  13.957  17.066  0.00  0.00    +0.000 C 
ENDBRANCH  10  14
ENDBRANCH   2   8
ENDBRANCH   1   3
BRANCH   1  16
ATOM     16  O   UNL     1       7.614   6.883  16.765  0.00  0.00    +0.000 OA
BRANCH  16  17
ATOM     17  C   UNL     1       6.403   6.306  16.539  0.00  0.00    +0.000 C 
ATOM     18  O   UNL     1       5.886   6.136  15.456  0.00  0.00    +0.000 OA
BRANCH  17  19
ATOM     19  C   UNL     1       5.705   5.987  17.868  0.00  0.00    +0.000 C 
BRANCH  19  20
ATOM     20  N   UNL     1       4.875   4.792  17.807  0.00  0.00    +0.000 N 
ATOM     21  C   UNL     1       3.503   4.876  17.839  0.00  0.00    +0.000 C 
ATOM     22  O   UNL     1       2.946   5.977  17.902  0.00  0.00    +0.000 OA
ATOM     23  H   UNL     1       5.334   3.890  17.808  0.00  0.00    +0.000 HD
BRANCH  21  24
ATOM     24  C   UNL     1       2.719   3.556  17.689  0.00  0.00    +0.000 C 
ATOM     25  C   UNL     1       3.352   2.348  18.395  0.00  0.00    +0.000 C 
ATOM     26  C   UNL     1       3.295   2.481  19.917  0.00  0.00    +0.000 C 
ATOM     27  C   UNL     1       1.862   2.676  20.409  0.00  0.00    +0.000 C 
ATOM     28  C   UNL     1       1.180   3.844  19.706  0.00  0.00    +0.000 C 
ATOM     29  C   UNL     1       1.267   3.706  18.185  0.00  0.00    +0.000 C 
ENDBRANCH  21  24
ENDBRANCH  19  20
ENDBRANCH  17  19
ENDBRANCH  16  17
ENDBRANCH   1  16
TORSDOF 9
ENDMDL
MODEL 7
REMARK VINA RESULT:      -7.4      4.751      9.005
REMARK  Name = 
REMARK  11 active torsions:
REMARK  status: ('A' for Active; 'I' for Inactive)
REMARK    1  A    between atoms: C_1  and  O_2
REMARK    2  A    between atoms: O_2  and  C_3
REMARK    3  A    between atoms: C_5  and  N_6
REMARK    4  A    between atoms: C_7  and  C_9
REMARK    5  A    between atoms: C_9  and  O_10
REMARK    6  A    between atoms: O_10  and  C_11
REMARK    7  A    between atoms: C_11  and  C_13
REMARK    8  A    between atoms: C_13  and  N_14
REMARK    9  A    between atoms: C_15  and  C_17
REMARK   10  A    between atoms: C_24  and  O_25
REMARK   11  A    between atoms: O_25  and  C_26
REMARK                            x       y       z     vdW  Elec       q    Type
REMARK                         _______ _______ _______ _____ _____    ______ ____
ROOT
ATOM      1  C   UNL     1       7.230   5.320  15.709  0.00  0.00    +0.000 C 
ENDROOT
BRANCH   1   3
ATOM      2  N   UNL     1       6.481   4.359  13.550  0.00  0.00    +0.000 N 
ATOM      3  C   UNL     1       6.468   4.242  14.936  0.00  0.00    +0.000 C 
ATOM      4  O   UNL     1       5.922   3.338  15.567  0.00  0.00    +0.000 OA
ATOM      5  H   UNL     1       7.088   5.075  13.150  0.00  0.00    +0.000 HD
BRANCH   2   8
ATOM      6  C   UNL     1       3.981   3.056  11.059  0.00  0.00    +0.000 A 
ATOM      7  C   UNL     1       4.541   3.831  12.084  0.00  0.00    +0.000 A 
ATOM      8  C   UNL     1       5.784   3.507  12.646  0.00  0.00    +0.000 A 
ATOM      9  C   UNL     1       6.394   2.313  12.233  0.00  0.00    +0.000 A 
ATOM     10  C   UNL     1       5.828   1.515  11.227  0.00  0.00    +0.000 A 
ATOM     11  C   UNL     1       4.625   1.896  10.643  0.00  0.00    +0.000 A 
BRANCH   6  13
ATOM     12  C   UNL     1       2.967   4.435   9.424  0.00  0.00    +0.000 C 
ATOM     13  O   UNL     1       2.812   3.514  10.505  0.00  0.00    +0.000 OA
ENDBRANCH   6  13
BRANCH  10  14
ATOM     14  O   UNL     1       6.559   0.415  10.866  0.00  0.00    +0.000 OA
ATOM     15  C   UNL     1       6.072  -0.844  11.322  0.00  0.00    +0.000 C 
ENDBRANCH  10  14
ENDBRANCH   2   8
ENDBRANCH   1   3
BRANCH   1  16
ATOM     16  O   UNL     1       7.655   4.904  17.008  0.00  0.00    +0.000 OA
BRANCH  16  17
ATOM     17  C   UNL     1       7.282   5.694  18.051  0.00  0.00    +0.000 C 
ATOM     18  O   UNL     1       7.633   6.840  18.238  0.00  0.00    +0.000 OA
BRANCH  17  19
ATOM     19  C   UNL     1       6.426   4.899  19.046  0.00  0.00    +0.000 C 
BRANCH  19  20
ATOM     20  N   UNL     1       5.353   4.150  18.407  0.00  0.00    +0.000 N 
ATOM     21  C   UNL     1       4.118   4.715  18.195  0.00  0.00    +0.000 C 
ATOM     22  O   UNL     1       3.901   5.884  18.529  0.00  0.00    +0.000 OA
ATOM     23  H   UNL     1       5.518   3.177  18.183  0.00  0.00    +0.000 HD
BRANCH  21  24
ATOM     24  C   UNL     1       3.079   3.860  17.441  0.00  0.00    +0.000 C 
ATOM     25  C   UNL     1       3.207   2.346  17.665  0.00  0.00    +0.000 C 
ATOM     26  C   UNL     1       2.841   1.948  19.096  0.00  0.00    +0.000 C 
ATOM     27  C   UNL     1       1.432   2.408  19.463  0.00  0.00    +0.000 C 
ATOM     28  C   UNL     1       1.248   3.901  19.220  0.00  0.00    +0.000 C 
ATOM     29  C   UNL     1       1.639   4.286  17.793  0.00  0.00    +0.000 C 
ENDBRANCH  21  24
ENDBRANCH  19  20
ENDBRANCH  17  19
ENDBRANCH  16  17
ENDBRANCH   1  16
TORSDOF 9
ENDMDL
MODEL 8
REMARK VINA RESULT:      -7.3      5.411      8.045
REMARK  Name = 
REMARK  11 active torsions:
REMARK  status: ('A' for Active; 'I' for Inactive)
REMARK    1  A    between atoms: C_1  and  O_2
REMARK    2  A    between atoms: O_2  and  C_3
REMARK    3  A    between atoms: C_5  and  N_6
REMARK    4  A    between atoms: C_7  and  C_9
REMARK    5  A    between atoms: C_9  and  O_10
REMARK    6  A    between atoms: O_10  and  C_11
REMARK    7  A    between atoms: C_11  and  C_13
REMARK    8  A    between atoms: C_13  and  N_14
REMARK    9  A    between atoms: C_15  and  C_17
REMARK   10  A    between atoms: C_24  and  O_25
REMARK   11  A    between atoms: O_25  and  C_26
REMARK                            x       y       z     vdW  Elec       q    Type
REMARK                         _______ _______ _______ _____ _____    ______ ____
ROOT
ATOM      1  C   UNL     1       2.524   3.542  21.496  0.00  0.00    +0.000 C 
ENDROOT
BRANCH   1   3
ATOM      2  N   UNL     1       2.210   5.968  21.092  0.00  0.00    +0.000 N 
ATOM      3  C   UNL     1       1.707   4.686  20.894  0.00  0.00    +0.000 C 
ATOM      4  O   UNL     1       0.689   4.413  20.258  0.00  0.00    +0.000 OA
ATOM      5  H   UNL     1       3.135   6.043  21.515  0.00  0.00    +0.000 HD
BRANCH   2   8
ATOM      6  C   UNL     1       0.127   9.101  21.076  0.00  0.00    +0.000 A 
ATOM      7  C   UNL     1       0.588   7.824  21.428  0.00  0.00    +0.000 A 
ATOM      8  C   UNL     1       1.576   7.173  20.676  0.00  0.00    +0.000 A 
ATOM      9  C   UNL     1       2.004   7.790  19.491  0.00  0.00    +0.000 A 
ATOM     10  C   UNL     1       1.529   9.056  19.114  0.00  0.00    +0.000 A 
ATOM     11  C   UNL     1       0.595   9.705  19.915  0.00  0.00    +0.000 A 
BRANCH   6  13
ATOM     12  C   UNL     1      -0.388  10.990  22.405  0.00  0.00    +0.000 C 
ATOM     13  O   UNL     1      -0.764   9.695  21.933  0.00  0.00    +0.000 OA
ENDBRANCH   6  13
BRANCH  10  14
ATOM     14  O   UNL     1       2.079   9.576  17.974  0.00  0.00    +0.000 OA
ATOM     15  C   UNL     1       2.177  10.996  17.911  0.00  0.00    +0.000 C 
ENDBRANCH  10  14
ENDBRANCH   2   8
ENDBRANCH   1   3
BRANCH   1  16
ATOM     16  O   UNL     1       2.653   2.411  20.634  0.00  0.00    +0.000 OA
BRANCH  16  17
ATOM     17  C   UNL     1       3.860   2.242  20.029  0.00  0.00    +0.000 C 
ATOM     18  O   UNL     1       4.906   1.985  20.585  0.00  0.00    +0.000 OA
BRANCH  17  19
ATOM     19  C   UNL     1       3.750   2.530  18.526  0.00  0.00    +0.000 C 
BRANCH  19  20
ATOM     20  N   UNL     1       4.898   3.254  17.995  0.00  0.00    +0.000 N 
ATOM     21  C   UNL     1       5.013   4.615  18.147  0.00  0.00    +0.000 C 
ATOM     22  O   UNL     1       4.148   5.250  18.757  0.00  0.00    +0.000 OA
ATOM     23  H   UNL     1       5.578   2.738  17.451  0.00  0.00    +0.000 HD
BRANCH  21  24
ATOM     24  C   UNL     1       6.305   5.269  17.616  0.00  0.00    +0.000 C 
ATOM     25  C   UNL     1       7.156   4.370  16.708  0.00  0.00    +0.000 C 
ATOM     26  C   UNL     1       6.467   4.095  15.370  0.00  0.00    +0.000 C 
ATOM     27  C   UNL     1       6.124   5.392  14.640  0.00  0.00    +0.000 C 
ATOM     28  C   UNL     1       5.310   6.333  15.519  0.00  0.00    +0.000 C 
ATOM     29  C   UNL     1       6.001   6.579  16.861  0.00  0.00    +0.000 C 
ENDBRANCH  21  24
ENDBRANCH  19  20
ENDBRANCH  17  19
ENDBRANCH  16  17
ENDBRANCH   1  16
TORSDOF 9
ENDMDL
MODEL 9
REMARK VINA RESULT:      -7.3      5.550      7.349
REMARK  Name = 
REMARK  11 active torsions:
REMARK  status: ('A' for Active; 'I' for Inactive)
REMARK    1  A    between atoms: C_1  and  O_2
REMARK    2  A    between atoms: O_2  and  C_3
REMARK    3  A    between atoms: C_5  and  N_6
REMARK    4  A    between atoms: C_7  and  C_9
REMARK    5  A    between atoms: C_9  and  O_10
REMARK    6  A    between atoms: O_10  and  C_11
REMARK    7  A    between atoms: C_11  and  C_13
REMARK    8  A    between atoms: C_13  and  N_14
REMARK    9  A    between atoms: C_15  and  C_17
REMARK   10  A    between atoms: C_24  and  O_25
REMARK   11  A    between atoms: O_25  and  C_26
REMARK                            x       y       z     vdW  Elec       q    Type
REMARK                         _______ _______ _______ _____ _____    ______ ____
ROOT
ATOM      1  C   UNL     1       3.013   6.791  18.495  0.00  0.00    +0.000 C 
ENDROOT
BRANCH   1   3
ATOM      2  N   UNL     1       1.559   8.554  19.455  0.00  0.00    +0.000 N 
ATOM      3  C   UNL     1       2.296   8.134  18.352  0.00  0.00    +0.000 C 
ATOM      4  O   UNL     1       2.430   8.767  17.305  0.00  0.00    +0.000 OA
ATOM      5  H   UNL     1       1.646   8.002  20.309  0.00  0.00    +0.000 HD
BRANCH   2   8
ATOM      6  C   UNL     1      -1.024  11.175  18.677  0.00  0.00    +0.000 A 
ATOM      7  C   UNL     1      -0.127  10.113  18.498  0.00  0.00    +0.000 A 
ATOM      8  C   UNL     1       0.765   9.735  19.512  0.00  0.00    +0.000 A 
ATOM      9  C   UNL     1       0.813  10.530  20.666  0.00  0.00    +0.000 A 
ATOM     10  C   UNL     1      -0.061  11.613  20.844  0.00  0.00    +0.000 A 
ATOM     11  C   UNL     1      -0.979  11.925  19.847  0.00  0.00    +0.000 A 
BRANCH   6  13
ATOM     12  C   UNL     1      -2.262  10.257  16.880  0.00  0.00    +0.000 C 
ATOM     13  O   UNL     1      -1.925  11.401  17.667  0.00  0.00    +0.000 OA
ENDBRANCH   6  13
BRANCH  10  14
ATOM     14  O   UNL     1       0.041  12.263  22.045  0.00  0.00    +0.000 OA
ATOM     15  C   UNL     1      -1.178  12.498  22.742  0.00  0.00    +0.000 C 
ENDBRANCH  10  14
ENDBRANCH   2   8
ENDBRANCH   1   3
BRANCH   1  16
ATOM     16  O   UNL     1       3.547   6.291  17.267  0.00  0.00    +0.000 OA
BRANCH  16  17
ATOM     17  C   UNL     1       4.861   5.939  17.275  0.00  0.00    +0.000 C 
ATOM     18  O   UNL     1       5.796   6.679  17.497  0.00  0.00    +0.000 OA
BRANCH  17  19
ATOM     19  C   UNL     1       5.026   4.474  16.851  0.00  0.00    +0.000 C 
BRANCH  19  20
ATOM     20  N   UNL     1       4.113   3.572  17.540  0.00  0.00    +0.000 N 
ATOM     21  C   UNL     1       4.324   3.208  18.848  0.00  0.00    +0.000 C 
ATOM     22  O   UNL     1       5.290   3.657  19.473  0.00  0.00    +0.000 OA
ATOM     23  H   UNL     1       3.353   3.165  17.009  0.00  0.00    +0.000 HD
BRANCH  21  24
ATOM     24  C   UNL     1       3.255   2.311  19.505  0.00  0.00    +0.000 C 
ATOM     25  C   UNL     1       2.918   2.670  20.960  0.00  0.00    +0.000 C 
ATOM     26  C   UNL     1       2.191   4.012  21.063  0.00  0.00    +0.000 C 
ATOM     27  C   UNL     1       0.919   4.027  20.218  0.00  0.00    +0.000 C 
ATOM     28  C   UNL     1       1.201   3.639  18.771  0.00  0.00    +0.000 C 
ATOM     29  C   UNL     1       1.948   2.306  18.688  0.00  0.00    +0.000 C 
ENDBRANCH  21  24
ENDBRANCH  19  20
ENDBRANCH  17  19
ENDBRANCH  16  17
ENDBRANCH   1  16
TORSDOF 9
ENDMDL
