MODEL 1
REMARK VINA RESULT:      -8.1      0.000      0.000
REMARK  Name = 
REMARK  10 active torsions:
REMARK  status: ('A' for Active; 'I' for Inactive)
REMARK    1  A    between atoms: C_1  and  O_2
REMARK    2  A    between atoms: O_2  and  C_3
REMARK    3  A    between atoms: C_8  and  O_9
REMARK    4  A    between atoms: C_15  and  C_16
REMARK    5  A    between atoms: C_18  and  O_19
REMARK    6  A    between atoms: O_19  and  C_20
REMARK    7  A    between atoms: C_21  and  O_22
REMARK    8  A    between atoms: O_22  and  C_23
REMARK    9  A    between atoms: C_24  and  O_25
REMARK   10  A    between atoms: O_25  and  C_26
REMARK                            x       y       z     vdW  Elec       q    Type
REMARK                         _______ _______ _______ _____ _____    ______ ____
ROOT
ATOM      1  C   UNL     1       1.704   8.754  19.178  0.00  0.00    +0.000 A 
ATOM      2  C   UNL     1       2.021   8.464  17.853  0.00  0.00    +0.000 A 
ATOM      3  C   UNL     1       2.485   7.195  17.507  0.00  0.00    +0.000 A 
ATOM      4  C   UNL     1       2.665   6.203  18.486  0.00  0.00    +0.000 A 
ATOM      5  C   UNL     1       2.325   6.469  19.819  0.00  0.00    +0.000 A 
ATOM      6  C   UNL     1       1.872   7.759  20.155  0.00  0.00    +0.000 A 
ATOM      7  N   UNL     1       2.427   5.521  20.856  0.00  0.00    +0.000 N 
ATOM      8  C   UNL     1       2.258   4.166  20.743  0.00  0.00    +0.000 C 
ATOM      9  O   UNL     1       2.335   3.460  21.750  0.00  0.00    +0.000 OA
ATOM     10  C   UNL     1       1.869   3.614  19.383  0.00  0.00    +0.000 C 
ATOM     11  N   UNL     1       2.987   3.758  18.458  0.00  0.00    +0.000 NA
ATOM     12  C   UNL     1       3.342   4.938  18.076  0.00  0.00    +0.000 C 
ATOM     13  H   UNL     1       2.557   5.836  21.809  0.00  0.00    +0.000 HD
ENDROOT
BRANCH  12  14
ATOM     14  C   UNL     1       4.512   5.015  17.139  0.00  0.00    +0.000 A 
ATOM     15  C   UNL     1       5.506   5.954  17.399  0.00  0.00    +0.000 A 
ATOM     16  C   UNL     1       6.629   6.038  16.576  0.00  0.00    +0.000 A 
ATOM     17  C   UNL     1       6.787   5.136  15.499  0.00  0.00    +0.000 A 
ATOM     18  C   UNL     1       5.767   4.204  15.214  0.00  0.00    +0.000 A 
ATOM     19  C   UNL     1       4.625   4.173  16.028  0.00  0.00    +0.000 A 
BRANCH  16  20
ATOM     20  O   UNL     1       7.647   6.934  16.811  0.00  0.00    +0.000 OA
ATOM     21  C   UNL     1       7.915   7.232  18.180  0.00  0.00    +0.000 C 
ENDBRANCH  16  20
BRANCH  17  22
ATOM     22  O   UNL     1       7.931   5.323  14.756  0.00  0.00    +0.000 OA
ATOM     23  C   UNL     1       7.783   5.596  13.369  0.00  0.00    +0.000 C 
ENDBRANCH  17  22
BRANCH  18  24
ATOM     24  O   UNL     1       5.919   3.374  14.134  0.00  0.00    +0.000 OA
ATOM     25  C   UNL     1       5.125   3.608  12.978  0.00  0.00    +0.000 C 
ENDBRANCH  18  24
ENDBRANCH  12  14
BRANCH   1  27
ATOM     26  C   UNL     1      -0.044  10.342  19.081  0.00  0.00    +0.000 C 
ATOM     27  O   UNL     1       1.233   9.972  19.594  0.00  0.00    +0.000 OA
ENDBRANCH   1  27
BRANCH   6  28
ATOM     28  O   UNL     1       1.514   8.050  21.451  0.00  0.00    +0.000 OA
ATOM     29  H   UNL     1       0.888   8.792  21.428  0.00  0.00    +0.000 HD
ENDBRANCH   6  28
TORSDOF 6
ENDMDL
MODEL 2
REMARK VINA RESULT:      -8.1      0.300      2.454
REMARK  Name = 
REMARK  10 active torsions:
REMARK  status: ('A' for Active; 'I' for Inactive)
REMARK    1  A    between atoms: C_1  and  O_2
REMARK    2  A    between atoms: O_2  and  C_3
REMARK    3  A    between atoms: C_8  and  O_9
REMARK    4  A    between atoms: C_15  and  C_16
REMARK    5  A    between atoms: C_18  and  O_19
REMARK    6  A    between atoms: O_19  and  C_20
REMARK    7  A    between atoms: C_21  and  O_22
REMARK    8  A    between atoms: O_22  and  C_23
REMARK    9  A    between atoms: C_24  and  O_25
REMARK   10  A    between atoms: O_25  and  C_26
REMARK                            x       y       z     vdW  Elec       q    Type
REMARK                         _______ _______ _______ _____ _____    ______ ____
ROOT
ATOM      1  C   UNL     1       1.735   8.735  19.164  0.00  0.00    +0.000 A 
ATOM      2  C   UNL     1       2.123   8.411  17.866  0.00  0.00    +0.000 A 
ATOM      3  C   UNL     1       2.620   7.139  17.581  0.00  0.00    +0.000 A 
ATOM      4  C   UNL     1       2.763   6.179  18.597  0.00  0.00    +0.000 A 
ATOM      5  C   UNL     1       2.352   6.478  19.903  0.00  0.00    +0.000 A 
ATOM      6  C   UNL     1       1.866   7.771  20.177  0.00  0.00    +0.000 A 
ATOM      7  N   UNL     1       2.413   5.562  20.971  0.00  0.00    +0.000 N 
ATOM      8  C   UNL     1       2.267   4.202  20.889  0.00  0.00    +0.000 C 
ATOM      9  O   UNL     1       2.302   3.527  21.920  0.00  0.00    +0.000 OA
ATOM     10  C   UNL     1       1.955   3.606  19.529  0.00  0.00    +0.000 C 
ATOM     11  N   UNL     1       3.116   3.738  18.657  0.00  0.00    +0.000 NA
ATOM     12  C   UNL     1       3.475   4.912  18.259  0.00  0.00    +0.000 C 
ATOM     13  H   UNL     1       2.490   5.906  21.919  0.00  0.00    +0.000 HD
ENDROOT
BRANCH  12  14
ATOM     14  C   UNL     1       4.691   4.978  17.381  0.00  0.00    +0.000 A 
ATOM     15  C   UNL     1       4.779   4.096  16.308  0.00  0.00    +0.000 A 
ATOM     16  C   UNL     1       5.872   4.145  15.443  0.00  0.00    +0.000 A 
ATOM     17  C   UNL     1       6.877   5.124  15.626  0.00  0.00    +0.000 A 
ATOM     18  C   UNL     1       6.806   5.999  16.730  0.00  0.00    +0.000 A 
ATOM     19  C   UNL     1       5.720   5.896  17.612  0.00  0.00    +0.000 A 
BRANCH  16  20
ATOM     20  O   UNL     1       5.988   3.310  14.356  0.00  0.00    +0.000 OA
ATOM     21  C   UNL     1       5.134   3.600  13.250  0.00  0.00    +0.000 C 
ENDBRANCH  16  20
BRANCH  17  22
ATOM     22  O   UNL     1       7.907   5.066  14.714  0.00  0.00    +0.000 OA
ATOM     23  C   UNL     1       7.743   5.758  13.483  0.00  0.00    +0.000 C 
ENDBRANCH  17  22
BRANCH  18  24
ATOM     24  O   UNL     1       7.817   6.905  16.915  0.00  0.00    +0.000 OA
ATOM     25  C   UNL     1       7.516   8.142  17.549  0.00  0.00    +0.000 C 
ENDBRANCH  18  24
ENDBRANCH  12  14
BRANCH   1  27
ATOM     26  C   UNL     1      -0.047  10.274  18.969  0.00  0.00    +0.000 C 
ATOM     27  O   UNL     1       1.228   9.957  19.519  0.00  0.00    +0.000 OA
ENDBRANCH   1  27
BRANCH   6  28
ATOM     28  O   UNL     1       1.439   8.093  21.444  0.00  0.00    +0.000 OA
ATOM     29  H   UNL     1       1.720   9.004  21.630  0.00  0.00    +0.000 HD
ENDBRANCH   6  28
TORSDOF 6
ENDMDL
MODEL 3
REMARK VINA RESULT:      -7.2      1.037      2.719
REMARK  Name = 
REMARK  10 active torsions:
REMARK  status: ('A' for Active; 'I' for Inactive)
REMARK    1  A    between atoms: C_1  and  O_2
REMARK    2  A    between atoms: O_2  and  C_3
REMARK    3  A    between atoms: C_8  and  O_9
REMARK    4  A    between atoms: C_15  and  C_16
REMARK    5  A    between atoms: C_18  and  O_19
REMARK    6  A    between atoms: O_19  and  C_20
REMARK    7  A    between atoms: C_21  and  O_22
REMARK    8  A    between atoms: O_22  and  C_23
REMARK    9  A    between atoms: C_24  and  O_25
REMARK   10  A    between atoms: O_25  and  C_26
REMARK                            x       y       z     vdW  Elec       q    Type
REMARK                         _______ _______ _______ _____ _____    ______ ____
ROOT
ATOM      1  C   UNL     1       2.140   7.769  19.580  0.00  0.00    +0.000 A 
ATOM      2  C   UNL     1       2.565   7.903  18.260  0.00  0.00    +0.000 A 
ATOM      3  C   UNL     1       2.945   6.778  17.530  0.00  0.00    +0.000 A 
ATOM      4  C   UNL     1       2.934   5.501  18.118  0.00  0.00    +0.000 A 
ATOM      5  C   UNL     1       2.485   5.344  19.435  0.00  0.00    +0.000 A 
ATOM      6  C   UNL     1       2.118   6.492  20.164  0.00  0.00    +0.000 A 
ATOM      7  N   UNL     1       2.394   4.099  20.087  0.00  0.00    +0.000 N 
ATOM      8  C   UNL     1       2.116   2.891  19.504  0.00  0.00    +0.000 C 
ATOM      9  O   UNL     1       2.026   1.885  20.210  0.00  0.00    +0.000 OA
ATOM     10  C   UNL     1       1.821   2.876  18.016  0.00  0.00    +0.000 C 
ATOM     11  N   UNL     1       3.036   3.186  17.271  0.00  0.00    +0.000 NA
ATOM     12  C   UNL     1       3.533   4.375  17.344  0.00  0.00    +0.000 C 
ATOM     13  H   UNL     1       2.453   4.059  21.097  0.00  0.00    +0.000 HD
ENDROOT
BRANCH  12  14
ATOM     14  C   UNL     1       4.795   4.621  16.569  0.00  0.00    +0.000 A 
ATOM     15  C   UNL     1       4.963   3.964  15.354  0.00  0.00    +0.000 A 
ATOM     16  C   UNL     1       6.103   4.188  14.582  0.00  0.00    +0.000 A 
ATOM     17  C   UNL     1       7.075   5.123  15.010  0.00  0.00    +0.000 A 
ATOM     18  C   UNL     1       6.923   5.767  16.255  0.00  0.00    +0.000 A 
ATOM     19  C   UNL     1       5.791   5.486  17.035  0.00  0.00    +0.000 A 
BRANCH  16  20
ATOM     20  O   UNL     1       6.298   3.580  13.364  0.00  0.00    +0.000 OA
ATOM     21  C   UNL     1       5.129   3.379  12.571  0.00  0.00    +0.000 C 
ENDBRANCH  16  20
BRANCH  17  22
ATOM     22  O   UNL     1       8.157   5.250  14.169  0.00  0.00    +0.000 OA
ATOM     23  C   UNL     1       7.928   5.781  12.869  0.00  0.00    +0.000 C 
ENDBRANCH  17  22
BRANCH  18  24
ATOM     24  O   UNL     1       7.903   6.630  16.672  0.00  0.00    +0.000 OA
ATOM     25  C   UNL     1       7.557   7.666  17.583  0.00  0.00    +0.000 C 
ENDBRANCH  18  24
ENDBRANCH  12  14
BRANCH   1  27
ATOM     26  C   UNL     1       0.433   9.322  20.089  0.00  0.00    +0.000 C 
ATOM     27  O   UNL     1       1.741   8.825  20.357  0.00  0.00    +0.000 OA
ENDBRANCH   1  27
BRANCH   6  28
ATOM     28  O   UNL     1       1.656   6.372  21.454  0.00  0.00    +0.000 OA
ATOM     29  H   UNL     1       0.714   6.140  21.414  0.00  0.00    +0.000 HD
ENDBRANCH   6  28
TORSDOF 6
ENDMDL
MODEL 4
REMARK VINA RESULT:      -7.0      2.467      7.500
REMARK  Name = 
REMARK  10 active torsions:
REMARK  status: ('A' for Active; 'I' for Inactive)
REMARK    1  A    between atoms: C_1  and  O_2
REMARK    2  A    between atoms: O_2  and  C_3
REMARK    3  A    between atoms: C_8  and  O_9
REMARK    4  A    between atoms: C_15  and  C_16
REMARK    5  A    between atoms: C_18  and  O_19
REMARK    6  A    between atoms: O_19  and  C_20
REMARK    7  A    between atoms: C_21  and  O_22
REMARK    8  A    between atoms: O_22  and  C_23
REMARK    9  A    between atoms: C_24  and  O_25
REMARK   10  A    between atoms: O_25  and  C_26
REMARK                            x       y       z     vdW  Elec       q    Type
REMARK                         _______ _______ _______ _____ _____    ______ ____
ROOT
ATOM      1  C   UNL     1       2.995   3.523  19.574  0.00  0.00    +0.000 A 
ATOM      2  C   UNL     1       1.784   4.163  19.320  0.00  0.00    +0.000 A 
ATOM      3  C   UNL     1       1.771   5.419  18.714  0.00  0.00    +0.000 A 
ATOM      4  C   UNL     1       2.972   6.068  18.377  0.00  0.00    +0.000 A 
ATOM      5  C   UNL     1       4.198   5.427  18.601  0.00  0.00    +0.000 A 
ATOM      6  C   UNL     1       4.194   4.165  19.227  0.00  0.00    +0.000 A 
ATOM      7  N   UNL     1       5.445   5.979  18.251  0.00  0.00    +0.000 N 
ATOM      8  C   UNL     1       5.702   6.808  17.190  0.00  0.00    +0.000 C 
ATOM      9  O   UNL     1       6.857   7.182  16.981  0.00  0.00    +0.000 OA
ATOM     10  C   UNL     1       4.552   7.133  16.254  0.00  0.00    +0.000 C 
ATOM     11  N   UNL     1       3.583   7.978  16.942  0.00  0.00    +0.000 NA
ATOM     12  C   UNL     1       2.890   7.482  17.910  0.00  0.00    +0.000 C 
ATOM     13  H   UNL     1       6.274   5.700  18.758  0.00  0.00    +0.000 HD
ENDROOT
BRANCH  12  14
ATOM     14  C   UNL     1       1.925   8.412  18.588  0.00  0.00    +0.000 A 
ATOM     15  C   UNL     1       1.045   9.143  17.795  0.00  0.00    +0.000 A 
ATOM     16  C   UNL     1       0.107   9.993  18.382  0.00  0.00    +0.000 A 
ATOM     17  C   UNL     1       0.015  10.080  19.790  0.00  0.00    +0.000 A 
ATOM     18  C   UNL     1       0.925   9.365  20.595  0.00  0.00    +0.000 A 
ATOM     19  C   UNL     1       1.891   8.556  19.978  0.00  0.00    +0.000 A 
BRANCH  16  20
ATOM     20  O   UNL     1      -0.798  10.714  17.638  0.00  0.00    +0.000 OA
ATOM     21  C   UNL     1      -1.880   9.972  17.078  0.00  0.00    +0.000 C 
ENDBRANCH  16  20
BRANCH  17  22
ATOM     22  O   UNL     1      -0.942  10.957  20.248  0.00  0.00    +0.000 OA
ATOM     23  C   UNL     1      -0.524  12.268  20.608  0.00  0.00    +0.000 C 
ENDBRANCH  17  22
BRANCH  18  24
ATOM     24  O   UNL     1       0.849   9.506  21.957  0.00  0.00    +0.000 OA
ATOM     25  C   UNL     1      -0.269   8.951  22.638  0.00  0.00    +0.000 C 
ENDBRANCH  18  24
ENDBRANCH  12  14
BRANCH   1  27
ATOM     26  C   UNL     1       2.748   2.230  21.538  0.00  0.00    +0.000 C 
ATOM     27  O   UNL     1       3.088   2.285  20.155  0.00  0.00    +0.000 OA
ENDBRANCH   1  27
BRANCH   6  28
ATOM     28  O   UNL     1       5.378   3.500  19.447  0.00  0.00    +0.000 OA
ATOM     29  H   UNL     1       5.183   2.712  19.979  0.00  0.00    +0.000 HD
ENDBRANCH   6  28
TORSDOF 6
ENDMDL
MODEL 5
REMARK VINA RESULT:      -7.0      2.014      7.003
REMARK  Name = 
REMARK  10 active torsions:
REMARK  status: ('A' for Active; 'I' for Inactive)
REMARK    1  A    between atoms: C_1  and  O_2
REMARK    2  A    between atoms: O_2  and  C_3
REMARK    3  A    between atoms: C_8  and  O_9
REMARK    4  A    between atoms: C_15  and  C_16
REMARK    5  A    between atoms: C_18  and  O_19
REMARK    6  A    between atoms: O_19  and  C_20
REMARK    7  A    between atoms: C_21  and  O_22
REMARK    8  A    between atoms: O_22  and  C_23
REMARK    9  A    between atoms: C_24  and  O_25
REMARK   10  A    between atoms: O_25  and  C_26
REMARK                            x       y       z     vdW  Elec       q    Type
REMARK                         _______ _______ _______ _____ _____    ______ ____
ROOT
ATOM      1  C   UNL     1       5.651   4.564  17.893  0.00  0.00    +0.000 A 
ATOM      2  C   UNL     1       5.632   5.548  18.878  0.00  0.00    +0.000 A 
ATOM      3  C   UNL     1       4.464   5.793  19.599  0.00  0.00    +0.000 A 
ATOM      4  C   UNL     1       3.286   5.076  19.326  0.00  0.00    +0.000 A 
ATOM      5  C   UNL     1       3.295   4.063  18.358  0.00  0.00    +0.000 A 
ATOM      6  C   UNL     1       4.479   3.838  17.629  0.00  0.00    +0.000 A 
ATOM      7  N   UNL     1       2.177   3.262  18.054  0.00  0.00    +0.000 N 
ATOM      8  C   UNL     1       1.193   2.870  18.923  0.00  0.00    +0.000 C 
ATOM      9  O   UNL     1       0.293   2.129  18.524  0.00  0.00    +0.000 OA
ATOM     10  C   UNL     1       1.329   3.285  20.377  0.00  0.00    +0.000 C 
ATOM     11  N   UNL     1       1.142   4.726  20.495  0.00  0.00    +0.000 NA
ATOM     12  C   UNL     1       2.031   5.520  19.999  0.00  0.00    +0.000 C 
ATOM     13  H   UNL     1       2.096   2.847  17.134  0.00  0.00    +0.000 HD
ENDROOT
BRANCH  12  14
ATOM     14  C   UNL     1       1.767   6.991  20.138  0.00  0.00    +0.000 A 
ATOM     15  C   UNL     1       1.727   7.767  18.984  0.00  0.00    +0.000 A 
ATOM     16  C   UNL     1       1.450   9.132  19.061  0.00  0.00    +0.000 A 
ATOM     17  C   UNL     1       1.160   9.726  20.311  0.00  0.00    +0.000 A 
ATOM     18  C   UNL     1       1.230   8.949  21.486  0.00  0.00    +0.000 A 
ATOM     19  C   UNL     1       1.559   7.589  21.385  0.00  0.00    +0.000 A 
BRANCH  16  20
ATOM     20  O   UNL     1       1.376   9.931  17.943  0.00  0.00    +0.000 OA
ATOM     21  C   UNL     1       2.451  10.851  17.759  0.00  0.00    +0.000 C 
ENDBRANCH  16  20
BRANCH  17  22
ATOM     22  O   UNL     1       0.910  11.079  20.259  0.00  0.00    +0.000 OA
ATOM     23  C   UNL     1      -0.445  11.501  20.184  0.00  0.00    +0.000 C 
ENDBRANCH  17  22
BRANCH  18  24
ATOM     24  O   UNL     1       0.995   9.559  22.691  0.00  0.00    +0.000 OA
ATOM     25  C   UNL     1      -0.320   9.517  23.231  0.00  0.00    +0.000 C 
ENDBRANCH  18  24
ENDBRANCH  12  14
BRANCH   1  27
ATOM     26  C   UNL     1       7.034   5.135  16.063  0.00  0.00    +0.000 C 
ATOM     27  O   UNL     1       6.763   4.258  17.152  0.00  0.00    +0.000 OA
ENDBRANCH   1  27
BRANCH   6  28
ATOM     28  O   UNL     1       4.527   2.841  16.683  0.00  0.00    +0.000 OA
ATOM     29  H   UNL     1       5.318   2.305  16.854  0.00  0.00    +0.000 HD
ENDBRANCH   6  28
TORSDOF 6
ENDMDL
MODEL 6
REMARK VINA RESULT:      -6.9      1.969      6.781
REMARK  Name = 
REMARK  10 active torsions:
REMARK  status: ('A' for Active; 'I' for Inactive)
REMARK    1  A    between atoms: C_1  and  O_2
REMARK    2  A    between atoms: O_2  and  C_3
REMARK    3  A    between atoms: C_8  and  O_9
REMARK    4  A    between atoms: C_15  and  C_16
REMARK    5  A    between atoms: C_18  and  O_19
REMARK    6  A    between atoms: O_19  and  C_20
REMARK    7  A    between atoms: C_21  and  O_22
REMARK    8  A    between atoms: O_22  and  C_23
REMARK    9  A    between atoms: C_24  and  O_25
REMARK   10  A    between atoms: O_25  and  C_26
REMARK                            x       y       z     vdW  Elec       q    Type
REMARK                         _______ _______ _______ _____ _____    ______ ____
ROOT
ATOM      1  C   UNL     1       5.652   4.531  17.861  0.00  0.00    +0.000 A 
ATOM      2  C   UNL     1       5.630   5.604  18.749  0.00  0.00    +0.000 A 
ATOM      3  C   UNL     1       4.470   5.895  19.466  0.00  0.00    +0.000 A 
ATOM      4  C   UNL     1       3.302   5.135  19.285  0.00  0.00    +0.000 A 
ATOM      5  C   UNL     1       3.314   4.035  18.417  0.00  0.00    +0.000 A 
ATOM      6  C   UNL     1       4.489   3.763  17.690  0.00  0.00    +0.000 A 
ATOM      7  N   UNL     1       2.208   3.189  18.211  0.00  0.00    +0.000 N 
ATOM      8  C   UNL     1       1.247   2.863  19.132  0.00  0.00    +0.000 C 
ATOM      9  O   UNL     1       0.354   2.072  18.823  0.00  0.00    +0.000 OA
ATOM     10  C   UNL     1       1.400   3.417  20.538  0.00  0.00    +0.000 C 
ATOM     11  N   UNL     1       1.186   4.859  20.523  0.00  0.00    +0.000 NA
ATOM     12  C   UNL     1       2.051   5.618  19.937  0.00  0.00    +0.000 C 
ATOM     13  H   UNL     1       2.118   2.687  17.337  0.00  0.00    +0.000 HD
ENDROOT
BRANCH  12  14
ATOM     14  C   UNL     1       1.760   7.090  19.941  0.00  0.00    +0.000 A 
ATOM     15  C   UNL     1       1.433   7.695  21.151  0.00  0.00    +0.000 A 
ATOM     16  C   UNL     1       1.189   9.068  21.210  0.00  0.00    +0.000 A 
ATOM     17  C   UNL     1       1.321   9.861  20.046  0.00  0.00    +0.000 A 
ATOM     18  C   UNL     1       1.621   9.246  18.813  0.00  0.00    +0.000 A 
ATOM     19  C   UNL     1       1.813   7.857  18.772  0.00  0.00    +0.000 A 
BRANCH  16  20
ATOM     20  O   UNL     1       0.888   9.711  22.388  0.00  0.00    +0.000 OA
ATOM     21  C   UNL     1      -0.386   9.413  22.956  0.00  0.00    +0.000 C 
ENDBRANCH  16  20
BRANCH  17  22
ATOM     22  O   UNL     1       1.047  11.198  20.229  0.00  0.00    +0.000 OA
ATOM     23  C   UNL     1      -0.272  11.649  19.951  0.00  0.00    +0.000 C 
ENDBRANCH  17  22
BRANCH  18  24
ATOM     24  O   UNL     1       1.692  10.028  17.690  0.00  0.00    +0.000 OA
ATOM     25  C   UNL     1       2.577  11.142  17.689  0.00  0.00    +0.000 C 
ENDBRANCH  18  24
ENDBRANCH  12  14
BRANCH   1  27
ATOM     26  C   UNL     1       6.979   4.937  15.948  0.00  0.00    +0.000 C 
ATOM     27  O   UNL     1       6.756   4.176  17.131  0.00  0.00    +0.000 OA
ENDBRANCH   1  27
BRANCH   6  28
ATOM     28  O   UNL     1       4.541   2.681  16.841  0.00  0.00    +0.000 OA
ATOM     29  H   UNL     1       3.905   2.021  17.161  0.00  0.00    +0.000 HD
ENDBRANCH   6  28
TORSDOF 6
ENDMDL
MODEL 7
REMARK VINA RESULT:      -6.9      2.514      7.306
REMARK  Name = 
REMARK  10 active torsions:
REMARK  status: ('A' for Active; 'I' for Inactive)
REMARK    1  A    between atoms: C_1  and  O_2
REMARK    2  A    between atoms: O_2  and  C_3
REMARK    3  A    between atoms: C_8  and  O_9
REMARK    4  A    between atoms: C_15  and  C_16
REMARK    5  A    between atoms: C_18  and  O_19
REMARK    6  A    between atoms: O_19  and  C_20
REMARK    7  A    between atoms: C_21  and  O_22
REMARK    8  A    between atoms: O_22  and  C_23
REMARK    9  A    between atoms: C_24  and  O_25
REMARK   10  A    between atoms: O_25  and  C_26
REMARK                            x       y       z     vdW  Elec       q    Type
REMARK                         _______ _______ _______ _____ _____    ______ ____
ROOT
ATOM      1  C   UNL     1       3.257   3.326  19.112  0.00  0.00    +0.000 A 
ATOM      2  C   UNL     1       2.031   3.938  18.857  0.00  0.00    +0.000 A 
ATOM      3  C   UNL     1       1.989   5.245  18.374  0.00  0.00    +0.000 A 
ATOM      4  C   UNL     1       3.173   5.973  18.164  0.00  0.00    +0.000 A 
ATOM      5  C   UNL     1       4.415   5.365  18.389  0.00  0.00    +0.000 A 
ATOM      6  C   UNL     1       4.440   4.049  18.891  0.00  0.00    +0.000 A 
ATOM      7  N   UNL     1       5.650   6.000  18.160  0.00  0.00    +0.000 N 
ATOM      8  C   UNL     1       5.920   6.938  17.198  0.00  0.00    +0.000 C 
ATOM      9  O   UNL     1       7.065   7.379  17.086  0.00  0.00    +0.000 OA
ATOM     10  C   UNL     1       4.803   7.305  16.238  0.00  0.00    +0.000 C 
ATOM     11  N   UNL     1       3.764   8.038  16.951  0.00  0.00    +0.000 NA
ATOM     12  C   UNL     1       3.048   7.421  17.831  0.00  0.00    +0.000 C 
ATOM     13  H   UNL     1       6.467   5.707  18.681  0.00  0.00    +0.000 HD
ENDROOT
BRANCH  12  14
ATOM     14  C   UNL     1       2.010   8.240  18.542  0.00  0.00    +0.000 A 
ATOM     15  C   UNL     1       1.855   8.062  19.914  0.00  0.00    +0.000 A 
ATOM     16  C   UNL     1       0.928   8.826  20.623  0.00  0.00    +0.000 A 
ATOM     17  C   UNL     1       0.172   9.820  19.959  0.00  0.00    +0.000 A 
ATOM     18  C   UNL     1       0.304   9.980  18.564  0.00  0.00    +0.000 A 
ATOM     19  C   UNL     1       1.208   9.165  17.866  0.00  0.00    +0.000 A 
BRANCH  16  20
ATOM     20  O   UNL     1       0.760   8.702  21.983  0.00  0.00    +0.000 OA
ATOM     21  C   UNL     1       1.802   9.242  22.794  0.00  0.00    +0.000 C 
ENDBRANCH  16  20
BRANCH  17  22
ATOM     22  O   UNL     1      -0.714  10.500  20.763  0.00  0.00    +0.000 OA
ATOM     23  C   UNL     1      -0.363  11.817  21.170  0.00  0.00    +0.000 C 
ENDBRANCH  17  22
BRANCH  18  24
ATOM     24  O   UNL     1      -0.477  10.914  17.934  0.00  0.00    +0.000 OA
ATOM     25  C   UNL     1      -1.763  10.526  17.468  0.00  0.00    +0.000 C 
ENDBRANCH  18  24
ENDBRANCH  12  14
BRANCH   1  27
ATOM     26  C   UNL     1       3.688   1.062  18.591  0.00  0.00    +0.000 C 
ATOM     27  O   UNL     1       3.379   2.042  19.576  0.00  0.00    +0.000 OA
ENDBRANCH   1  27
BRANCH   6  28
ATOM     28  O   UNL     1       5.641   3.416  19.108  0.00  0.00    +0.000 OA
ATOM     29  H   UNL     1       6.235   4.045  19.550  0.00  0.00    +0.000 HD
ENDBRANCH   6  28
TORSDOF 6
ENDMDL
MODEL 8
REMARK VINA RESULT:      -6.8      1.564      6.657
REMARK  Name = 
REMARK  10 active torsions:
REMARK  status: ('A' for Active; 'I' for Inactive)
REMARK    1  A    between atoms: C_1  and  O_2
REMARK    2  A    between atoms: O_2  and  C_3
REMARK    3  A    between atoms: C_8  and  O_9
REMARK    4  A    between atoms: C_15  and  C_16
REMARK    5  A    between atoms: C_18  and  O_19
REMARK    6  A    between atoms: O_19  and  C_20
REMARK    7  A    between atoms: C_21  and  O_22
REMARK    8  A    between atoms: O_22  and  C_23
REMARK    9  A    between atoms: C_24  and  O_25
REMARK   10  A    between atoms: O_25  and  C_26
REMARK                            x       y       z     vdW  Elec       q    Type
REMARK                         _______ _______ _______ _____ _____    ______ ____
ROOT
ATOM      1  C   UNL     1       6.470   5.251  16.662  0.00  0.00    +0.000 A 
ATOM      2  C   UNL     1       6.292   6.346  17.505  0.00  0.00    +0.000 A 
ATOM      3  C   UNL     1       5.260   6.347  18.442  0.00  0.00    +0.000 A 
ATOM      4  C   UNL     1       4.370   5.264  18.533  0.00  0.00    +0.000 A 
ATOM      5  C   UNL     1       4.549   4.143  17.712  0.00  0.00    +0.000 A 
ATOM      6  C   UNL     1       5.588   4.163  16.760  0.00  0.00    +0.000 A 
ATOM      7  N   UNL     1       3.737   2.994  17.768  0.00  0.00    +0.000 N 
ATOM      8  C   UNL     1       3.118   2.485  18.879  0.00  0.00    +0.000 C 
ATOM      9  O   UNL     1       2.469   1.442  18.786  0.00  0.00    +0.000 OA
ATOM     10  C   UNL     1       3.363   3.182  20.205  0.00  0.00    +0.000 C 
ATOM     11  N   UNL     1       2.720   4.491  20.196  0.00  0.00    +0.000 NA
ATOM     12  C   UNL     1       3.181   5.414  19.421  0.00  0.00    +0.000 C 
ATOM     13  H   UNL     1       3.638   2.412  16.946  0.00  0.00    +0.000 HD
ENDROOT
BRANCH  12  14
ATOM     14  C   UNL     1       2.460   6.731  19.447  0.00  0.00    +0.000 A 
ATOM     15  C   UNL     1       1.717   7.055  20.578  0.00  0.00    +0.000 A 
ATOM     16  C   UNL     1       1.059   8.282  20.662  0.00  0.00    +0.000 A 
ATOM     17  C   UNL     1       1.184   9.226  19.615  0.00  0.00    +0.000 A 
ATOM     18  C   UNL     1       1.910   8.888  18.455  0.00  0.00    +0.000 A 
ATOM     19  C   UNL     1       2.521   7.627  18.375  0.00  0.00    +0.000 A 
BRANCH  16  20
ATOM     20  O   UNL     1       0.335   8.654  21.771  0.00  0.00    +0.000 OA
ATOM     21  C   UNL     1       1.072   9.277  22.820  0.00  0.00    +0.000 C 
ENDBRANCH  16  20
BRANCH  17  22
ATOM     22  O   UNL     1       0.483  10.394  19.810  0.00  0.00    +0.000 OA
ATOM     23  C   UNL     1      -0.820  10.488  19.249  0.00  0.00    +0.000 C 
ENDBRANCH  17  22
BRANCH  18  24
ATOM     24  O   UNL     1       1.974   9.799  17.432  0.00  0.00    +0.000 OA
ATOM     25  C   UNL     1       2.544  11.076  17.692  0.00  0.00    +0.000 C 
ENDBRANCH  18  24
ENDBRANCH  12  14
BRANCH   1  27
ATOM     26  C   UNL     1       7.032   5.137  14.369  0.00  0.00    +0.000 C 
ATOM     27  O   UNL     1       7.467   5.172  15.725  0.00  0.00    +0.000 OA
ENDBRANCH   1  27
BRANCH   6  28
ATOM     28  O   UNL     1       5.803   3.073  15.950  0.00  0.00    +0.000 OA
ATOM     29  H   UNL     1       5.611   3.339  15.035  0.00  0.00    +0.000 HD
ENDBRANCH   6  28
TORSDOF 6
ENDMDL
MODEL 9
REMARK VINA RESULT:      -6.8      2.334      7.234
REMARK  Name = 
REMARK  10 active torsions:
REMARK  status: ('A' for Active; 'I' for Inactive)
REMARK    1  A    between atoms: C_1  and  O_2
REMARK    2  A    between atoms: O_2  and  C_3
REMARK    3  A    between atoms: C_8  and  O_9
REMARK    4  A    between atoms: C_15  and  C_16
REMARK    5  A    between atoms: C_18  and  O_19
REMARK    6  A    between atoms: O_19  and  C_20
REMARK    7  A    between atoms: C_21  and  O_22
REMARK    8  A    between atoms: O_22  and  C_23
REMARK    9  A    between atoms: C_24  and  O_25
REMARK   10  A    between atoms: O_25  and  C_26
REMARK                            x       y       z     vdW  Elec       q    Type
REMARK                         _______ _______ _______ _____ _____    ______ ____
ROOT
ATOM      1  C   UNL     1       2.975   3.570  19.645  0.00  0.00    +0.000 A 
ATOM      2  C   UNL     1       1.818   4.314  19.422  0.00  0.00    +0.000 A 
ATOM      3  C   UNL     1       1.894   5.549  18.781  0.00  0.00    +0.000 A 
ATOM      4  C   UNL     1       3.133   6.075  18.376  0.00  0.00    +0.000 A 
ATOM      5  C   UNL     1       4.303   5.329  18.567  0.00  0.00    +0.000 A 
ATOM      6  C   UNL     1       4.211   4.090  19.229  0.00  0.00    +0.000 A 
ATOM      7  N   UNL     1       5.579   5.755  18.150  0.00  0.00    +0.000 N 
ATOM      8  C   UNL     1       5.864   6.529  17.056  0.00  0.00    +0.000 C 
ATOM      9  O   UNL     1       7.038   6.789  16.787  0.00  0.00    +0.000 OA
ATOM     10  C   UNL     1       4.709   6.936  16.158  0.00  0.00    +0.000 C 
ATOM     11  N   UNL     1       3.853   7.884  16.861  0.00  0.00    +0.000 NA
ATOM     12  C   UNL     1       3.160   7.479  17.872  0.00  0.00    +0.000 C 
ATOM     13  H   UNL     1       6.401   5.412  18.630  0.00  0.00    +0.000 HD
ENDROOT
BRANCH  12  14
ATOM     14  C   UNL     1       2.315   8.511  18.561  0.00  0.00    +0.000 A 
ATOM     15  C   UNL     1       2.229   9.779  17.994  0.00  0.00    +0.000 A 
ATOM     16  C   UNL     1       1.428  10.760  18.580  0.00  0.00    +0.000 A 
ATOM     17  C   UNL     1       0.662  10.456  19.729  0.00  0.00    +0.000 A 
ATOM     18  C   UNL     1       0.771   9.182  20.323  0.00  0.00    +0.000 A 
ATOM     19  C   UNL     1       1.622   8.229  19.742  0.00  0.00    +0.000 A 
BRANCH  16  20
ATOM     20  O   UNL     1       1.294  12.018  18.040  0.00  0.00    +0.000 OA
ATOM     21  C   UNL     1       2.403  12.897  18.217  0.00  0.00    +0.000 C 
ENDBRANCH  16  20
BRANCH  17  22
ATOM     22  O   UNL     1      -0.081  11.507  20.218  0.00  0.00    +0.000 OA
ATOM     23  C   UNL     1      -1.458  11.566  19.867  0.00  0.00    +0.000 C 
ENDBRANCH  17  22
BRANCH  18  24
ATOM     24  O   UNL     1       0.058   8.926  21.465  0.00  0.00    +0.000 OA
ATOM     25  C   UNL     1       0.602   9.334  22.715  0.00  0.00    +0.000 C 
ENDBRANCH  18  24
ENDBRANCH  12  14
BRANCH   1  27
ATOM     26  C   UNL     1       2.473   2.323  21.588  0.00  0.00    +0.000 C 
ATOM     27  O   UNL     1       2.979   2.344  20.257  0.00  0.00    +0.000 OA
ENDBRANCH   1  27
BRANCH   6  28
ATOM     28  O   UNL     1       5.338   3.324  19.419  0.00  0.00    +0.000 OA
ATOM     29  H   UNL     1       5.944   3.822  19.990  0.00  0.00    +0.000 HD
ENDBRANCH   6  28
TORSDOF 6
ENDMDL
