MODEL 1
REMARK VINA RESULT:      -7.3      0.000      0.000
REMARK  Name = 
REMARK  8 active torsions:
REMARK  status: ('A' for Active; 'I' for Inactive)
REMARK    1  A    between atoms: C_1  and  C_2
REMARK    2  A    between atoms: N_6  and  C_7
REMARK    3  A    between atoms: C_7  and  C_8
REMARK    4  A    between atoms: C_8  and  C_9
REMARK    5  A    between atoms: C_9  and  C_10
REMARK    6  A    between atoms: C_10  and  C_11
REMARK    7  A    between atoms: C_11  and  O_12
REMARK    8  A    between atoms: O_12  and  C_13
REMARK                            x       y       z     vdW  Elec       q    Type
REMARK                         _______ _______ _______ _____ _____    ______ ____
ROOT
ATOM      1  O   UNL     1       5.782   6.050  17.092  0.00  0.00    +0.000 OA
ENDROOT
BRANCH   1   2
ATOM      2  C   UNL     1       4.993   5.160  17.771  0.00  0.00    +0.000 A 
ATOM      3  C   UNL     1       5.619   4.441  18.794  0.00  0.00    +0.000 A 
ATOM      4  C   UNL     1       4.897   3.515  19.554  0.00  0.00    +0.000 A 
ATOM      5  C   UNL     1       3.548   3.299  19.279  0.00  0.00    +0.000 A 
ATOM      6  O   UNL     1       2.873   2.388  20.055  0.00  0.00    +0.000 OA
ATOM      7  C   UNL     1       1.539   2.183  19.783  0.00  0.00    +0.000 A 
ATOM      8  C   UNL     1       0.828   2.781  18.824  0.00  0.00    +0.000 A 
ATOM      9  C   UNL     1       1.507   3.758  17.957  0.00  0.00    +0.000 A 
ATOM     10  O   UNL     1       0.906   4.334  17.063  0.00  0.00    +0.000 OA
ATOM     11  C   UNL     1       2.932   3.997  18.242  0.00  0.00    +0.000 A 
ATOM     12  C   UNL     1       3.649   4.919  17.482  0.00  0.00    +0.000 A 
ENDBRANCH   1   2
BRANCH   1  13
ATOM     13  C   UNL     1       6.346   7.071  17.919  0.00  0.00    +0.000 C 
BRANCH  13  14
ATOM     14  C   UNL     1       7.628   7.581  17.281  0.00  0.00    +0.000 C 
BRANCH  14  15
ATOM     15  C   UNL     1       7.866   9.027  17.705  0.00  0.00    +0.000 C 
BRANCH  15  16
ATOM     16  C   UNL     1       8.905   9.120  18.819  0.00  0.00    +0.000 C 
BRANCH  16  17
ATOM     17  C   UNL     1       9.248  10.575  19.170  0.00  0.00    +0.000 C 
BRANCH  17  23
ATOM     18  C   UNL     1      11.900  11.741  19.361  0.00  0.00    +0.000 C 
ATOM     19  C   UNL     1      11.207  11.595  18.002  0.00  0.00    +0.000 C 
ATOM     20  C   UNL     1      11.315  12.889  17.196  0.00  0.00    +0.000 C 
ATOM     21  C   UNL     1      10.081  13.659  17.619  0.00  0.00    +0.000 C 
ATOM     22  C   UNL     1       9.030  12.577  17.758  0.00  0.00    +0.000 C 
ATOM     23  N   UNL     1       9.758  11.333  18.031  0.00  0.00    +0.000 NA
ENDBRANCH  17  23
ENDBRANCH  16  17
ENDBRANCH  15  16
ENDBRANCH  14  15
ENDBRANCH  13  14
ENDBRANCH   1  13
TORSDOF 7
ENDMDL
MODEL 2
REMARK VINA RESULT:      -7.3      1.756      2.534
REMARK  Name = 
REMARK  8 active torsions:
REMARK  status: ('A' for Active; 'I' for Inactive)
REMARK    1  A    between atoms: C_1  and  C_2
REMARK    2  A    between atoms: N_6  and  C_7
REMARK    3  A    between atoms: C_7  and  C_8
REMARK    4  A    between atoms: C_8  and  C_9
REMARK    5  A    between atoms: C_9  and  C_10
REMARK    6  A    between atoms: C_10  and  C_11
REMARK    7  A    between atoms: C_11  and  O_12
REMARK    8  A    between atoms: O_12  and  C_13
REMARK                            x       y       z     vdW  Elec       q    Type
REMARK                         _______ _______ _______ _____ _____    ______ ____
ROOT
ATOM      1  O   UNL     1       7.728   6.863  16.855  0.00  0.00    +0.000 OA
ENDROOT
BRANCH   1   2
ATOM      2  C   UNL     1       6.622   6.056  16.902  0.00  0.00    +0.000 A 
ATOM      3  C   UNL     1       6.756   4.796  16.313  0.00  0.00    +0.000 A 
ATOM      4  C   UNL     1       5.687   3.894  16.318  0.00  0.00    +0.000 A 
ATOM      5  C   UNL     1       4.477   4.261  16.902  0.00  0.00    +0.000 A 
ATOM      6  O   UNL     1       3.455   3.342  16.894  0.00  0.00    +0.000 OA
ATOM      7  C   UNL     1       2.264   3.708  17.478  0.00  0.00    +0.000 A 
ATOM      8  C   UNL     1       1.994   4.883  18.051  0.00  0.00    +0.000 A 
ATOM      9  C   UNL     1       3.052   5.907  18.077  0.00  0.00    +0.000 A 
ATOM     10  O   UNL     1       2.859   7.001  18.587  0.00  0.00    +0.000 OA
ATOM     11  C   UNL     1       4.337   5.528  17.466  0.00  0.00    +0.000 A 
ATOM     12  C   UNL     1       5.398   6.429  17.461  0.00  0.00    +0.000 A 
ENDBRANCH   1   2
BRANCH   1  13
ATOM     13  C   UNL     1       7.487   8.201  17.295  0.00  0.00    +0.000 C 
BRANCH  13  14
ATOM     14  C   UNL     1       8.518   8.576  18.349  0.00  0.00    +0.000 C 
BRANCH  14  15
ATOM     15  C   UNL     1       8.747  10.083  18.321  0.00  0.00    +0.000 C 
BRANCH  15  16
ATOM     16  C   UNL     1       9.592  10.544  19.505  0.00  0.00    +0.000 C 
BRANCH  16  17
ATOM     17  C   UNL     1      10.699  11.520  19.082  0.00  0.00    +0.000 C 
BRANCH  17  23
ATOM     18  C   UNL     1      11.377  13.231  16.836  0.00  0.00    +0.000 C 
ATOM     19  C   UNL     1      10.303  13.654  17.844  0.00  0.00    +0.000 C 
ATOM     20  C   UNL     1      10.509  15.104  18.280  0.00  0.00    +0.000 C 
ATOM     21  C   UNL     1      11.425  14.973  19.478  0.00  0.00    +0.000 C 
ATOM     22  C   UNL     1      10.922  13.718  20.162  0.00  0.00    +0.000 C 
ATOM     23  N   UNL     1      10.274  12.917  19.118  0.00  0.00    +0.000 NA
ENDBRANCH  17  23
ENDBRANCH  16  17
ENDBRANCH  15  16
ENDBRANCH  14  15
ENDBRANCH  13  14
ENDBRANCH   1  13
TORSDOF 7
ENDMDL
MODEL 3
REMARK VINA RESULT:      -7.3      1.418      2.017
REMARK  Name = 
REMARK  8 active torsions:
REMARK  status: ('A' for Active; 'I' for Inactive)
REMARK    1  A    between atoms: C_1  and  C_2
REMARK    2  A    between atoms: N_6  and  C_7
REMARK    3  A    between atoms: C_7  and  C_8
REMARK    4  A    between atoms: C_8  and  C_9
REMARK    5  A    between atoms: C_9  and  C_10
REMARK    6  A    between atoms: C_10  and  C_11
REMARK    7  A    between atoms: C_11  and  O_12
REMARK    8  A    between atoms: O_12  and  C_13
REMARK                            x       y       z     vdW  Elec       q    Type
REMARK                         _______ _______ _______ _____ _____    ______ ____
ROOT
ATOM      1  O   UNL     1       5.317   6.738  16.667  0.00  0.00    +0.000 OA
ENDROOT
BRANCH   1   2
ATOM      2  C   UNL     1       4.319   6.112  17.368  0.00  0.00    +0.000 A 
ATOM      3  C   UNL     1       3.433   6.947  18.054  0.00  0.00    +0.000 A 
ATOM      4  C   UNL     1       2.374   6.405  18.790  0.00  0.00    +0.000 A 
ATOM      5  C   UNL     1       2.211   5.023  18.849  0.00  0.00    +0.000 A 
ATOM      6  O   UNL     1       1.152   4.533  19.575  0.00  0.00    +0.000 OA
ATOM      7  C   UNL     1       0.993   3.167  19.625  0.00  0.00    +0.000 A 
ATOM      8  C   UNL     1       1.776   2.258  19.040  0.00  0.00    +0.000 A 
ATOM      9  C   UNL     1       2.931   2.731  18.259  0.00  0.00    +0.000 A 
ATOM     10  O   UNL     1       3.683   1.944  17.704  0.00  0.00    +0.000 OA
ATOM     11  C   UNL     1       3.110   4.191  18.186  0.00  0.00    +0.000 A 
ATOM     12  C   UNL     1       4.167   4.727  17.454  0.00  0.00    +0.000 A 
ENDBRANCH   1   2
BRANCH   1  13
ATOM     13  C   UNL     1       6.543   6.004  16.625  0.00  0.00    +0.000 C 
BRANCH  13  14
ATOM     14  C   UNL     1       7.526   6.614  17.612  0.00  0.00    +0.000 C 
BRANCH  14  15
ATOM     15  C   UNL     1       7.497   8.133  17.484  0.00  0.00    +0.000 C 
BRANCH  15  16
ATOM     16  C   UNL     1       8.592   8.787  18.320  0.00  0.00    +0.000 C 
BRANCH  16  17
ATOM     17  C   UNL     1       8.567  10.319  18.212  0.00  0.00    +0.000 C 
BRANCH  17  23
ATOM     18  C   UNL     1       9.270  11.154  20.903  0.00  0.00    +0.000 C 
ATOM     19  C   UNL     1      10.349  11.005  19.824  0.00  0.00    +0.000 C 
ATOM     20  C   UNL     1      11.277  12.219  19.815  0.00  0.00    +0.000 C 
ATOM     21  C   UNL     1      10.595  13.163  18.847  0.00  0.00    +0.000 C 
ATOM     22  C   UNL     1      10.050  12.233  17.783  0.00  0.00    +0.000 C 
ATOM     23  N   UNL     1       9.876  10.929  18.432  0.00  0.00    +0.000 NA
ENDBRANCH  17  23
ENDBRANCH  16  17
ENDBRANCH  15  16
ENDBRANCH  14  15
ENDBRANCH  13  14
ENDBRANCH   1  13
TORSDOF 7
ENDMDL
MODEL 4
REMARK VINA RESULT:      -7.3      0.950      1.538
REMARK  Name = 
REMARK  8 active torsions:
REMARK  status: ('A' for Active; 'I' for Inactive)
REMARK    1  A    between atoms: C_1  and  C_2
REMARK    2  A    between atoms: N_6  and  C_7
REMARK    3  A    between atoms: C_7  and  C_8
REMARK    4  A    between atoms: C_8  and  C_9
REMARK    5  A    between atoms: C_9  and  C_10
REMARK    6  A    between atoms: C_10  and  C_11
REMARK    7  A    between atoms: C_11  and  O_12
REMARK    8  A    between atoms: O_12  and  C_13
REMARK                            x       y       z     vdW  Elec       q    Type
REMARK                         _______ _______ _______ _____ _____    ______ ____
ROOT
ATOM      1  O   UNL     1       5.492   6.889  17.468  0.00  0.00    +0.000 OA
ENDROOT
BRANCH   1   2
ATOM      2  C   UNL     1       4.878   5.765  17.956  0.00  0.00    +0.000 A 
ATOM      3  C   UNL     1       5.652   4.959  18.796  0.00  0.00    +0.000 A 
ATOM      4  C   UNL     1       5.113   3.795  19.354  0.00  0.00    +0.000 A 
ATOM      5  C   UNL     1       3.801   3.432  19.059  0.00  0.00    +0.000 A 
ATOM      6  O   UNL     1       3.307   2.286  19.636  0.00  0.00    +0.000 OA
ATOM      7  C   UNL     1       2.009   1.935  19.345  0.00  0.00    +0.000 A 
ATOM      8  C   UNL     1       1.172   2.598  18.543  0.00  0.00    +0.000 A 
ATOM      9  C   UNL     1       1.655   3.826  17.892  0.00  0.00    +0.000 A 
ATOM     10  O   UNL     1       0.933   4.472  17.146  0.00  0.00    +0.000 OA
ATOM     11  C   UNL     1       3.040   4.222  18.201  0.00  0.00    +0.000 A 
ATOM     12  C   UNL     1       3.574   5.381  17.641  0.00  0.00    +0.000 A 
ENDBRANCH   1   2
BRANCH   1  13
ATOM     13  C   UNL     1       6.830   6.667  17.016  0.00  0.00    +0.000 C 
BRANCH  13  14
ATOM     14  C   UNL     1       7.802   7.287  18.007  0.00  0.00    +0.000 C 
BRANCH  14  15
ATOM     15  C   UNL     1       7.951   8.775  17.709  0.00  0.00    +0.000 C 
BRANCH  15  16
ATOM     16  C   UNL     1       8.817   9.472  18.754  0.00  0.00    +0.000 C 
BRANCH  16  17
ATOM     17  C   UNL     1       9.355  10.821  18.255  0.00  0.00    +0.000 C 
BRANCH  17  23
ATOM     18  C   UNL     1       9.050  13.702  18.067  0.00  0.00    +0.000 C 
ATOM     19  C   UNL     1       9.429  13.042  19.397  0.00  0.00    +0.000 C 
ATOM     20  C   UNL     1      10.595  13.778  20.055  0.00  0.00    +0.000 C 
ATOM     21  C   UNL     1      11.808  13.073  19.485  0.00  0.00    +0.000 C 
ATOM     22  C   UNL     1      11.367  11.625  19.417  0.00  0.00    +0.000 C 
ATOM     23  N   UNL     1       9.903  11.649  19.325  0.00  0.00    +0.000 NA
ENDBRANCH  17  23
ENDBRANCH  16  17
ENDBRANCH  15  16
ENDBRANCH  14  15
ENDBRANCH  13  14
ENDBRANCH   1  13
TORSDOF 7
ENDMDL
MODEL 5
REMARK VINA RESULT:      -7.3      1.849      2.532
REMARK  Name = 
REMARK  8 active torsions:
REMARK  status: ('A' for Active; 'I' for Inactive)
REMARK    1  A    between atoms: C_1  and  C_2
REMARK    2  A    between atoms: N_6  and  C_7
REMARK    3  A    between atoms: C_7  and  C_8
REMARK    4  A    between atoms: C_8  and  C_9
REMARK    5  A    between atoms: C_9  and  C_10
REMARK    6  A    between atoms: C_10  and  C_11
REMARK    7  A    between atoms: C_11  and  O_12
REMARK    8  A    between atoms: O_12  and  C_13
REMARK                            x       y       z     vdW  Elec       q    Type
REMARK                         _______ _______ _______ _____ _____    ______ ____
ROOT
ATOM      1  O   UNL     1       7.663   6.685  16.802  0.00  0.00    +0.000 OA
ENDROOT
BRANCH   1   2
ATOM      2  C   UNL     1       6.540   5.901  16.837  0.00  0.00    +0.000 A 
ATOM      3  C   UNL     1       6.602   4.708  16.111  0.00  0.00    +0.000 A 
ATOM      4  C   UNL     1       5.511   3.833  16.093  0.00  0.00    +0.000 A 
ATOM      5  C   UNL     1       4.351   4.160  16.792  0.00  0.00    +0.000 A 
ATOM      6  O   UNL     1       3.306   3.268  16.756  0.00  0.00    +0.000 OA
ATOM      7  C   UNL     1       2.166   3.594  17.454  0.00  0.00    +0.000 A 
ATOM      8  C   UNL     1       1.966   4.707  18.164  0.00  0.00    +0.000 A 
ATOM      9  C   UNL     1       3.050   5.700  18.227  0.00  0.00    +0.000 A 
ATOM     10  O   UNL     1       2.921   6.737  18.860  0.00  0.00    +0.000 OA
ATOM     11  C   UNL     1       4.282   5.362  17.494  0.00  0.00    +0.000 A 
ATOM     12  C   UNL     1       5.366   6.237  17.513  0.00  0.00    +0.000 A 
ENDBRANCH   1   2
BRANCH   1  13
ATOM     13  C   UNL     1       7.867   7.458  17.986  0.00  0.00    +0.000 C 
BRANCH  13  14
ATOM     14  C   UNL     1       8.062   8.917  17.606  0.00  0.00    +0.000 C 
BRANCH  14  15
ATOM     15  C   UNL     1       8.878   9.619  18.686  0.00  0.00    +0.000 C 
BRANCH  15  16
ATOM     16  C   UNL     1       9.311  11.014  18.244  0.00  0.00    +0.000 C 
BRANCH  16  17
ATOM     17  C   UNL     1      10.585  11.480  18.964  0.00  0.00    +0.000 C 
BRANCH  17  23
ATOM     18  C   UNL     1       9.895  12.757  21.479  0.00  0.00    +0.000 C 
ATOM     19  C   UNL     1      10.692  13.514  20.411  0.00  0.00    +0.000 C 
ATOM     20  C   UNL     1      10.118  14.913  20.195  0.00  0.00    +0.000 C 
ATOM     21  C   UNL     1       9.084  14.694  19.110  0.00  0.00    +0.000 C 
ATOM     22  C   UNL     1       9.738  13.663  18.214  0.00  0.00    +0.000 C 
ATOM     23  N   UNL     1      10.689  12.933  19.058  0.00  0.00    +0.000 NA
ENDBRANCH  17  23
ENDBRANCH  16  17
ENDBRANCH  15  16
ENDBRANCH  14  15
ENDBRANCH  13  14
ENDBRANCH   1  13
TORSDOF 7
ENDMDL
MODEL 6
REMARK VINA RESULT:      -7.2      1.239      2.360
REMARK  Name = 
REMARK  8 active torsions:
REMARK  status: ('A' for Active; 'I' for Inactive)
REMARK    1  A    between atoms: C_1  and  C_2
REMARK    2  A    between atoms: N_6  and  C_7
REMARK    3  A    between atoms: C_7  and  C_8
REMARK    4  A    between atoms: C_8  and  C_9
REMARK    5  A    between atoms: C_9  and  C_10
REMARK    6  A    between atoms: C_10  and  C_11
REMARK    7  A    between atoms: C_11  and  O_12
REMARK    8  A    between atoms: O_12  and  C_13
REMARK                            x       y       z     vdW  Elec       q    Type
REMARK                         _______ _______ _______ _____ _____    ______ ____
ROOT
ATOM      1  O   UNL     1       6.968   4.673  18.390  0.00  0.00    +0.000 OA
ENDROOT
BRANCH   1   2
ATOM      2  C   UNL     1       5.664   4.261  18.305  0.00  0.00    +0.000 A 
ATOM      3  C   UNL     1       5.045   4.438  17.064  0.00  0.00    +0.000 A 
ATOM      4  C   UNL     1       3.718   4.041  16.871  0.00  0.00    +0.000 A 
ATOM      5  C   UNL     1       3.005   3.477  17.927  0.00  0.00    +0.000 A 
ATOM      6  O   UNL     1       1.707   3.091  17.693  0.00  0.00    +0.000 OA
ATOM      7  C   UNL     1       1.011   2.530  18.739  0.00  0.00    +0.000 A 
ATOM      8  C   UNL     1       1.471   2.327  19.976  0.00  0.00    +0.000 A 
ATOM      9  C   UNL     1       2.853   2.733  20.282  0.00  0.00    +0.000 A 
ATOM     10  O   UNL     1       3.325   2.573  21.398  0.00  0.00    +0.000 OA
ATOM     11  C   UNL     1       3.616   3.326  19.171  0.00  0.00    +0.000 A 
ATOM     12  C   UNL     1       4.937   3.722  19.367  0.00  0.00    +0.000 A 
ENDBRANCH   1   2
BRANCH   1  13
ATOM     13  C   UNL     1       7.118   6.066  18.671  0.00  0.00    +0.000 C 
BRANCH  13  14
ATOM     14  C   UNL     1       7.600   6.780  17.418  0.00  0.00    +0.000 C 
BRANCH  14  15
ATOM     15  C   UNL     1       7.488   8.288  17.619  0.00  0.00    +0.000 C 
BRANCH  15  16
ATOM     16  C   UNL     1       8.602   8.818  18.517  0.00  0.00    +0.000 C 
BRANCH  16  17
ATOM     17  C   UNL     1       9.091  10.205  18.076  0.00  0.00    +0.000 C 
BRANCH  17  23
ATOM     18  C   UNL     1      10.351  12.788  17.659  0.00  0.00    +0.000 C 
ATOM     19  C   UNL     1       9.296  12.601  18.754  0.00  0.00    +0.000 C 
ATOM     20  C   UNL     1       9.765  13.220  20.070  0.00  0.00    +0.000 C 
ATOM     21  C   UNL     1      10.503  12.081  20.740  0.00  0.00    +0.000 C 
ATOM     22  C   UNL     1       9.673  10.868  20.371  0.00  0.00    +0.000 C 
ATOM     23  N   UNL     1       8.978  11.212  19.127  0.00  0.00    +0.000 NA
ENDBRANCH  17  23
ENDBRANCH  16  17
ENDBRANCH  15  16
ENDBRANCH  14  15
ENDBRANCH  13  14
ENDBRANCH   1  13
TORSDOF 7
ENDMDL
MODEL 7
REMARK VINA RESULT:      -7.2      6.032      9.318
REMARK  Name = 
REMARK  8 active torsions:
REMARK  status: ('A' for Active; 'I' for Inactive)
REMARK    1  A    between atoms: C_1  and  C_2
REMARK    2  A    between atoms: N_6  and  C_7
REMARK    3  A    between atoms: C_7  and  C_8
REMARK    4  A    between atoms: C_8  and  C_9
REMARK    5  A    between atoms: C_9  and  C_10
REMARK    6  A    between atoms: C_10  and  C_11
REMARK    7  A    between atoms: C_11  and  O_12
REMARK    8  A    between atoms: O_12  and  C_13
REMARK                            x       y       z     vdW  Elec       q    Type
REMARK                         _______ _______ _______ _____ _____    ______ ____
ROOT
ATOM      1  O   UNL     1       2.370   7.943  19.338  0.00  0.00    +0.000 OA
ENDROOT
BRANCH   1   2
ATOM      2  C   UNL     1       1.436   8.856  19.751  0.00  0.00    +0.000 A 
ATOM      3  C   UNL     1       0.833   9.617  18.745  0.00  0.00    +0.000 A 
ATOM      4  C   UNL     1      -0.141  10.568  19.064  0.00  0.00    +0.000 A 
ATOM      5  C   UNL     1      -0.503  10.767  20.394  0.00  0.00    +0.000 A 
ATOM      6  O   UNL     1      -1.471  11.705  20.663  0.00  0.00    +0.000 OA
ATOM      7  C   UNL     1      -1.828  11.893  21.979  0.00  0.00    +0.000 A 
ATOM      8  C   UNL     1      -1.318  11.254  23.034  0.00  0.00    +0.000 A 
ATOM      9  C   UNL     1      -0.269  10.247  22.802  0.00  0.00    +0.000 A 
ATOM     10  O   UNL     1       0.235   9.635  23.731  0.00  0.00    +0.000 OA
ATOM     11  C   UNL     1       0.117  10.026  21.398  0.00  0.00    +0.000 A 
ATOM     12  C   UNL     1       1.089   9.079  21.085  0.00  0.00    +0.000 A 
ENDBRANCH   1   2
BRANCH   1  13
ATOM     13  C   UNL     1       2.465   7.816  17.917  0.00  0.00    +0.000 C 
BRANCH  13  14
ATOM     14  C   UNL     1       3.632   6.905  17.572  0.00  0.00    +0.000 C 
BRANCH  14  15
ATOM     15  C   UNL     1       4.033   6.105  18.807  0.00  0.00    +0.000 C 
BRANCH  15  16
ATOM     16  C   UNL     1       4.038   4.605  18.526  0.00  0.00    +0.000 C 
BRANCH  16  17
ATOM     17  C   UNL     1       2.629   4.063  18.250  0.00  0.00    +0.000 C 
BRANCH  17  23
ATOM     18  C   UNL     1       0.987   4.981  20.462  0.00  0.00    +0.000 C 
ATOM     19  C   UNL     1       1.081   3.489  20.126  0.00  0.00    +0.000 C 
ATOM     20  C   UNL     1       1.321   2.662  21.388  0.00  0.00    +0.000 C 
ATOM     21  C   UNL     1       2.831   2.622  21.489  0.00  0.00    +0.000 C 
ATOM     22  C   UNL     1       3.270   2.508  20.043  0.00  0.00    +0.000 C 
ATOM     23  N   UNL     1       2.187   3.086  19.241  0.00  0.00    +0.000 NA
ENDBRANCH  17  23
ENDBRANCH  16  17
ENDBRANCH  15  16
ENDBRANCH  14  15
ENDBRANCH  13  14
ENDBRANCH   1  13
TORSDOF 7
ENDMDL
MODEL 8
REMARK VINA RESULT:      -7.2      1.429      2.075
REMARK  Name = 
REMARK  8 active torsions:
REMARK  status: ('A' for Active; 'I' for Inactive)
REMARK    1  A    between atoms: C_1  and  C_2
REMARK    2  A    between atoms: N_6  and  C_7
REMARK    3  A    between atoms: C_7  and  C_8
REMARK    4  A    between atoms: C_8  and  C_9
REMARK    5  A    between atoms: C_9  and  C_10
REMARK    6  A    between atoms: C_10  and  C_11
REMARK    7  A    between atoms: C_11  and  O_12
REMARK    8  A    between atoms: O_12  and  C_13
REMARK                            x       y       z     vdW  Elec       q    Type
REMARK                         _______ _______ _______ _____ _____    ______ ____
ROOT
ATOM      1  O   UNL     1       5.801   5.513  16.399  0.00  0.00    +0.000 OA
ENDROOT
BRANCH   1   2
ATOM      2  C   UNL     1       4.755   5.256  17.246  0.00  0.00    +0.000 A 
ATOM      3  C   UNL     1       4.147   6.373  17.826  0.00  0.00    +0.000 A 
ATOM      4  C   UNL     1       3.063   6.218  18.697  0.00  0.00    +0.000 A 
ATOM      5  C   UNL     1       2.596   4.940  18.997  0.00  0.00    +0.000 A 
ATOM      6  O   UNL     1       1.524   4.832  19.850  0.00  0.00    +0.000 OA
ATOM      7  C   UNL     1       1.064   3.568  20.138  0.00  0.00    +0.000 A 
ATOM      8  C   UNL     1       1.565   2.420  19.674  0.00  0.00    +0.000 A 
ATOM      9  C   UNL     1       2.722   2.480  18.766  0.00  0.00    +0.000 A 
ATOM     10  O   UNL     1       3.223   1.461  18.313  0.00  0.00    +0.000 OA
ATOM     11  C   UNL     1       3.220   3.826  18.438  0.00  0.00    +0.000 A 
ATOM     12  C   UNL     1       4.301   3.977  17.573  0.00  0.00    +0.000 A 
ENDBRANCH   1   2
BRANCH   1  13
ATOM     13  C   UNL     1       7.050   5.707  17.066  0.00  0.00    +0.000 C 
BRANCH  13  14
ATOM     14  C   UNL     1       7.520   7.136  16.844  0.00  0.00    +0.000 C 
BRANCH  14  15
ATOM     15  C   UNL     1       7.983   7.729  18.171  0.00  0.00    +0.000 C 
BRANCH  15  16
ATOM     16  C   UNL     1       8.200   9.235  18.066  0.00  0.00    +0.000 C 
BRANCH  16  17
ATOM     17  C   UNL     1       9.269   9.736  19.048  0.00  0.00    +0.000 C 
BRANCH  17  23
ATOM     18  C   UNL     1      11.060  11.687  17.855  0.00  0.00    +0.000 C 
ATOM     19  C   UNL     1       9.759  12.132  18.533  0.00  0.00    +0.000 C 
ATOM     20  C   UNL     1      10.012  13.313  19.469  0.00  0.00    +0.000 C 
ATOM     21  C   UNL     1      10.340  12.641  20.786  0.00  0.00    +0.000 C 
ATOM     22  C   UNL     1       9.406  11.449  20.807  0.00  0.00    +0.000 C 
ATOM     23  N   UNL     1       9.104  11.142  19.405  0.00  0.00    +0.000 NA
ENDBRANCH  17  23
ENDBRANCH  16  17
ENDBRANCH  15  16
ENDBRANCH  14  15
ENDBRANCH  13  14
ENDBRANCH   1  13
TORSDOF 7
ENDMDL
MODEL 9
REMARK VINA RESULT:      -7.2      1.429      2.344
REMARK  Name = 
REMARK  8 active torsions:
REMARK  status: ('A' for Active; 'I' for Inactive)
REMARK    1  A    between atoms: C_1  and  C_2
REMARK    2  A    between atoms: N_6  and  C_7
REMARK    3  A    between atoms: C_7  and  C_8
REMARK    4  A    between atoms: C_8  and  C_9
REMARK    5  A    between atoms: C_9  and  C_10
REMARK    6  A    between atoms: C_10  and  C_11
REMARK    7  A    between atoms: C_11  and  O_12
REMARK    8  A    between atoms: O_12  and  C_13
REMARK                            x       y       z     vdW  Elec       q    Type
REMARK                         _______ _______ _______ _____ _____    ______ ____
ROOT
ATOM      1  O   UNL     1       7.171   6.179  17.345  0.00  0.00    +0.000 OA
ENDROOT
BRANCH   1   2
ATOM      2  C   UNL     1       5.929   5.775  17.759  0.00  0.00    +0.000 A 
ATOM      3  C   UNL     1       4.861   6.596  17.384  0.00  0.00    +0.000 A 
ATOM      4  C   UNL     1       3.551   6.265  17.748  0.00  0.00    +0.000 A 
ATOM      5  C   UNL     1       3.313   5.117  18.500  0.00  0.00    +0.000 A 
ATOM      6  O   UNL     1       2.011   4.823  18.828  0.00  0.00    +0.000 OA
ATOM      7  C   UNL     1       1.782   3.685  19.567  0.00  0.00    +0.000 A 
ATOM      8  C   UNL     1       2.708   2.831  20.010  0.00  0.00    +0.000 A 
ATOM      9  C   UNL     1       4.119   3.105  19.695  0.00  0.00    +0.000 A 
ATOM     10  O   UNL     1       5.008   2.359  20.076  0.00  0.00    +0.000 OA
ATOM     11  C   UNL     1       4.382   4.314  18.895  0.00  0.00    +0.000 A 
ATOM     12  C   UNL     1       5.687   4.642  18.537  0.00  0.00    +0.000 A 
ENDBRANCH   1   2
BRANCH   1  13
ATOM     13  C   UNL     1       7.872   6.971  18.306  0.00  0.00    +0.000 C 
BRANCH  13  14
ATOM     14  C   UNL     1       8.001   8.393  17.785  0.00  0.00    +0.000 C 
BRANCH  14  15
ATOM     15  C   UNL     1       8.814   9.224  18.773  0.00  0.00    +0.000 C 
BRANCH  15  16
ATOM     16  C   UNL     1       9.048  10.640  18.254  0.00  0.00    +0.000 C 
BRANCH  16  17
ATOM     17  C   UNL     1       9.726  11.535  19.302  0.00  0.00    +0.000 C 
BRANCH  17  23
ATOM     18  C   UNL     1      10.639  13.982  20.571  0.00  0.00    +0.000 C 
ATOM     19  C   UNL     1      11.584  13.161  19.687  0.00  0.00    +0.000 C 
ATOM     20  C   UNL     1      12.328  14.064  18.704  0.00  0.00    +0.000 C 
ATOM     21  C   UNL     1      11.407  14.093  17.503  0.00  0.00    +0.000 C 
ATOM     22  C   UNL     1      10.867  12.679  17.448  0.00  0.00    +0.000 C 
ATOM     23  N   UNL     1      10.955  12.155  18.815  0.00  0.00    +0.000 NA
ENDBRANCH  17  23
ENDBRANCH  16  17
ENDBRANCH  15  16
ENDBRANCH  14  15
ENDBRANCH  13  14
ENDBRANCH   1  13
TORSDOF 7
ENDMDL
