MODEL 1
REMARK VINA RESULT:      -8.1      0.000      0.000
REMARK  Name = 
REMARK  3 active torsions:
REMARK  status: ('A' for Active; 'I' for Inactive)
REMARK    1  A    between atoms: N_1  and  C_2
REMARK    2  A    between atoms: C_4  and  C_5
REMARK    3  A    between atoms: C_6  and  C_7
REMARK                            x       y       z     vdW  Elec       q    Type
REMARK                         _______ _______ _______ _____ _____    ______ ____
ROOT
ATOM      1  C   UNL     1       6.231   4.804  18.244  0.00  0.00    +0.000 A 
ATOM      2  C   UNL     1       6.959   5.845  18.823  0.00  0.00    +0.000 A 
ATOM      3  C   UNL     1       7.620   6.750  18.006  0.00  0.00    +0.000 A 
ATOM      4  N   UNL     1       7.621   6.648  16.662  0.00  0.00    +0.000 NA
ATOM      5  C   UNL     1       6.978   5.618  16.094  0.00  0.00    +0.000 A 
ATOM      6  C   UNL     1       7.034   5.506  14.713  0.00  0.00    +0.000 A 
ATOM      7  C   UNL     1       6.401   4.466  14.029  0.00  0.00    +0.000 A 
ATOM      8  C   UNL     1       5.696   3.509  14.742  0.00  0.00    +0.000 A 
ATOM      9  C   UNL     1       5.632   3.594  16.135  0.00  0.00    +0.000 A 
ATOM     10  C   UNL     1       6.266   4.649  16.836  0.00  0.00    +0.000 A 
ENDROOT
BRANCH   1  11
ATOM     11  N   UNL     1       5.685   3.822  19.098  0.00  0.00    +0.000 N 
ATOM     12  H   UNL     1       4.844   3.382  18.738  0.00  0.00    +0.000 HD
ATOM     13  H   UNL     1       6.354   3.134  19.425  0.00  0.00    +0.000 HD
ENDBRANCH   1  11
BRANCH   3  14
ATOM     14  C   UNL     1       8.393   7.853  18.600  0.00  0.00    +0.000 C 
ATOM     15  C   UNL     1       8.332   9.124  18.174  0.00  0.00    +0.000 C 
BRANCH  15  16
ATOM     16  C   UNL     1       9.163  10.220  18.700  0.00  0.00    +0.000 A 
ATOM     17  C   UNL     1       9.868  11.022  17.791  0.00  0.00    +0.000 A 
ATOM     18  C   UNL     1      10.700  12.050  18.241  0.00  0.00    +0.000 A 
ATOM     19  C   UNL     1      10.825  12.299  19.606  0.00  0.00    +0.000 A 
ATOM     20  C   UNL     1      10.103  11.533  20.519  0.00  0.00    +0.000 A 
ATOM     21  C   UNL     1       9.270  10.506  20.067  0.00  0.00    +0.000 A 
ENDBRANCH  15  16
ENDBRANCH   3  14
TORSDOF 3
ENDMDL
MODEL 2
REMARK VINA RESULT:      -8.1      0.098      1.108
REMARK  Name = 
REMARK  3 active torsions:
REMARK  status: ('A' for Active; 'I' for Inactive)
REMARK    1  A    between atoms: N_1  and  C_2
REMARK    2  A    between atoms: C_4  and  C_5
REMARK    3  A    between atoms: C_6  and  C_7
REMARK                            x       y       z     vdW  Elec       q    Type
REMARK                         _______ _______ _______ _____ _____    ______ ____
ROOT
ATOM      1  C   UNL     1       6.234   4.786  18.253  0.00  0.00    +0.000 A 
ATOM      2  C   UNL     1       6.953   5.839  18.819  0.00  0.00    +0.000 A 
ATOM      3  C   UNL     1       7.587   6.754  17.992  0.00  0.00    +0.000 A 
ATOM      4  N   UNL     1       7.569   6.651  16.647  0.00  0.00    +0.000 NA
ATOM      5  C   UNL     1       6.934   5.609  16.091  0.00  0.00    +0.000 A 
ATOM      6  C   UNL     1       6.971   5.496  14.709  0.00  0.00    +0.000 A 
ATOM      7  C   UNL     1       6.345   4.445  14.036  0.00  0.00    +0.000 A 
ATOM      8  C   UNL     1       5.666   3.478  14.761  0.00  0.00    +0.000 A 
ATOM      9  C   UNL     1       5.622   3.563  16.154  0.00  0.00    +0.000 A 
ATOM     10  C   UNL     1       6.250   4.630  16.845  0.00  0.00    +0.000 A 
ENDROOT
BRANCH   1  11
ATOM     11  N   UNL     1       5.717   3.796  19.116  0.00  0.00    +0.000 N 
ATOM     12  H   UNL     1       4.890   3.328  18.760  0.00  0.00    +0.000 HD
ATOM     13  H   UNL     1       6.406   3.132  19.450  0.00  0.00    +0.000 HD
ENDBRANCH   1  11
BRANCH   3  14
ATOM     14  C   UNL     1       8.351   7.870  18.572  0.00  0.00    +0.000 C 
ATOM     15  C   UNL     1       8.311   9.128  18.105  0.00  0.00    +0.000 C 
BRANCH  15  16
ATOM     16  C   UNL     1       9.134  10.235  18.619  0.00  0.00    +0.000 A 
ATOM     17  C   UNL     1       9.249  10.396  20.007  0.00  0.00    +0.000 A 
ATOM     18  C   UNL     1       9.988  11.453  20.545  0.00  0.00    +0.000 A 
ATOM     19  C   UNL     1      10.632  12.354  19.701  0.00  0.00    +0.000 A 
ATOM     20  C   UNL     1      10.555  12.187  18.320  0.00  0.00    +0.000 A 
ATOM     21  C   UNL     1       9.818  11.127  17.783  0.00  0.00    +0.000 A 
ENDBRANCH  15  16
ENDBRANCH   3  14
TORSDOF 3
ENDMDL
MODEL 3
REMARK VINA RESULT:      -7.8      5.286      7.310
REMARK  Name = 
REMARK  3 active torsions:
REMARK  status: ('A' for Active; 'I' for Inactive)
REMARK    1  A    between atoms: N_1  and  C_2
REMARK    2  A    between atoms: C_4  and  C_5
REMARK    3  A    between atoms: C_6  and  C_7
REMARK                            x       y       z     vdW  Elec       q    Type
REMARK                         _______ _______ _______ _____ _____    ______ ____
ROOT
ATOM      1  C   UNL     1       2.757   6.163  19.325  0.00  0.00    +0.000 A 
ATOM      2  C   UNL     1       3.448   6.271  18.118  0.00  0.00    +0.000 A 
ATOM      3  C   UNL     1       3.989   5.133  17.537  0.00  0.00    +0.000 A 
ATOM      4  N   UNL     1       3.906   3.916  18.113  0.00  0.00    +0.000 NA
ATOM      5  C   UNL     1       3.300   3.807  19.303  0.00  0.00    +0.000 A 
ATOM      6  C   UNL     1       3.270   2.555  19.899  0.00  0.00    +0.000 A 
ATOM      7  C   UNL     1       2.667   2.341  21.140  0.00  0.00    +0.000 A 
ATOM      8  C   UNL     1       2.079   3.405  21.807  0.00  0.00    +0.000 A 
ATOM      9  C   UNL     1       2.103   4.678  21.233  0.00  0.00    +0.000 A 
ATOM     10  C   UNL     1       2.709   4.903  19.972  0.00  0.00    +0.000 A 
ENDROOT
BRANCH   1  11
ATOM     11  N   UNL     1       2.339   7.353  19.959  0.00  0.00    +0.000 N 
ATOM     12  H   UNL     1       2.318   8.161  19.347  0.00  0.00    +0.000 HD
ATOM     13  H   UNL     1       1.480   7.263  20.489  0.00  0.00    +0.000 HD
ENDBRANCH   1  11
BRANCH   3  14
ATOM     14  C   UNL     1       4.721   5.228  16.264  0.00  0.00    +0.000 C 
ATOM     15  C   UNL     1       5.162   4.166  15.572  0.00  0.00    +0.000 C 
BRANCH  15  16
ATOM     16  C   UNL     1       5.970   4.248  14.344  0.00  0.00    +0.000 A 
ATOM     17  C   UNL     1       7.085   5.097  14.331  0.00  0.00    +0.000 A 
ATOM     18  C   UNL     1       7.862   5.239  13.179  0.00  0.00    +0.000 A 
ATOM     19  C   UNL     1       7.541   4.522  12.029  0.00  0.00    +0.000 A 
ATOM     20  C   UNL     1       6.455   3.649  12.037  0.00  0.00    +0.000 A 
ATOM     21  C   UNL     1       5.681   3.506  13.192  0.00  0.00    +0.000 A 
ENDBRANCH  15  16
ENDBRANCH   3  14
TORSDOF 3
ENDMDL
MODEL 4
REMARK VINA RESULT:      -7.8      1.447      2.168
REMARK  Name = 
REMARK  3 active torsions:
REMARK  status: ('A' for Active; 'I' for Inactive)
REMARK    1  A    between atoms: N_1  and  C_2
REMARK    2  A    between atoms: C_4  and  C_5
REMARK    3  A    between atoms: C_6  and  C_7
REMARK                            x       y       z     vdW  Elec       q    Type
REMARK                         _______ _______ _______ _____ _____    ______ ____
ROOT
ATOM      1  C   UNL     1       7.769   6.105  18.983  0.00  0.00    +0.000 A 
ATOM      2  C   UNL     1       8.329   7.381  18.914  0.00  0.00    +0.000 A 
ATOM      3  C   UNL     1       7.905   8.260  17.929  0.00  0.00    +0.000 A 
ATOM      4  N   UNL     1       6.987   7.921  17.000  0.00  0.00    +0.000 NA
ATOM      5  C   UNL     1       6.486   6.678  17.016  0.00  0.00    +0.000 A 
ATOM      6  C   UNL     1       5.581   6.336  16.021  0.00  0.00    +0.000 A 
ATOM      7  C   UNL     1       5.007   5.065  15.949  0.00  0.00    +0.000 A 
ATOM      8  C   UNL     1       5.347   4.108  16.892  0.00  0.00    +0.000 A 
ATOM      9  C   UNL     1       6.262   4.423  17.898  0.00  0.00    +0.000 A 
ATOM     10  C   UNL     1       6.845   5.712  17.982  0.00  0.00    +0.000 A 
ENDROOT
BRANCH   1  11
ATOM     11  N   UNL     1       8.317   5.188  19.905  0.00  0.00    +0.000 N 
ATOM     12  H   UNL     1       8.209   4.216  19.636  0.00  0.00    +0.000 HD
ATOM     13  H   UNL     1       9.270   5.395  20.183  0.00  0.00    +0.000 HD
ENDBRANCH   1  11
BRANCH   3  14
ATOM     14  C   UNL     1       8.485   9.610  17.841  0.00  0.00    +0.000 C 
ATOM     15  C   UNL     1       9.266  10.152  18.788  0.00  0.00    +0.000 C 
BRANCH  15  16
ATOM     16  C   UNL     1       9.782  11.531  18.754  0.00  0.00    +0.000 A 
ATOM     17  C   UNL     1      10.826  11.878  19.624  0.00  0.00    +0.000 A 
ATOM     18  C   UNL     1      11.324  13.182  19.657  0.00  0.00    +0.000 A 
ATOM     19  C   UNL     1      10.795  14.153  18.810  0.00  0.00    +0.000 A 
ATOM     20  C   UNL     1       9.781  13.815  17.917  0.00  0.00    +0.000 A 
ATOM     21  C   UNL     1       9.285  12.509  17.883  0.00  0.00    +0.000 A 
ENDBRANCH  15  16
ENDBRANCH   3  14
TORSDOF 3
ENDMDL
MODEL 5
REMARK VINA RESULT:      -7.7      5.316      7.354
REMARK  Name = 
REMARK  3 active torsions:
REMARK  status: ('A' for Active; 'I' for Inactive)
REMARK    1  A    between atoms: N_1  and  C_2
REMARK    2  A    between atoms: C_4  and  C_5
REMARK    3  A    between atoms: C_6  and  C_7
REMARK                            x       y       z     vdW  Elec       q    Type
REMARK                         _______ _______ _______ _____ _____    ______ ____
ROOT
ATOM      1  C   UNL     1       2.693   6.113  19.320  0.00  0.00    +0.000 A 
ATOM      2  C   UNL     1       3.466   6.248  18.167  0.00  0.00    +0.000 A 
ATOM      3  C   UNL     1       3.888   5.111  17.492  0.00  0.00    +0.000 A 
ATOM      4  N   UNL     1       3.610   3.865  17.926  0.00  0.00    +0.000 NA
ATOM      5  C   UNL     1       2.921   3.720  19.067  0.00  0.00    +0.000 A 
ATOM      6  C   UNL     1       2.689   2.430  19.520  0.00  0.00    +0.000 A 
ATOM      7  C   UNL     1       1.986   2.175  20.699  0.00  0.00    +0.000 A 
ATOM      8  C   UNL     1       1.503   3.236  21.449  0.00  0.00    +0.000 A 
ATOM      9  C   UNL     1       1.731   4.545  21.020  0.00  0.00    +0.000 A 
ATOM     10  C   UNL     1       2.438   4.812  19.822  0.00  0.00    +0.000 A 
ENDROOT
BRANCH   1  11
ATOM     11  N   UNL     1       2.396   7.278  20.060  0.00  0.00    +0.000 N 
ATOM     12  H   UNL     1       2.433   8.133  19.516  0.00  0.00    +0.000 HD
ATOM     13  H   UNL     1       1.544   7.220  20.607  0.00  0.00    +0.000 HD
ENDBRANCH   1  11
BRANCH   3  14
ATOM     14  C   UNL     1       4.705   5.234  16.274  0.00  0.00    +0.000 C 
ATOM     15  C   UNL     1       5.011   4.204  15.470  0.00  0.00    +0.000 C 
BRANCH  15  16
ATOM     16  C   UNL     1       5.897   4.296  14.299  0.00  0.00    +0.000 A 
ATOM     17  C   UNL     1       5.587   3.536  13.162  0.00  0.00    +0.000 A 
ATOM     18  C   UNL     1       6.417   3.559  12.038  0.00  0.00    +0.000 A 
ATOM     19  C   UNL     1       7.561   4.354  12.033  0.00  0.00    +0.000 A 
ATOM     20  C   UNL     1       7.864   5.140  13.142  0.00  0.00    +0.000 A 
ATOM     21  C   UNL     1       7.031   5.118  14.264  0.00  0.00    +0.000 A 
ENDBRANCH  15  16
ENDBRANCH   3  14
TORSDOF 3
ENDMDL
MODEL 6
REMARK VINA RESULT:      -7.7      1.544      2.129
REMARK  Name = 
REMARK  3 active torsions:
REMARK  status: ('A' for Active; 'I' for Inactive)
REMARK    1  A    between atoms: N_1  and  C_2
REMARK    2  A    between atoms: C_4  and  C_5
REMARK    3  A    between atoms: C_6  and  C_7
REMARK                            x       y       z     vdW  Elec       q    Type
REMARK                         _______ _______ _______ _____ _____    ______ ____
ROOT
ATOM      1  C   UNL     1       7.734   6.090  18.990  0.00  0.00    +0.000 A 
ATOM      2  C   UNL     1       8.310   7.353  18.852  0.00  0.00    +0.000 A 
ATOM      3  C   UNL     1       7.850   8.207  17.859  0.00  0.00    +0.000 A 
ATOM      4  N   UNL     1       6.884   7.853  16.988  0.00  0.00    +0.000 NA
ATOM      5  C   UNL     1       6.365   6.620  17.069  0.00  0.00    +0.000 A 
ATOM      6  C   UNL     1       5.408   6.261  16.132  0.00  0.00    +0.000 A 
ATOM      7  C   UNL     1       4.811   4.998  16.129  0.00  0.00    +0.000 A 
ATOM      8  C   UNL     1       5.182   4.067  17.086  0.00  0.00    +0.000 A 
ATOM      9  C   UNL     1       6.151   4.399  18.036  0.00  0.00    +0.000 A 
ATOM     10  C   UNL     1       6.756   5.680  18.049  0.00  0.00    +0.000 A 
ENDROOT
BRANCH   1  11
ATOM     11  N   UNL     1       8.312   5.195  19.914  0.00  0.00    +0.000 N 
ATOM     12  H   UNL     1       7.906   4.265  19.900  0.00  0.00    +0.000 HD
ATOM     13  H   UNL     1       9.325   5.159  19.883  0.00  0.00    +0.000 HD
ENDBRANCH   1  11
BRANCH   3  14
ATOM     14  C   UNL     1       8.447   9.543  17.699  0.00  0.00    +0.000 C 
ATOM     15  C   UNL     1       9.225  10.132  18.620  0.00  0.00    +0.000 C 
BRANCH  15  16
ATOM     16  C   UNL     1       9.756  11.500  18.511  0.00  0.00    +0.000 A 
ATOM     17  C   UNL     1       8.909  12.513  18.039  0.00  0.00    +0.000 A 
ATOM     18  C   UNL     1       9.376  13.820  17.881  0.00  0.00    +0.000 A 
ATOM     19  C   UNL     1      10.693  14.134  18.207  0.00  0.00    +0.000 A 
ATOM     20  C   UNL     1      11.537  13.146  18.709  0.00  0.00    +0.000 A 
ATOM     21  C   UNL     1      11.068  11.839  18.869  0.00  0.00    +0.000 A 
ENDBRANCH  15  16
ENDBRANCH   3  14
TORSDOF 3
ENDMDL
MODEL 7
REMARK VINA RESULT:      -7.6      1.279      2.473
REMARK  Name = 
REMARK  3 active torsions:
REMARK  status: ('A' for Active; 'I' for Inactive)
REMARK    1  A    between atoms: N_1  and  C_2
REMARK    2  A    between atoms: C_4  and  C_5
REMARK    3  A    between atoms: C_6  and  C_7
REMARK                            x       y       z     vdW  Elec       q    Type
REMARK                         _______ _______ _______ _____ _____    ______ ____
ROOT
ATOM      1  C   UNL     1       6.388   5.603  16.126  0.00  0.00    +0.000 A 
ATOM      2  C   UNL     1       7.226   6.600  16.625  0.00  0.00    +0.000 A 
ATOM      3  C   UNL     1       7.382   6.736  17.997  0.00  0.00    +0.000 A 
ATOM      4  N   UNL     1       6.724   5.960  18.882  0.00  0.00    +0.000 NA
ATOM      5  C   UNL     1       5.868   5.039  18.418  0.00  0.00    +0.000 A 
ATOM      6  C   UNL     1       5.165   4.287  19.347  0.00  0.00    +0.000 A 
ATOM      7  C   UNL     1       4.247   3.306  18.964  0.00  0.00    +0.000 A 
ATOM      8  C   UNL     1       4.022   3.072  17.616  0.00  0.00    +0.000 A 
ATOM      9  C   UNL     1       4.709   3.823  16.660  0.00  0.00    +0.000 A 
ATOM     10  C   UNL     1       5.646   4.815  17.041  0.00  0.00    +0.000 A 
ENDROOT
BRANCH   1  11
ATOM     11  N   UNL     1       6.143   5.577  14.736  0.00  0.00    +0.000 N 
ATOM     12  H   UNL     1       6.980   5.648  14.167  0.00  0.00    +0.000 HD
ATOM     13  H   UNL     1       5.549   4.814  14.431  0.00  0.00    +0.000 HD
ENDBRANCH   1  11
BRANCH   3  14
ATOM     14  C   UNL     1       8.261   7.783  18.542  0.00  0.00    +0.000 C 
ATOM     15  C   UNL     1       8.216   9.071  18.165  0.00  0.00    +0.000 C 
BRANCH  15  16
ATOM     16  C   UNL     1       9.145  10.111  18.636  0.00  0.00    +0.000 A 
ATOM     17  C   UNL     1       9.875  10.839  17.685  0.00  0.00    +0.000 A 
ATOM     18  C   UNL     1      10.798  11.810  18.083  0.00  0.00    +0.000 A 
ATOM     19  C   UNL     1      10.991  12.074  19.436  0.00  0.00    +0.000 A 
ATOM     20  C   UNL     1      10.249  11.383  20.391  0.00  0.00    +0.000 A 
ATOM     21  C   UNL     1       9.324  10.414  19.992  0.00  0.00    +0.000 A 
ENDBRANCH  15  16
ENDBRANCH   3  14
TORSDOF 3
ENDMDL
MODEL 8
REMARK VINA RESULT:      -7.6      1.226      2.670
REMARK  Name = 
REMARK  3 active torsions:
REMARK  status: ('A' for Active; 'I' for Inactive)
REMARK    1  A    between atoms: N_1  and  C_2
REMARK    2  A    between atoms: C_4  and  C_5
REMARK    3  A    between atoms: C_6  and  C_7
REMARK                            x       y       z     vdW  Elec       q    Type
REMARK                         _______ _______ _______ _____ _____    ______ ____
ROOT
ATOM      1  C   UNL     1       6.632   5.554  16.092  0.00  0.00    +0.000 A 
ATOM      2  C   UNL     1       7.431   6.574  16.608  0.00  0.00    +0.000 A 
ATOM      3  C   UNL     1       7.459   6.791  17.978  0.00  0.00    +0.000 A 
ATOM      4  N   UNL     1       6.711   6.074  18.841  0.00  0.00    +0.000 NA
ATOM      5  C   UNL     1       5.892   5.132  18.354  0.00  0.00    +0.000 A 
ATOM      6  C   UNL     1       5.096   4.442  19.256  0.00  0.00    +0.000 A 
ATOM      7  C   UNL     1       4.206   3.446  18.846  0.00  0.00    +0.000 A 
ATOM      8  C   UNL     1       4.105   3.133  17.500  0.00  0.00    +0.000 A 
ATOM      9  C   UNL     1       4.888   3.820  16.570  0.00  0.00    +0.000 A 
ATOM     10  C   UNL     1       5.798   4.827  16.978  0.00  0.00    +0.000 A 
ENDROOT
BRANCH   1  11
ATOM     11  N   UNL     1       6.517   5.446  14.689  0.00  0.00    +0.000 N 
ATOM     12  H   UNL     1       5.631   5.773  14.320  0.00  0.00    +0.000 HD
ATOM     13  H   UNL     1       7.301   5.833  14.175  0.00  0.00    +0.000 HD
ENDBRANCH   1  11
BRANCH   3  14
ATOM     14  C   UNL     1       8.296   7.863  18.540  0.00  0.00    +0.000 C 
ATOM     15  C   UNL     1       8.292   9.129  18.093  0.00  0.00    +0.000 C 
BRANCH  15  16
ATOM     16  C   UNL     1       9.186  10.190  18.587  0.00  0.00    +0.000 A 
ATOM     17  C   UNL     1       9.258  10.416  19.969  0.00  0.00    +0.000 A 
ATOM     18  C   UNL     1      10.062  11.435  20.485  0.00  0.00    +0.000 A 
ATOM     19  C   UNL     1      10.814  12.233  19.626  0.00  0.00    +0.000 A 
ATOM     20  C   UNL     1      10.778  11.998  18.254  0.00  0.00    +0.000 A 
ATOM     21  C   UNL     1       9.976  10.976  17.738  0.00  0.00    +0.000 A 
ENDBRANCH  15  16
ENDBRANCH   3  14
TORSDOF 3
ENDMDL
MODEL 9
REMARK VINA RESULT:      -7.5      6.576      8.998
REMARK  Name = 
REMARK  3 active torsions:
REMARK  status: ('A' for Active; 'I' for Inactive)
REMARK    1  A    between atoms: N_1  and  C_2
REMARK    2  A    between atoms: C_4  and  C_5
REMARK    3  A    between atoms: C_6  and  C_7
REMARK                            x       y       z     vdW  Elec       q    Type
REMARK                         _______ _______ _______ _____ _____    ______ ____
ROOT
ATOM      1  C   UNL     1       0.237  10.821  18.956  0.00  0.00    +0.000 A 
ATOM      2  C   UNL     1       1.072  10.026  18.170  0.00  0.00    +0.000 A 
ATOM      3  C   UNL     1       1.646   8.889  18.720  0.00  0.00    +0.000 A 
ATOM      4  N   UNL     1       1.458   8.532  20.007  0.00  0.00    +0.000 NA
ATOM      5  C   UNL     1       0.709   9.319  20.790  0.00  0.00    +0.000 A 
ATOM      6  C   UNL     1       0.570   8.958  22.122  0.00  0.00    +0.000 A 
ATOM      7  C   UNL     1      -0.185   9.716  23.019  0.00  0.00    +0.000 A 
ATOM      8  C   UNL     1      -0.818  10.868  22.577  0.00  0.00    +0.000 A 
ATOM      9  C   UNL     1      -0.687  11.258  21.243  0.00  0.00    +0.000 A 
ATOM     10  C   UNL     1       0.073  10.492  20.325  0.00  0.00    +0.000 A 
ENDROOT
BRANCH   1  11
ATOM     11  N   UNL     1      -0.220  12.042  18.414  0.00  0.00    +0.000 N 
ATOM     12  H   UNL     1      -0.127  12.833  19.041  0.00  0.00    +0.000 HD
ATOM     13  H   UNL     1       0.146  12.252  17.491  0.00  0.00    +0.000 HD
ENDBRANCH   1  11
BRANCH   3  14
ATOM     14  C   UNL     1       2.530   8.039  17.906  0.00  0.00    +0.000 C 
ATOM     15  C   UNL     1       2.846   6.772  18.217  0.00  0.00    +0.000 C 
BRANCH  15  16
ATOM     16  C   UNL     1       3.796   5.940  17.460  0.00  0.00    +0.000 A 
ATOM     17  C   UNL     1       4.795   6.577  16.710  0.00  0.00    +0.000 A 
ATOM     18  C   UNL     1       5.697   5.833  15.945  0.00  0.00    +0.000 A 
ATOM     19  C   UNL     1       5.619   4.443  15.932  0.00  0.00    +0.000 A 
ATOM     20  C   UNL     1       4.654   3.795  16.699  0.00  0.00    +0.000 A 
ATOM     21  C   UNL     1       3.754   4.540  17.467  0.00  0.00    +0.000 A 
ENDBRANCH  15  16
ENDBRANCH   3  14
TORSDOF 3
ENDMDL
