MODEL 1
REMARK VINA RESULT:      -9.1      0.000      0.000
REMARK  Name = 
REMARK  7 active torsions:
REMARK  status: ('A' for Active; 'I' for Inactive)
REMARK    1  A    between atoms: C_2  and  C_3
REMARK    2  A    between atoms: C_3  and  C_4
REMARK    3  A    between atoms: C_8  and  C_9
REMARK    4  A    between atoms: C_9  and  N_10
REMARK    5  A    between atoms: C_9  and  C_24
REMARK    6  A    between atoms: C_11  and  C_13
REMARK    7  A    between atoms: C_16  and  C_17
REMARK                            x       y       z     vdW  Elec       q    Type
REMARK                         _______ _______ _______ _____ _____    ______ ____
ROOT
ATOM      1  C   UNL     1       3.268   5.877  19.699  0.00  0.00    +0.000 C 
ENDROOT
BRANCH   1   6
ATOM      2  C   UNL     1       5.520   5.753  16.557  0.00  0.00    +0.000 A 
ATOM      3  C   UNL     1       6.759   5.477  17.142  0.00  0.00    +0.000 A 
ATOM      4  C   UNL     1       6.867   5.324  18.524  0.00  0.00    +0.000 A 
ATOM      5  C   UNL     1       5.738   5.444  19.335  0.00  0.00    +0.000 A 
ATOM      6  C   UNL     1       4.484   5.751  18.782  0.00  0.00    +0.000 A 
ATOM      7  C   UNL     1       4.395   5.897  17.384  0.00  0.00    +0.000 A 
BRANCH   2   8
ATOM      8  C   UNL     1       5.372   5.824  15.054  0.00  0.00    +0.000 C 
BRANCH   8  10
ATOM      9  C   UNL     1       6.347   3.947  13.681  0.00  0.00    +0.000 C 
ATOM     10  C   UNL     1       5.357   4.455  14.429  0.00  0.00    +0.000 C 
ENDBRANCH   8  10
ENDBRANCH   2   8
ENDBRANCH   1   6
BRANCH   1  11
ATOM     11  C   UNL     1       2.387   4.631  19.709  0.00  0.00    +0.000 A 
ATOM     12  C   UNL     1       1.894   4.107  18.502  0.00  0.00    +0.000 A 
ATOM     13  C   UNL     1       1.118   2.945  18.491  0.00  0.00    +0.000 A 
ATOM     14  C   UNL     1       0.826   2.288  19.683  0.00  0.00    +0.000 A 
ATOM     15  C   UNL     1       1.303   2.795  20.889  0.00  0.00    +0.000 A 
ATOM     16  C   UNL     1       2.079   3.954  20.903  0.00  0.00    +0.000 A 
ENDBRANCH   1  11
BRANCH   1  17
ATOM     17  N   UNL     1       2.461   7.034  19.356  0.00  0.00    +0.000 N 
ATOM     18  C   UNL     1       1.822   7.837  20.259  0.00  0.00    +0.000 C 
ATOM     19  O   UNL     1       1.858   7.654  21.474  0.00  0.00    +0.000 OA
ATOM     20  H   UNL     1       2.347   7.235  18.366  0.00  0.00    +0.000 HD
BRANCH  18  21
ATOM     21  C   UNL     1       1.049   8.963  19.652  0.00  0.00    +0.000 A 
ATOM     22  C   UNL     1       0.091   9.561  20.385  0.00  0.00    +0.000 A 
ATOM     23  C   UNL     1      -0.741  10.614  19.840  0.00  0.00    +0.000 A 
ATOM     24  C   UNL     1      -0.585  11.020  18.567  0.00  0.00    +0.000 A 
ATOM     25  N   UNL     1       0.418  10.437  17.810  0.00  0.00    +0.000 N 
ATOM     26  C   UNL     1       1.265   9.454  18.257  0.00  0.00    +0.000 A 
ATOM     27  O   UNL     1       2.146   9.003  17.527  0.00  0.00    +0.000 OA
ATOM     28  H   UNL     1       0.560  10.744  16.852  0.00  0.00    +0.000 HD
BRANCH  24  29
ATOM     29  C   UNL     1      -1.461  12.067  17.917  0.00  0.00    +0.000 C 
ATOM     30  F   UNL     1      -1.980  11.618  16.742  0.00  0.00    +0.000 F 
ATOM     31  F   UNL     1      -2.510  12.408  18.706  0.00  0.00    +0.000 F 
ATOM     32  F   UNL     1      -0.777  13.205  17.639  0.00  0.00    +0.000 F 
ENDBRANCH  24  29
ENDBRANCH  18  21
ENDBRANCH   1  17
TORSDOF 7
ENDMDL
MODEL 2
REMARK VINA RESULT:      -8.9      2.149      4.952
REMARK  Name = 
REMARK  7 active torsions:
REMARK  status: ('A' for Active; 'I' for Inactive)
REMARK    1  A    between atoms: C_2  and  C_3
REMARK    2  A    between atoms: C_3  and  C_4
REMARK    3  A    between atoms: C_8  and  C_9
REMARK    4  A    between atoms: C_9  and  N_10
REMARK    5  A    between atoms: C_9  and  C_24
REMARK    6  A    between atoms: C_11  and  C_13
REMARK    7  A    between atoms: C_16  and  C_17
REMARK                            x       y       z     vdW  Elec       q    Type
REMARK                         _______ _______ _______ _____ _____    ______ ____
ROOT
ATOM      1  C   UNL     1       3.811   6.115  17.581  0.00  0.00    +0.000 C 
ENDROOT
BRANCH   1   6
ATOM      2  C   UNL     1       1.827   2.942  18.555  0.00  0.00    +0.000 A 
ATOM      3  C   UNL     1       2.535   1.970  17.841  0.00  0.00    +0.000 A 
ATOM      4  C   UNL     1       3.637   2.328  17.067  0.00  0.00    +0.000 A 
ATOM      5  C   UNL     1       4.045   3.661  16.998  0.00  0.00    +0.000 A 
ATOM      6  C   UNL     1       3.339   4.666  17.679  0.00  0.00    +0.000 A 
ATOM      7  C   UNL     1       2.230   4.283  18.459  0.00  0.00    +0.000 A 
BRANCH   2   8
ATOM      8  C   UNL     1       0.692   2.554  19.475  0.00  0.00    +0.000 C 
BRANCH   8  10
ATOM      9  C   UNL     1       1.809   2.596  21.735  0.00  0.00    +0.000 C 
ATOM     10  C   UNL     1       0.902   3.073  20.872  0.00  0.00    +0.000 C 
ENDBRANCH   8  10
ENDBRANCH   2   8
ENDBRANCH   1   6
BRANCH   1  11
ATOM     11  C   UNL     1       5.280   6.298  17.953  0.00  0.00    +0.000 A 
ATOM     12  C   UNL     1       5.831   5.575  19.024  0.00  0.00    +0.000 A 
ATOM     13  C   UNL     1       7.182   5.703  19.354  0.00  0.00    +0.000 A 
ATOM     14  C   UNL     1       8.005   6.551  18.616  0.00  0.00    +0.000 A 
ATOM     15  C   UNL     1       7.475   7.278  17.553  0.00  0.00    +0.000 A 
ATOM     16  C   UNL     1       6.126   7.152  17.222  0.00  0.00    +0.000 A 
ENDBRANCH   1  11
BRANCH   1  17
ATOM     17  N   UNL     1       2.996   6.997  18.395  0.00  0.00    +0.000 N 
ATOM     18  C   UNL     1       2.496   8.202  17.986  0.00  0.00    +0.000 C 
ATOM     19  O   UNL     1       2.699   8.675  16.869  0.00  0.00    +0.000 OA
ATOM     20  H   UNL     1       2.811   6.699  19.350  0.00  0.00    +0.000 HD
BRANCH  18  21
ATOM     21  C   UNL     1       1.689   8.924  19.015  0.00  0.00    +0.000 A 
ATOM     22  C   UNL     1       1.226  10.157  18.730  0.00  0.00    +0.000 A 
ATOM     23  C   UNL     1       0.493  10.940  19.702  0.00  0.00    +0.000 A 
ATOM     24  C   UNL     1       0.261  10.457  20.936  0.00  0.00    +0.000 A 
ATOM     25  N   UNL     1       0.701   9.178  21.234  0.00  0.00    +0.000 N 
ATOM     26  C   UNL     1       1.379   8.360  20.365  0.00  0.00    +0.000 A 
ATOM     27  O   UNL     1       1.718   7.227  20.700  0.00  0.00    +0.000 OA
ATOM     28  H   UNL     1       0.519   8.791  22.156  0.00  0.00    +0.000 HD
BRANCH  24  29
ATOM     29  C   UNL     1      -0.441  11.246  22.018  0.00  0.00    +0.000 C 
ATOM     30  F   UNL     1      -1.754  11.440  21.715  0.00  0.00    +0.000 F 
ATOM     31  F   UNL     1      -0.403  10.608  23.213  0.00  0.00    +0.000 F 
ATOM     32  F   UNL     1       0.109  12.472  22.196  0.00  0.00    +0.000 F 
ENDBRANCH  24  29
ENDBRANCH  18  21
ENDBRANCH   1  17
TORSDOF 7
ENDMDL
MODEL 3
REMARK VINA RESULT:      -8.9      0.629      1.293
REMARK  Name = 
REMARK  7 active torsions:
REMARK  status: ('A' for Active; 'I' for Inactive)
REMARK    1  A    between atoms: C_2  and  C_3
REMARK    2  A    between atoms: C_3  and  C_4
REMARK    3  A    between atoms: C_8  and  C_9
REMARK    4  A    between atoms: C_9  and  N_10
REMARK    5  A    between atoms: C_9  and  C_24
REMARK    6  A    between atoms: C_11  and  C_13
REMARK    7  A    between atoms: C_16  and  C_17
REMARK                            x       y       z     vdW  Elec       q    Type
REMARK                         _______ _______ _______ _____ _____    ______ ____
ROOT
ATOM      1  C   UNL     1       3.597   5.770  19.501  0.00  0.00    +0.000 C 
ENDROOT
BRANCH   1   6
ATOM      2  C   UNL     1       5.800   5.508  16.333  0.00  0.00    +0.000 A 
ATOM      3  C   UNL     1       7.066   5.382  16.913  0.00  0.00    +0.000 A 
ATOM      4  C   UNL     1       7.208   5.371  18.300  0.00  0.00    +0.000 A 
ATOM      5  C   UNL     1       6.085   5.486  19.122  0.00  0.00    +0.000 A 
ATOM      6  C   UNL     1       4.803   5.645  18.572  0.00  0.00    +0.000 A 
ATOM      7  C   UNL     1       4.681   5.649  17.169  0.00  0.00    +0.000 A 
BRANCH   2   8
ATOM      8  C   UNL     1       5.623   5.423  14.834  0.00  0.00    +0.000 C 
BRANCH   8  10
ATOM      9  C   UNL     1       6.079   3.631  13.120  0.00  0.00    +0.000 C 
ATOM     10  C   UNL     1       6.409   4.284  14.243  0.00  0.00    +0.000 C 
ENDBRANCH   8  10
ENDBRANCH   2   8
ENDBRANCH   1   6
BRANCH   1  11
ATOM     11  C   UNL     1       2.628   4.595  19.394  0.00  0.00    +0.000 A 
ATOM     12  C   UNL     1       2.454   3.724  20.483  0.00  0.00    +0.000 A 
ATOM     13  C   UNL     1       1.543   2.667  20.414  0.00  0.00    +0.000 A 
ATOM     14  C   UNL     1       0.791   2.466  19.260  0.00  0.00    +0.000 A 
ATOM     15  C   UNL     1       0.953   3.316  18.170  0.00  0.00    +0.000 A 
ATOM     16  C   UNL     1       1.861   4.374  18.236  0.00  0.00    +0.000 A 
ENDBRANCH   1  11
BRANCH   1  17
ATOM     17  N   UNL     1       2.876   7.009  19.273  0.00  0.00    +0.000 N 
ATOM     18  C   UNL     1       1.913   7.517  20.100  0.00  0.00    +0.000 C 
ATOM     19  O   UNL     1       1.545   6.962  21.133  0.00  0.00    +0.000 OA
ATOM     20  H   UNL     1       3.092   7.514  18.418  0.00  0.00    +0.000 HD
BRANCH  18  21
ATOM     21  C   UNL     1       1.316   8.808  19.641  0.00  0.00    +0.000 A 
ATOM     22  C   UNL     1       0.579   9.527  20.508  0.00  0.00    +0.000 A 
ATOM     23  C   UNL     1      -0.083  10.753  20.114  0.00  0.00    +0.000 A 
ATOM     24  C   UNL     1       0.013  11.207  18.850  0.00  0.00    +0.000 A 
ATOM     25  N   UNL     1       0.794  10.496  17.955  0.00  0.00    +0.000 N 
ATOM     26  C   UNL     1       1.474   9.342  18.253  0.00  0.00    +0.000 A 
ATOM     27  O   UNL     1       2.165   8.781  17.405  0.00  0.00    +0.000 OA
ATOM     28  H   UNL     1       0.891  10.834  17.002  0.00  0.00    +0.000 HD
BRANCH  24  29
ATOM     29  C   UNL     1      -0.704  12.444  18.357  0.00  0.00    +0.000 C 
ATOM     30  F   UNL     1      -1.427  13.026  19.351  0.00  0.00    +0.000 F 
ATOM     31  F   UNL     1       0.164  13.381  17.901  0.00  0.00    +0.000 F 
ATOM     32  F   UNL     1      -1.567  12.167  17.349  0.00  0.00    +0.000 F 
ENDBRANCH  24  29
ENDBRANCH  18  21
ENDBRANCH   1  17
TORSDOF 7
ENDMDL
MODEL 4
REMARK VINA RESULT:      -8.9      2.111      4.909
REMARK  Name = 
REMARK  7 active torsions:
REMARK  status: ('A' for Active; 'I' for Inactive)
REMARK    1  A    between atoms: C_2  and  C_3
REMARK    2  A    between atoms: C_3  and  C_4
REMARK    3  A    between atoms: C_8  and  C_9
REMARK    4  A    between atoms: C_9  and  N_10
REMARK    5  A    between atoms: C_9  and  C_24
REMARK    6  A    between atoms: C_11  and  C_13
REMARK    7  A    between atoms: C_16  and  C_17
REMARK                            x       y       z     vdW  Elec       q    Type
REMARK                         _______ _______ _______ _____ _____    ______ ____
ROOT
ATOM      1  C   UNL     1       3.816   5.990  17.619  0.00  0.00    +0.000 C 
ENDROOT
BRANCH   1   6
ATOM      2  C   UNL     1       1.842   2.884  18.806  0.00  0.00    +0.000 A 
ATOM      3  C   UNL     1       2.503   1.876  18.098  0.00  0.00    +0.000 A 
ATOM      4  C   UNL     1       3.573   2.189  17.261  0.00  0.00    +0.000 A 
ATOM      5  C   UNL     1       3.992   3.513  17.122  0.00  0.00    +0.000 A 
ATOM      6  C   UNL     1       3.331   4.552  17.795  0.00  0.00    +0.000 A 
ATOM      7  C   UNL     1       2.256   4.215  18.640  0.00  0.00    +0.000 A 
BRANCH   2   8
ATOM      8  C   UNL     1       0.746   2.547  19.791  0.00  0.00    +0.000 C 
BRANCH   8  10
ATOM      9  C   UNL     1       2.328   2.681  21.750  0.00  0.00    +0.000 C 
ATOM     10  C   UNL     1       1.129   2.914  21.200  0.00  0.00    +0.000 C 
ENDBRANCH   8  10
ENDBRANCH   2   8
ENDBRANCH   1   6
BRANCH   1  11
ATOM     11  C   UNL     1       5.290   6.178  17.967  0.00  0.00    +0.000 A 
ATOM     12  C   UNL     1       6.082   7.067  17.222  0.00  0.00    +0.000 A 
ATOM     13  C   UNL     1       7.423   7.278  17.552  0.00  0.00    +0.000 A 
ATOM     14  C   UNL     1       7.991   6.609  18.633  0.00  0.00    +0.000 A 
ATOM     15  C   UNL     1       7.222   5.721  19.381  0.00  0.00    +0.000 A 
ATOM     16  C   UNL     1       5.882   5.509  19.054  0.00  0.00    +0.000 A 
ENDBRANCH   1  11
BRANCH   1  17
ATOM     17  N   UNL     1       3.016   6.920  18.395  0.00  0.00    +0.000 N 
ATOM     18  C   UNL     1       2.550   8.122  17.939  0.00  0.00    +0.000 C 
ATOM     19  O   UNL     1       2.773   8.550  16.809  0.00  0.00    +0.000 OA
ATOM     20  H   UNL     1       2.817   6.661  19.358  0.00  0.00    +0.000 HD
BRANCH  18  21
ATOM     21  C   UNL     1       1.753   8.899  18.936  0.00  0.00    +0.000 A 
ATOM     22  C   UNL     1       1.320  10.130  18.603  0.00  0.00    +0.000 A 
ATOM     23  C   UNL     1       0.600  10.965  19.541  0.00  0.00    +0.000 A 
ATOM     24  C   UNL     1       0.349  10.533  20.790  0.00  0.00    +0.000 A 
ATOM     25  N   UNL     1       0.759   9.256  21.138  0.00  0.00    +0.000 N 
ATOM     26  C   UNL     1       1.423   8.392  20.304  0.00  0.00    +0.000 A 
ATOM     27  O   UNL     1       1.734   7.265  20.682  0.00  0.00    +0.000 OA
ATOM     28  H   UNL     1       0.562   8.908  22.072  0.00  0.00    +0.000 HD
BRANCH  24  29
ATOM     29  C   UNL     1      -0.341  11.377  21.838  0.00  0.00    +0.000 C 
ATOM     30  F   UNL     1       0.255  12.593  21.964  0.00  0.00    +0.000 F 
ATOM     31  F   UNL     1      -1.640  11.607  21.524  0.00  0.00    +0.000 F 
ATOM     32  F   UNL     1      -0.318  10.795  23.062  0.00  0.00    +0.000 F 
ENDBRANCH  24  29
ENDBRANCH  18  21
ENDBRANCH   1  17
TORSDOF 7
ENDMDL
MODEL 5
REMARK VINA RESULT:      -8.8      2.362      4.943
REMARK  Name = 
REMARK  7 active torsions:
REMARK  status: ('A' for Active; 'I' for Inactive)
REMARK    1  A    between atoms: C_2  and  C_3
REMARK    2  A    between atoms: C_3  and  C_4
REMARK    3  A    between atoms: C_8  and  C_9
REMARK    4  A    between atoms: C_9  and  N_10
REMARK    5  A    between atoms: C_9  and  C_24
REMARK    6  A    between atoms: C_11  and  C_13
REMARK    7  A    between atoms: C_16  and  C_17
REMARK                            x       y       z     vdW  Elec       q    Type
REMARK                         _______ _______ _______ _____ _____    ______ ____
ROOT
ATOM      1  C   UNL     1       3.640   6.197  17.717  0.00  0.00    +0.000 C 
ENDROOT
BRANCH   1   6
ATOM      2  C   UNL     1       1.660   3.063  18.819  0.00  0.00    +0.000 A 
ATOM      3  C   UNL     1       2.202   2.104  17.959  0.00  0.00    +0.000 A 
ATOM      4  C   UNL     1       3.195   2.457  17.046  0.00  0.00    +0.000 A 
ATOM      5  C   UNL     1       3.657   3.772  16.984  0.00  0.00    +0.000 A 
ATOM      6  C   UNL     1       3.112   4.767  17.812  0.00  0.00    +0.000 A 
ATOM      7  C   UNL     1       2.113   4.389  18.731  0.00  0.00    +0.000 A 
BRANCH   2   8
ATOM      8  C   UNL     1       0.655   2.673  19.878  0.00  0.00    +0.000 C 
BRANCH   8  10
ATOM      9  C   UNL     1       2.353   2.581  21.739  0.00  0.00    +0.000 C 
ATOM     10  C   UNL     1       1.161   2.967  21.265  0.00  0.00    +0.000 C 
ENDBRANCH   8  10
ENDBRANCH   2   8
ENDBRANCH   1   6
BRANCH   1  11
ATOM     11  C   UNL     1       5.131   6.313  18.022  0.00  0.00    +0.000 A 
ATOM     12  C   UNL     1       5.693   5.575  19.077  0.00  0.00    +0.000 A 
ATOM     13  C   UNL     1       7.063   5.641  19.345  0.00  0.00    +0.000 A 
ATOM     14  C   UNL     1       7.891   6.441  18.562  0.00  0.00    +0.000 A 
ATOM     15  C   UNL     1       7.350   7.183  17.515  0.00  0.00    +0.000 A 
ATOM     16  C   UNL     1       5.983   7.118  17.244  0.00  0.00    +0.000 A 
ENDBRANCH   1  11
BRANCH   1  17
ATOM     17  N   UNL     1       2.900   7.096  18.584  0.00  0.00    +0.000 N 
ATOM     18  C   UNL     1       2.364   8.292  18.197  0.00  0.00    +0.000 C 
ATOM     19  O   UNL     1       2.463   8.743  17.058  0.00  0.00    +0.000 OA
ATOM     20  H   UNL     1       2.804   6.818  19.557  0.00  0.00    +0.000 HD
BRANCH  18  21
ATOM     21  C   UNL     1       1.652   9.035  19.281  0.00  0.00    +0.000 A 
ATOM     22  C   UNL     1       1.314   8.377  20.406  0.00  0.00    +0.000 A 
ATOM     23  C   UNL     1       0.566   9.016  21.468  0.00  0.00    +0.000 A 
ATOM     24  C   UNL     1       0.174  10.298  21.355  0.00  0.00    +0.000 A 
ATOM     25  N   UNL     1       0.543  10.999  20.218  0.00  0.00    +0.000 N 
ATOM     26  C   UNL     1       1.271  10.478  19.179  0.00  0.00    +0.000 A 
ATOM     27  O   UNL     1       1.576  11.174  18.213  0.00  0.00    +0.000 OA
ATOM     28  H   UNL     1       0.270  11.973  20.125  0.00  0.00    +0.000 HD
BRANCH  24  29
ATOM     29  C   UNL     1      -0.662  11.006  22.397  0.00  0.00    +0.000 C 
ATOM     30  F   UNL     1      -1.941  11.182  21.969  0.00  0.00    +0.000 F 
ATOM     31  F   UNL     1      -0.728  10.301  23.554  0.00  0.00    +0.000 F 
ATOM     32  F   UNL     1      -0.172  12.233  22.699  0.00  0.00    +0.000 F 
ENDBRANCH  24  29
ENDBRANCH  18  21
ENDBRANCH   1  17
TORSDOF 7
ENDMDL
MODEL 6
REMARK VINA RESULT:      -8.6      0.831      1.250
REMARK  Name = 
REMARK  7 active torsions:
REMARK  status: ('A' for Active; 'I' for Inactive)
REMARK    1  A    between atoms: C_2  and  C_3
REMARK    2  A    between atoms: C_3  and  C_4
REMARK    3  A    between atoms: C_8  and  C_9
REMARK    4  A    between atoms: C_9  and  N_10
REMARK    5  A    between atoms: C_9  and  C_24
REMARK    6  A    between atoms: C_11  and  C_13
REMARK    7  A    between atoms: C_16  and  C_17
REMARK                            x       y       z     vdW  Elec       q    Type
REMARK                         _______ _______ _______ _____ _____    ______ ____
ROOT
ATOM      1  C   UNL     1       3.637   5.846  19.111  0.00  0.00    +0.000 C 
ENDROOT
BRANCH   1   6
ATOM      2  C   UNL     1       5.844   4.736  16.135  0.00  0.00    +0.000 A 
ATOM      3  C   UNL     1       6.863   5.691  16.204  0.00  0.00    +0.000 A 
ATOM      4  C   UNL     1       6.846   6.669  17.197  0.00  0.00    +0.000 A 
ATOM      5  C   UNL     1       5.810   6.704  18.132  0.00  0.00    +0.000 A 
ATOM      6  C   UNL     1       4.756   5.779  18.073  0.00  0.00    +0.000 A 
ATOM      7  C   UNL     1       4.793   4.795  17.065  0.00  0.00    +0.000 A 
BRANCH   2   8
ATOM      8  C   UNL     1       5.902   3.613  15.126  0.00  0.00    +0.000 C 
BRANCH   8  10
ATOM      9  C   UNL     1       6.030   3.453  12.613  0.00  0.00    +0.000 C 
ATOM     10  C   UNL     1       6.271   4.111  13.755  0.00  0.00    +0.000 C 
ENDBRANCH   8  10
ENDBRANCH   2   8
ENDBRANCH   1   6
BRANCH   1  11
ATOM     11  C   UNL     1       2.734   4.615  19.107  0.00  0.00    +0.000 A 
ATOM     12  C   UNL     1       2.850   3.653  20.124  0.00  0.00    +0.000 A 
ATOM     13  C   UNL     1       2.006   2.540  20.156  0.00  0.00    +0.000 A 
ATOM     14  C   UNL     1       1.031   2.374  19.175  0.00  0.00    +0.000 A 
ATOM     15  C   UNL     1       0.904   3.316  18.158  0.00  0.00    +0.000 A 
ATOM     16  C   UNL     1       1.745   4.428  18.124  0.00  0.00    +0.000 A 
ENDBRANCH   1  11
BRANCH   1  17
ATOM     17  N   UNL     1       2.825   7.037  18.943  0.00  0.00    +0.000 N 
ATOM     18  C   UNL     1       2.013   7.573  19.902  0.00  0.00    +0.000 C 
ATOM     19  O   UNL     1       1.875   7.087  21.023  0.00  0.00    +0.000 OA
ATOM     20  H   UNL     1       2.850   7.483  18.029  0.00  0.00    +0.000 HD
BRANCH  18  21
ATOM     21  C   UNL     1       1.276   8.803  19.480  0.00  0.00    +0.000 A 
ATOM     22  C   UNL     1       0.451   9.401  20.360  0.00  0.00    +0.000 A 
ATOM     23  C   UNL     1      -0.343  10.556  19.999  0.00  0.00    +0.000 A 
ATOM     24  C   UNL     1      -0.286  11.063  18.754  0.00  0.00    +0.000 A 
ATOM     25  N   UNL     1       0.582  10.480  17.846  0.00  0.00    +0.000 N 
ATOM     26  C   UNL     1       1.387   9.402  18.114  0.00  0.00    +0.000 A 
ATOM     27  O   UNL     1       2.148   8.956  17.258  0.00  0.00    +0.000 OA
ATOM     28  H   UNL     1       0.650  10.862  16.907  0.00  0.00    +0.000 HD
BRANCH  24  29
ATOM     29  C   UNL     1      -1.135  12.227  18.293  0.00  0.00    +0.000 C 
ATOM     30  F   UNL     1      -1.813  11.923  17.153  0.00  0.00    +0.000 F 
ATOM     31  F   UNL     1      -2.061  12.575  19.221  0.00  0.00    +0.000 F 
ATOM     32  F   UNL     1      -0.392  13.330  18.030  0.00  0.00    +0.000 F 
ENDBRANCH  24  29
ENDBRANCH  18  21
ENDBRANCH   1  17
TORSDOF 7
ENDMDL
MODEL 7
REMARK VINA RESULT:      -8.5      1.205      2.192
REMARK  Name = 
REMARK  7 active torsions:
REMARK  status: ('A' for Active; 'I' for Inactive)
REMARK    1  A    between atoms: C_2  and  C_3
REMARK    2  A    between atoms: C_3  and  C_4
REMARK    3  A    between atoms: C_8  and  C_9
REMARK    4  A    between atoms: C_9  and  N_10
REMARK    5  A    between atoms: C_9  and  C_24
REMARK    6  A    between atoms: C_11  and  C_13
REMARK    7  A    between atoms: C_16  and  C_17
REMARK                            x       y       z     vdW  Elec       q    Type
REMARK                         _______ _______ _______ _____ _____    ______ ____
ROOT
ATOM      1  C   UNL     1       3.421   5.855  19.269  0.00  0.00    +0.000 C 
ENDROOT
BRANCH   1   6
ATOM      2  C   UNL     1       6.556   6.346  17.058  0.00  0.00    +0.000 A 
ATOM      3  C   UNL     1       6.358   5.341  16.107  0.00  0.00    +0.000 A 
ATOM      4  C   UNL     1       5.230   4.524  16.171  0.00  0.00    +0.000 A 
ATOM      5  C   UNL     1       4.287   4.705  17.185  0.00  0.00    +0.000 A 
ATOM      6  C   UNL     1       4.471   5.686  18.172  0.00  0.00    +0.000 A 
ATOM      7  C   UNL     1       5.616   6.503  18.088  0.00  0.00    +0.000 A 
BRANCH   2   8
ATOM      8  C   UNL     1       7.723   7.300  16.944  0.00  0.00    +0.000 C 
BRANCH   8  10
ATOM      9  C   UNL     1       8.488   9.344  18.206  0.00  0.00    +0.000 C 
ATOM     10  C   UNL     1       7.509   8.547  17.760  0.00  0.00    +0.000 C 
ENDBRANCH   8  10
ENDBRANCH   2   8
ENDBRANCH   1   6
BRANCH   1  11
ATOM     11  C   UNL     1       2.506   4.643  19.422  0.00  0.00    +0.000 A 
ATOM     12  C   UNL     1       2.491   3.919  20.626  0.00  0.00    +0.000 A 
ATOM     13  C   UNL     1       1.633   2.830  20.795  0.00  0.00    +0.000 A 
ATOM     14  C   UNL     1       0.773   2.451  19.767  0.00  0.00    +0.000 A 
ATOM     15  C   UNL     1       0.777   3.155  18.565  0.00  0.00    +0.000 A 
ATOM     16  C   UNL     1       1.633   4.243  18.394  0.00  0.00    +0.000 A 
ENDBRANCH   1  11
BRANCH   1  17
ATOM     17  N   UNL     1       2.614   7.042  19.054  0.00  0.00    +0.000 N 
ATOM     18  C   UNL     1       1.921   7.704  20.028  0.00  0.00    +0.000 C 
ATOM     19  O   UNL     1       1.901   7.351  21.205  0.00  0.00    +0.000 OA
ATOM     20  H   UNL     1       2.544   7.382  18.098  0.00  0.00    +0.000 HD
BRANCH  18  21
ATOM     21  C   UNL     1       1.161   8.899  19.550  0.00  0.00    +0.000 A 
ATOM     22  C   UNL     1       0.272   9.478  20.379  0.00  0.00    +0.000 A 
ATOM     23  C   UNL     1      -0.546  10.596  19.960  0.00  0.00    +0.000 A 
ATOM     24  C   UNL     1      -0.447  11.087  18.711  0.00  0.00    +0.000 A 
ATOM     25  N   UNL     1       0.486  10.524  17.857  0.00  0.00    +0.000 N 
ATOM     26  C   UNL     1       1.316   9.481  18.181  0.00  0.00    +0.000 A 
ATOM     27  O   UNL     1       2.134   9.052  17.370  0.00  0.00    +0.000 OA
ATOM     28  H   UNL     1       0.585  10.894  16.916  0.00  0.00    +0.000 HD
BRANCH  24  29
ATOM     29  C   UNL     1      -1.315  12.211  18.190  0.00  0.00    +0.000 C 
ATOM     30  F   UNL     1      -2.012  11.826  17.087  0.00  0.00    +0.000 F 
ATOM     31  F   UNL     1      -2.226  12.613  19.111  0.00  0.00    +0.000 F 
ATOM     32  F   UNL     1      -0.587  13.299  17.840  0.00  0.00    +0.000 F 
ENDBRANCH  24  29
ENDBRANCH  18  21
ENDBRANCH   1  17
TORSDOF 7
ENDMDL
MODEL 8
REMARK VINA RESULT:      -8.4      4.150      8.414
REMARK  Name = 
REMARK  7 active torsions:
REMARK  status: ('A' for Active; 'I' for Inactive)
REMARK    1  A    between atoms: C_2  and  C_3
REMARK    2  A    between atoms: C_3  and  C_4
REMARK    3  A    between atoms: C_8  and  C_9
REMARK    4  A    between atoms: C_9  and  N_10
REMARK    5  A    between atoms: C_9  and  C_24
REMARK    6  A    between atoms: C_11  and  C_13
REMARK    7  A    between atoms: C_16  and  C_17
REMARK                            x       y       z     vdW  Elec       q    Type
REMARK                         _______ _______ _______ _____ _____    ______ ____
ROOT
ATOM      1  C   UNL     1       0.216  10.598  19.848  0.00  0.00    +0.000 C 
ENDROOT
BRANCH   1   6
ATOM      2  C   UNL     1      -2.498  10.249  17.115  0.00  0.00    +0.000 A 
ATOM      3  C   UNL     1      -3.442  11.173  17.574  0.00  0.00    +0.000 A 
ATOM      4  C   UNL     1      -3.205  11.903  18.738  0.00  0.00    +0.000 A 
ATOM      5  C   UNL     1      -2.022  11.717  19.455  0.00  0.00    +0.000 A 
ATOM      6  C   UNL     1      -1.067  10.776  19.038  0.00  0.00    +0.000 A 
ATOM      7  C   UNL     1      -1.323  10.052  17.858  0.00  0.00    +0.000 A 
BRANCH   2   8
ATOM      8  C   UNL     1      -2.699   9.524  15.804  0.00  0.00    +0.000 C 
BRANCH   8  10
ATOM      9  C   UNL     1      -3.978  10.008  13.686  0.00  0.00    +0.000 C 
ATOM     10  C   UNL     1      -3.278  10.427  14.749  0.00  0.00    +0.000 C 
ENDBRANCH   8  10
ENDBRANCH   2   8
ENDBRANCH   1   6
BRANCH   1  11
ATOM     11  C   UNL     1       1.207  11.746  19.671  0.00  0.00    +0.000 A 
ATOM     12  C   UNL     1       1.846  11.941  18.435  0.00  0.00    +0.000 A 
ATOM     13  C   UNL     1       2.726  13.009  18.246  0.00  0.00    +0.000 A 
ATOM     14  C   UNL     1       2.978  13.901  19.286  0.00  0.00    +0.000 A 
ATOM     15  C   UNL     1       2.356  13.720  20.519  0.00  0.00    +0.000 A 
ATOM     16  C   UNL     1       1.476  12.655  20.710  0.00  0.00    +0.000 A 
ENDBRANCH   1  11
BRANCH   1  17
ATOM     17  N   UNL     1       0.874   9.343  19.533  0.00  0.00    +0.000 N 
ATOM     18  C   UNL     1       1.418   8.491  20.453  0.00  0.00    +0.000 C 
ATOM     19  O   UNL     1       1.414   8.709  21.663  0.00  0.00    +0.000 OA
ATOM     20  H   UNL     1       0.956   9.103  18.548  0.00  0.00    +0.000 HD
BRANCH  18  21
ATOM     21  C   UNL     1       2.043   7.264  19.874  0.00  0.00    +0.000 A 
ATOM     22  C   UNL     1       1.933   6.101  20.543  0.00  0.00    +0.000 A 
ATOM     23  C   UNL     1       2.569   4.888  20.074  0.00  0.00    +0.000 A 
ATOM     24  C   UNL     1       3.307   4.892  18.949  0.00  0.00    +0.000 A 
ATOM     25  N   UNL     1       3.402   6.073  18.231  0.00  0.00    +0.000 N 
ATOM     26  C   UNL     1       2.811   7.258  18.590  0.00  0.00    +0.000 A 
ATOM     27  O   UNL     1       2.927   8.258  17.886  0.00  0.00    +0.000 OA
ATOM     28  H   UNL     1       3.941   6.089  17.370  0.00  0.00    +0.000 HD
BRANCH  24  29
ATOM     29  C   UNL     1       4.049   3.677  18.438  0.00  0.00    +0.000 C 
ATOM     30  F   UNL     1       4.674   3.018  19.451  0.00  0.00    +0.000 F 
ATOM     31  F   UNL     1       3.214   2.788  17.847  0.00  0.00    +0.000 F 
ATOM     32  F   UNL     1       5.001   4.003  17.531  0.00  0.00    +0.000 F 
ENDBRANCH  24  29
ENDBRANCH  18  21
ENDBRANCH   1  17
TORSDOF 7
ENDMDL
MODEL 9
REMARK VINA RESULT:      -8.3      0.964      1.970
REMARK  Name = 
REMARK  7 active torsions:
REMARK  status: ('A' for Active; 'I' for Inactive)
REMARK    1  A    between atoms: C_2  and  C_3
REMARK    2  A    between atoms: C_3  and  C_4
REMARK    3  A    between atoms: C_8  and  C_9
REMARK    4  A    between atoms: C_9  and  N_10
REMARK    5  A    between atoms: C_9  and  C_24
REMARK    6  A    between atoms: C_11  and  C_13
REMARK    7  A    between atoms: C_16  and  C_17
REMARK                            x       y       z     vdW  Elec       q    Type
REMARK                         _______ _______ _______ _____ _____    ______ ____
ROOT
ATOM      1  C   UNL     1       3.156   6.134  19.298  0.00  0.00    +0.000 C 
ENDROOT
BRANCH   1   6
ATOM      2  C   UNL     1       6.360   5.206  17.342  0.00  0.00    +0.000 A 
ATOM      3  C   UNL     1       6.136   5.894  16.145  0.00  0.00    +0.000 A 
ATOM      4  C   UNL     1       4.978   6.651  15.974  0.00  0.00    +0.000 A 
ATOM      5  C   UNL     1       4.032   6.729  16.997  0.00  0.00    +0.000 A 
ATOM      6  C   UNL     1       4.212   6.027  18.199  0.00  0.00    +0.000 A 
ATOM      7  C   UNL     1       5.390   5.271  18.355  0.00  0.00    +0.000 A 
BRANCH   2   8
ATOM      8  C   UNL     1       7.655   4.463  17.577  0.00  0.00    +0.000 C 
BRANCH   8  10
ATOM      9  C   UNL     1       8.234   6.143  19.365  0.00  0.00    +0.000 C 
ATOM     10  C   UNL     1       8.338   4.915  18.839  0.00  0.00    +0.000 C 
ENDBRANCH   8  10
ENDBRANCH   2   8
ENDBRANCH   1   6
BRANCH   1  11
ATOM     11  C   UNL     1       2.257   4.904  19.393  0.00  0.00    +0.000 A 
ATOM     12  C   UNL     1       1.834   4.248  18.225  0.00  0.00    +0.000 A 
ATOM     13  C   UNL     1       1.042   3.099  18.296  0.00  0.00    +0.000 A 
ATOM     14  C   UNL     1       0.665   2.586  19.534  0.00  0.00    +0.000 A 
ATOM     15  C   UNL     1       1.071   3.225  20.703  0.00  0.00    +0.000 A 
ATOM     16  C   UNL     1       1.863   4.373  20.634  0.00  0.00    +0.000 A 
ENDBRANCH   1  11
BRANCH   1  17
ATOM     17  N   UNL     1       2.333   7.319  19.132  0.00  0.00    +0.000 N 
ATOM     18  C   UNL     1       1.788   8.042  20.156  0.00  0.00    +0.000 C 
ATOM     19  O   UNL     1       1.932   7.754  21.342  0.00  0.00    +0.000 OA
ATOM     20  H   UNL     1       2.131   7.606  18.178  0.00  0.00    +0.000 HD
BRANCH  18  21
ATOM     21  C   UNL     1       0.975   9.219  19.723  0.00  0.00    +0.000 A 
ATOM     22  C   UNL     1       0.016   9.684  20.546  0.00  0.00    +0.000 A 
ATOM     23  C   UNL     1      -0.852  10.778  20.164  0.00  0.00    +0.000 A 
ATOM     24  C   UNL     1      -0.731  11.360  18.957  0.00  0.00    +0.000 A 
ATOM     25  N   UNL     1       0.273  10.915  18.112  0.00  0.00    +0.000 N 
ATOM     26  C   UNL     1       1.153   9.904  18.405  0.00  0.00    +0.000 A 
ATOM     27  O   UNL     1       2.030   9.582  17.607  0.00  0.00    +0.000 OA
ATOM     28  H   UNL     1       0.389  11.355  17.204  0.00  0.00    +0.000 HD
BRANCH  24  29
ATOM     29  C   UNL     1      -1.645  12.462  18.472  0.00  0.00    +0.000 C 
ATOM     30  F   UNL     1      -2.554  11.992  17.576  0.00  0.00    +0.000 F 
ATOM     31  F   UNL     1      -2.347  13.020  19.489  0.00  0.00    +0.000 F 
ATOM     32  F   UNL     1      -0.962  13.459  17.858  0.00  0.00    +0.000 F 
ENDBRANCH  24  29
ENDBRANCH  18  21
ENDBRANCH   1  17
TORSDOF 7
ENDMDL
