MODEL 1
REMARK VINA RESULT:      -7.6      0.000      0.000
REMARK  Name = 
REMARK  7 active torsions:
REMARK  status: ('A' for Active; 'I' for Inactive)
REMARK    1  A    between atoms: C_1  and  C_2
REMARK    2  A    between atoms: C_4  and  N_5
REMARK    3  A    between atoms: C_6  and  C_8
REMARK    4  A    between atoms: C_8  and  C_9
REMARK    5  A    between atoms: C_8  and  N_10
REMARK    6  A    between atoms: N_13  and  C_14
REMARK    7  A    between atoms: C_14  and  C_15
REMARK                            x       y       z     vdW  Elec       q    Type
REMARK                         _______ _______ _______ _____ _____    ______ ____
ROOT
ATOM      1  C   UNL     1       6.826   6.703  17.500  0.00  0.00    +0.000 C 
ATOM      2  C   UNL     1       7.991   6.585  18.492  0.00  0.00    +0.000 C 
ENDROOT
BRANCH   1   3
ATOM      3  N   UNL     1       5.463   6.844  18.075  0.00  0.00    +0.000 NA
ATOM      4  C   UNL     1       5.039   5.599  18.762  0.00  0.00    +0.000 C 
ATOM      5  C   UNL     1       3.710   5.790  19.530  0.00  0.00    +0.000 C 
ATOM      6  N   UNL     1       2.590   6.298  18.705  0.00  0.00    +0.000 NA
ATOM      7  C   UNL     1       3.072   7.459  17.921  0.00  0.00    +0.000 C 
ATOM      8  C   UNL     1       4.393   7.230  17.132  0.00  0.00    +0.000 C 
BRANCH   6   9
ATOM      9  C   UNL     1       2.042   5.220  17.862  0.00  0.00    +0.000 C 
BRANCH   9  10
ATOM     10  C   UNL     1       1.804   3.940  18.618  0.00  0.00    +0.000 A 
ATOM     11  C   UNL     1       1.032   3.734  19.746  0.00  0.00    +0.000 A 
ATOM     12  C   UNL     1       1.087   2.384  20.201  0.00  0.00    +0.000 A 
ATOM     13  C   UNL     1       1.890   1.602  19.402  0.00  0.00    +0.000 A 
ATOM     14  S   UNL     1       2.574   2.491  18.112  0.00  0.00    +0.000 S 
ENDBRANCH   9  10
ENDBRANCH   6   9
ENDBRANCH   1   3
BRANCH   1  16
ATOM     15  N   UNL     1       6.272   5.812  15.262  0.00  0.00    +0.000 N 
ATOM     16  C   UNL     1       6.937   5.572  16.450  0.00  0.00    +0.000 C 
ATOM     17  O   UNL     1       7.642   4.586  16.668  0.00  0.00    +0.000 OA
ATOM     18  H   UNL     1       5.625   6.594  15.232  0.00  0.00    +0.000 HD
BRANCH  15  22
ATOM     19  C   UNL     1       5.921   2.369  11.642  0.00  0.00    +0.000 C 
ATOM     20  C   UNL     1       6.280   3.481  12.555  0.00  0.00    +0.000 A 
ATOM     21  C   UNL     1       5.653   3.896  13.757  0.00  0.00    +0.000 A 
ATOM     22  C   UNL     1       6.402   4.973  14.177  0.00  0.00    +0.000 A 
ATOM     23  O   UNL     1       7.407   5.176  13.282  0.00  0.00    +0.000 OA
ATOM     24  N   UNL     1       7.333   4.245  12.265  0.00  0.00    +0.000 NA
ENDBRANCH  15  22
ENDBRANCH   1  16
TORSDOF 5
ENDMDL
MODEL 2
REMARK VINA RESULT:      -6.7      4.011      8.300
REMARK  Name = 
REMARK  7 active torsions:
REMARK  status: ('A' for Active; 'I' for Inactive)
REMARK    1  A    between atoms: C_1  and  C_2
REMARK    2  A    between atoms: C_4  and  N_5
REMARK    3  A    between atoms: C_6  and  C_8
REMARK    4  A    between atoms: C_8  and  C_9
REMARK    5  A    between atoms: C_8  and  N_10
REMARK    6  A    between atoms: N_13  and  C_14
REMARK    7  A    between atoms: C_14  and  C_15
REMARK                            x       y       z     vdW  Elec       q    Type
REMARK                         _______ _______ _______ _____ _____    ______ ____
ROOT
ATOM      1  C   UNL     1       2.772   5.688  19.298  0.00  0.00    +0.000 C 
ATOM      2  C   UNL     1       2.680   4.654  20.428  0.00  0.00    +0.000 C 
ENDROOT
BRANCH   1   3
ATOM      3  N   UNL     1       4.101   5.872  18.658  0.00  0.00    +0.000 NA
ATOM      4  C   UNL     1       3.972   6.036  17.189  0.00  0.00    +0.000 C 
ATOM      5  C   UNL     1       5.319   6.421  16.533  0.00  0.00    +0.000 C 
ATOM      6  N   UNL     1       6.433   5.489  16.824  0.00  0.00    +0.000 NA
ATOM      7  C   UNL     1       6.460   5.229  18.282  0.00  0.00    +0.000 C 
ATOM      8  C   UNL     1       5.100   4.813  18.911  0.00  0.00    +0.000 C 
BRANCH   6   9
ATOM      9  C   UNL     1       6.299   4.260  16.022  0.00  0.00    +0.000 C 
BRANCH   9  10
ATOM     10  C   UNL     1       6.738   4.436  14.592  0.00  0.00    +0.000 A 
ATOM     11  C   UNL     1       7.708   5.279  14.083  0.00  0.00    +0.000 A 
ATOM     12  C   UNL     1       7.808   5.195  12.664  0.00  0.00    +0.000 A 
ATOM     13  C   UNL     1       6.920   4.285  12.136  0.00  0.00    +0.000 A 
ATOM     14  S   UNL     1       5.971   3.540  13.345  0.00  0.00    +0.000 S 
ENDBRANCH   9  10
ENDBRANCH   6   9
ENDBRANCH   1   3
BRANCH   1  16
ATOM     15  N   UNL     1       1.470   6.943  20.982  0.00  0.00    +0.000 N 
ATOM     16  C   UNL     1       2.126   7.013  19.767  0.00  0.00    +0.000 C 
ATOM     17  O   UNL     1       2.279   8.046  19.115  0.00  0.00    +0.000 OA
ATOM     18  H   UNL     1       1.299   6.023  21.375  0.00  0.00    +0.000 HD
BRANCH  15  22
ATOM     19  C   UNL     1      -1.183  10.697  22.970  0.00  0.00    +0.000 C 
ATOM     20  C   UNL     1      -0.152   9.736  22.508  0.00  0.00    +0.000 A 
ATOM     21  C   UNL     1      -0.300   8.569  21.718  0.00  0.00    +0.000 A 
ATOM     22  C   UNL     1       0.978   8.069  21.605  0.00  0.00    +0.000 A 
ATOM     23  O   UNL     1       1.825   8.891  22.282  0.00  0.00    +0.000 OA
ATOM     24  N   UNL     1       1.121   9.935  22.850  0.00  0.00    +0.000 NA
ENDBRANCH  15  22
ENDBRANCH   1  16
TORSDOF 5
ENDMDL
MODEL 3
REMARK VINA RESULT:      -6.5      3.637      7.666
REMARK  Name = 
REMARK  7 active torsions:
REMARK  status: ('A' for Active; 'I' for Inactive)
REMARK    1  A    between atoms: C_1  and  C_2
REMARK    2  A    between atoms: C_4  and  N_5
REMARK    3  A    between atoms: C_6  and  C_8
REMARK    4  A    between atoms: C_8  and  C_9
REMARK    5  A    between atoms: C_8  and  N_10
REMARK    6  A    between atoms: N_13  and  C_14
REMARK    7  A    between atoms: C_14  and  C_15
REMARK                            x       y       z     vdW  Elec       q    Type
REMARK                         _______ _______ _______ _____ _____    ______ ____
ROOT
ATOM      1  C   UNL     1       3.442   4.749  19.051  0.00  0.00    +0.000 C 
ATOM      2  C   UNL     1       3.993   3.750  20.076  0.00  0.00    +0.000 C 
ENDROOT
BRANCH   1   3
ATOM      3  N   UNL     1       4.437   5.493  18.234  0.00  0.00    +0.000 NA
ATOM      4  C   UNL     1       4.305   5.160  16.795  0.00  0.00    +0.000 C 
ATOM      5  C   UNL     1       5.196   6.065  15.911  0.00  0.00    +0.000 C 
ATOM      6  N   UNL     1       6.630   6.067  16.282  0.00  0.00    +0.000 NA
ATOM      7  C   UNL     1       6.736   6.264  17.746  0.00  0.00    +0.000 C 
ATOM      8  C   UNL     1       5.854   5.320  18.613  0.00  0.00    +0.000 C 
BRANCH   6   9
ATOM      9  C   UNL     1       7.283   4.830  15.818  0.00  0.00    +0.000 C 
BRANCH   9  10
ATOM     10  C   UNL     1       7.025   4.534  14.364  0.00  0.00    +0.000 A 
ATOM     11  C   UNL     1       6.116   3.653  13.810  0.00  0.00    +0.000 A 
ATOM     12  C   UNL     1       6.195   3.616  12.387  0.00  0.00    +0.000 A 
ATOM     13  C   UNL     1       7.153   4.477  11.901  0.00  0.00    +0.000 A 
ATOM     14  S   UNL     1       7.952   5.321  13.153  0.00  0.00    +0.000 S 
ENDBRANCH   9  10
ENDBRANCH   6   9
ENDBRANCH   1   3
BRANCH   1  16
ATOM     15  N   UNL     1       2.723   7.010  19.744  0.00  0.00    +0.000 N 
ATOM     16  C   UNL     1       2.404   5.665  19.742  0.00  0.00    +0.000 C 
ATOM     17  O   UNL     1       1.349   5.197  20.172  0.00  0.00    +0.000 OA
ATOM     18  H   UNL     1       3.666   7.273  19.474  0.00  0.00    +0.000 HD
BRANCH  15  22
ATOM     19  C   UNL     1      -0.264  10.175  22.222  0.00  0.00    +0.000 C 
ATOM     20  C   UNL     1       0.511   9.387  21.234  0.00  0.00    +0.000 A 
ATOM     21  C   UNL     1       1.399   8.303  21.445  0.00  0.00    +0.000 A 
ATOM     22  C   UNL     1       1.832   7.965  20.182  0.00  0.00    +0.000 A 
ATOM     23  O   UNL     1       1.234   8.794  19.284  0.00  0.00    +0.000 OA
ATOM     24  N   UNL     1       0.408   9.687  19.939  0.00  0.00    +0.000 NA
ENDBRANCH  15  22
ENDBRANCH   1  16
TORSDOF 5
ENDMDL
MODEL 4
REMARK VINA RESULT:      -6.5      2.593      3.812
REMARK  Name = 
REMARK  7 active torsions:
REMARK  status: ('A' for Active; 'I' for Inactive)
REMARK    1  A    between atoms: C_1  and  C_2
REMARK    2  A    between atoms: C_4  and  N_5
REMARK    3  A    between atoms: C_6  and  C_8
REMARK    4  A    between atoms: C_8  and  C_9
REMARK    5  A    between atoms: C_8  and  N_10
REMARK    6  A    between atoms: N_13  and  C_14
REMARK    7  A    between atoms: C_14  and  C_15
REMARK                            x       y       z     vdW  Elec       q    Type
REMARK                         _______ _______ _______ _____ _____    ______ ____
ROOT
ATOM      1  C   UNL     1       6.291   5.993  17.956  0.00  0.00    +0.000 C 
ATOM      2  C   UNL     1       7.058   5.550  19.208  0.00  0.00    +0.000 C 
ENDROOT
BRANCH   1   3
ATOM      3  N   UNL     1       4.809   6.057  18.060  0.00  0.00    +0.000 NA
ATOM      4  C   UNL     1       4.311   7.429  17.792  0.00  0.00    +0.000 C 
ATOM      5  C   UNL     1       2.767   7.473  17.705  0.00  0.00    +0.000 C 
ATOM      6  N   UNL     1       2.068   6.923  18.890  0.00  0.00    +0.000 NA
ATOM      7  C   UNL     1       2.673   5.613  19.226  0.00  0.00    +0.000 C 
ATOM      8  C   UNL     1       4.224   5.603  19.339  0.00  0.00    +0.000 C 
BRANCH   6   9
ATOM      9  C   UNL     1       2.115   7.884  20.007  0.00  0.00    +0.000 C 
BRANCH   9  10
ATOM     10  C   UNL     1       1.080   8.970  19.896  0.00  0.00    +0.000 A 
ATOM     11  C   UNL     1       0.707   9.699  18.783  0.00  0.00    +0.000 A 
ATOM     12  C   UNL     1      -0.285  10.678  19.083  0.00  0.00    +0.000 A 
ATOM     13  C   UNL     1      -0.645  10.659  20.411  0.00  0.00    +0.000 A 
ATOM     14  S   UNL     1       0.210   9.469  21.290  0.00  0.00    +0.000 S 
ENDBRANCH   9  10
ENDBRANCH   6   9
ENDBRANCH   1   3
BRANCH   1  16
ATOM     15  N   UNL     1       6.035   5.327  15.590  0.00  0.00    +0.000 N 
ATOM     16  C   UNL     1       6.787   5.177  16.739  0.00  0.00    +0.000 C 
ATOM     17  O   UNL     1       7.825   4.518  16.813  0.00  0.00    +0.000 OA
ATOM     18  H   UNL     1       5.136   5.793  15.670  0.00  0.00    +0.000 HD
BRANCH  15  22
ATOM     19  C   UNL     1       6.767   2.740  11.365  0.00  0.00    +0.000 C 
ATOM     20  C   UNL     1       6.785   3.685  12.507  0.00  0.00    +0.000 A 
ATOM     21  C   UNL     1       5.999   3.685  13.687  0.00  0.00    +0.000 A 
ATOM     22  C   UNL     1       6.435   4.788  14.387  0.00  0.00    +0.000 A 
ATOM     23  O   UNL     1       7.417   5.396  13.667  0.00  0.00    +0.000 OA
ATOM     24  N   UNL     1       7.638   4.710  12.489  0.00  0.00    +0.000 NA
ENDBRANCH  15  22
ENDBRANCH   1  16
TORSDOF 5
ENDMDL
MODEL 5
REMARK VINA RESULT:      -6.3      3.698      4.672
REMARK  Name = 
REMARK  7 active torsions:
REMARK  status: ('A' for Active; 'I' for Inactive)
REMARK    1  A    between atoms: C_1  and  C_2
REMARK    2  A    between atoms: C_4  and  N_5
REMARK    3  A    between atoms: C_6  and  C_8
REMARK    4  A    between atoms: C_8  and  C_9
REMARK    5  A    between atoms: C_8  and  N_10
REMARK    6  A    between atoms: N_13  and  C_14
REMARK    7  A    between atoms: C_14  and  C_15
REMARK                            x       y       z     vdW  Elec       q    Type
REMARK                         _______ _______ _______ _____ _____    ______ ____
ROOT
ATOM      1  C   UNL     1       4.601   5.182  18.866  0.00  0.00    +0.000 C 
ATOM      2  C   UNL     1       4.831   3.711  19.236  0.00  0.00    +0.000 C 
ENDROOT
BRANCH   1   3
ATOM      3  N   UNL     1       3.264   5.753  19.174  0.00  0.00    +0.000 NA
ATOM      4  C   UNL     1       3.255   7.225  18.988  0.00  0.00    +0.000 C 
ATOM      5  C   UNL     1       1.829   7.811  19.115  0.00  0.00    +0.000 C 
ATOM      6  N   UNL     1       1.135   7.474  20.380  0.00  0.00    +0.000 NA
ATOM      7  C   UNL     1       1.274   6.019  20.619  0.00  0.00    +0.000 C 
ATOM      8  C   UNL     1       2.722   5.461  20.517  0.00  0.00    +0.000 C 
BRANCH   6   9
ATOM      9  C   UNL     1       1.659   8.293  21.488  0.00  0.00    +0.000 C 
BRANCH   9  10
ATOM     10  C   UNL     1       0.697   9.358  21.943  0.00  0.00    +0.000 A 
ATOM     11  C   UNL     1      -0.074   9.393  23.089  0.00  0.00    +0.000 A 
ATOM     12  C   UNL     1      -0.900  10.554  23.151  0.00  0.00    +0.000 A 
ATOM     13  C   UNL     1      -0.725  11.372  22.058  0.00  0.00    +0.000 A 
ATOM     14  S   UNL     1       0.426  10.742  20.963  0.00  0.00    +0.000 S 
ENDBRANCH   9  10
ENDBRANCH   6   9
ENDBRANCH   1   3
BRANCH   1  16
ATOM     15  N   UNL     1       6.111   4.635  16.987  0.00  0.00    +0.000 N 
ATOM     16  C   UNL     1       5.047   5.413  17.403  0.00  0.00    +0.000 C 
ATOM     17  O   UNL     1       4.421   6.185  16.675  0.00  0.00    +0.000 OA
ATOM     18  H   UNL     1       6.629   4.124  17.696  0.00  0.00    +0.000 HD
BRANCH  15  22
ATOM     19  C   UNL     1       6.910   3.900  12.098  0.00  0.00    +0.000 C 
ATOM     20  C   UNL     1       6.901   4.332  13.517  0.00  0.00    +0.000 A 
ATOM     21  C   UNL     1       6.122   3.852  14.599  0.00  0.00    +0.000 A 
ATOM     22  C   UNL     1       6.524   4.614  15.673  0.00  0.00    +0.000 A 
ATOM     23  O   UNL     1       7.481   5.485  15.252  0.00  0.00    +0.000 OA
ATOM     24  N   UNL     1       7.719   5.313  13.902  0.00  0.00    +0.000 NA
ENDBRANCH  15  22
ENDBRANCH   1  16
TORSDOF 5
ENDMDL
MODEL 6
REMARK VINA RESULT:      -6.3      1.286      1.698
REMARK  Name = 
REMARK  7 active torsions:
REMARK  status: ('A' for Active; 'I' for Inactive)
REMARK    1  A    between atoms: C_1  and  C_2
REMARK    2  A    between atoms: C_4  and  N_5
REMARK    3  A    between atoms: C_6  and  C_8
REMARK    4  A    between atoms: C_8  and  C_9
REMARK    5  A    between atoms: C_8  and  N_10
REMARK    6  A    between atoms: N_13  and  C_14
REMARK    7  A    between atoms: C_14  and  C_15
REMARK                            x       y       z     vdW  Elec       q    Type
REMARK                         _______ _______ _______ _____ _____    ______ ____
ROOT
ATOM      1  C   UNL     1       6.228   6.249  16.794  0.00  0.00    +0.000 C 
ATOM      2  C   UNL     1       7.149   6.202  18.019  0.00  0.00    +0.000 C 
ENDROOT
BRANCH   1   3
ATOM      3  N   UNL     1       4.765   6.185  17.048  0.00  0.00    +0.000 NA
ATOM      4  C   UNL     1       4.303   7.362  17.824  0.00  0.00    +0.000 C 
ATOM      5  C   UNL     1       2.761   7.412  17.930  0.00  0.00    +0.000 C 
ATOM      6  N   UNL     1       2.143   6.187  18.487  0.00  0.00    +0.000 NA
ATOM      7  C   UNL     1       2.719   5.012  17.793  0.00  0.00    +0.000 C 
ATOM      8  C   UNL     1       4.272   4.970  17.728  0.00  0.00    +0.000 C 
BRANCH   6   9
ATOM      9  C   UNL     1       2.324   6.138  19.950  0.00  0.00    +0.000 C 
BRANCH   9  10
ATOM     10  C   UNL     1       2.079   4.772  20.532  0.00  0.00    +0.000 A 
ATOM     11  C   UNL     1       2.791   4.111  21.515  0.00  0.00    +0.000 A 
ATOM     12  C   UNL     1       2.278   2.806  21.771  0.00  0.00    +0.000 A 
ATOM     13  C   UNL     1       1.187   2.516  20.983  0.00  0.00    +0.000 A 
ATOM     14  S   UNL     1       0.786   3.810  19.941  0.00  0.00    +0.000 S 
ENDBRANCH   9  10
ENDBRANCH   6   9
ENDBRANCH   1   3
BRANCH   1  16
ATOM     15  N   UNL     1       5.891   5.060  14.653  0.00  0.00    +0.000 N 
ATOM     16  C   UNL     1       6.717   5.217  15.750  0.00  0.00    +0.000 C 
ATOM     17  O   UNL     1       7.807   4.660  15.889  0.00  0.00    +0.000 OA
ATOM     18  H   UNL     1       4.964   5.473  14.696  0.00  0.00    +0.000 HD
BRANCH  15  22
ATOM     19  C   UNL     1       6.513   1.707  10.986  0.00  0.00    +0.000 C 
ATOM     20  C   UNL     1       6.565   2.850  11.929  0.00  0.00    +0.000 A 
ATOM     21  C   UNL     1       5.797   3.089  13.096  0.00  0.00    +0.000 A 
ATOM     22  C   UNL     1       6.264   4.296  13.570  0.00  0.00    +0.000 A 
ATOM     23  O   UNL     1       7.246   4.736  12.737  0.00  0.00    +0.000 OA
ATOM     24  N   UNL     1       7.436   3.835  11.708  0.00  0.00    +0.000 NA
ENDBRANCH  15  22
ENDBRANCH   1  16
TORSDOF 5
ENDMDL
MODEL 7
REMARK VINA RESULT:      -6.3      3.546      7.786
REMARK  Name = 
REMARK  7 active torsions:
REMARK  status: ('A' for Active; 'I' for Inactive)
REMARK    1  A    between atoms: C_1  and  C_2
REMARK    2  A    between atoms: C_4  and  N_5
REMARK    3  A    between atoms: C_6  and  C_8
REMARK    4  A    between atoms: C_8  and  C_9
REMARK    5  A    between atoms: C_8  and  N_10
REMARK    6  A    between atoms: N_13  and  C_14
REMARK    7  A    between atoms: C_14  and  C_15
REMARK                            x       y       z     vdW  Elec       q    Type
REMARK                         _______ _______ _______ _____ _____    ______ ____
ROOT
ATOM      1  C   UNL     1       3.241   4.830  19.170  0.00  0.00    +0.000 C 
ATOM      2  C   UNL     1       3.712   3.713  20.111  0.00  0.00    +0.000 C 
ENDROOT
BRANCH   1   3
ATOM      3  N   UNL     1       4.288   5.545  18.396  0.00  0.00    +0.000 NA
ATOM      4  C   UNL     1       4.173   5.258  16.945  0.00  0.00    +0.000 C 
ATOM      5  C   UNL     1       5.127   6.142  16.107  0.00  0.00    +0.000 C 
ATOM      6  N   UNL     1       6.550   6.063  16.508  0.00  0.00    +0.000 NA
ATOM      7  C   UNL     1       6.633   6.215  17.979  0.00  0.00    +0.000 C 
ATOM      8  C   UNL     1       5.687   5.293  18.800  0.00  0.00    +0.000 C 
BRANCH   6   9
ATOM      9  C   UNL     1       7.153   4.808  16.023  0.00  0.00    +0.000 C 
BRANCH   9  10
ATOM     10  C   UNL     1       7.138   4.686  14.523  0.00  0.00    +0.000 A 
ATOM     11  C   UNL     1       7.885   5.382  13.591  0.00  0.00    +0.000 A 
ATOM     12  C   UNL     1       7.558   5.017  12.253  0.00  0.00    +0.000 A 
ATOM     13  C   UNL     1       6.581   4.048  12.205  0.00  0.00    +0.000 A 
ATOM     14  S   UNL     1       6.061   3.585  13.765  0.00  0.00    +0.000 S 
ENDBRANCH   9  10
ENDBRANCH   6   9
ENDBRANCH   1   3
BRANCH   1  16
ATOM     15  N   UNL     1       2.591   7.120  19.832  0.00  0.00    +0.000 N 
ATOM     16  C   UNL     1       2.290   5.776  19.941  0.00  0.00    +0.000 C 
ATOM     17  O   UNL     1       1.305   5.327  20.528  0.00  0.00    +0.000 OA
ATOM     18  H   UNL     1       3.489   7.373  19.429  0.00  0.00    +0.000 HD
BRANCH  15  22
ATOM     19  C   UNL     1      -0.599  10.878  20.717  0.00  0.00    +0.000 C 
ATOM     20  C   UNL     1       0.341   9.732  20.768  0.00  0.00    +0.000 A 
ATOM     21  C   UNL     1       1.029   9.086  19.711  0.00  0.00    +0.000 A 
ATOM     22  C   UNL     1       1.754   8.093  20.332  0.00  0.00    +0.000 A 
ATOM     23  O   UNL     1       1.511   8.154  21.670  0.00  0.00    +0.000 OA
ATOM     24  N   UNL     1       0.626   9.178  21.946  0.00  0.00    +0.000 NA
ENDBRANCH  15  22
ENDBRANCH   1  16
TORSDOF 5
ENDMDL
MODEL 8
REMARK VINA RESULT:      -6.2      3.279      4.666
REMARK  Name = 
REMARK  7 active torsions:
REMARK  status: ('A' for Active; 'I' for Inactive)
REMARK    1  A    between atoms: C_1  and  C_2
REMARK    2  A    between atoms: C_4  and  N_5
REMARK    3  A    between atoms: C_6  and  C_8
REMARK    4  A    between atoms: C_8  and  C_9
REMARK    5  A    between atoms: C_8  and  N_10
REMARK    6  A    between atoms: N_13  and  C_14
REMARK    7  A    between atoms: C_14  and  C_15
REMARK                            x       y       z     vdW  Elec       q    Type
REMARK                         _______ _______ _______ _____ _____    ______ ____
ROOT
ATOM      1  C   UNL     1       4.600   3.850  19.595  0.00  0.00    +0.000 C 
ATOM      2  C   UNL     1       4.429   2.326  19.648  0.00  0.00    +0.000 C 
ENDROOT
BRANCH   1   3
ATOM      3  N   UNL     1       3.359   4.664  19.518  0.00  0.00    +0.000 NA
ATOM      4  C   UNL     1       3.662   6.072  19.161  0.00  0.00    +0.000 C 
ATOM      5  C   UNL     1       2.375   6.886  18.886  0.00  0.00    +0.000 C 
ATOM      6  N   UNL     1       1.387   6.864  19.990  0.00  0.00    +0.000 NA
ATOM      7  C   UNL     1       1.200   5.461  20.426  0.00  0.00    +0.000 C 
ATOM      8  C   UNL     1       2.508   4.675  20.726  0.00  0.00    +0.000 C 
BRANCH   6   9
ATOM      9  C   UNL     1       1.817   7.755  21.082  0.00  0.00    +0.000 C 
BRANCH   9  10
ATOM     10  C   UNL     1       0.934   8.964  21.242  0.00  0.00    +0.000 A 
ATOM     11  C   UNL     1       0.544   9.882  20.285  0.00  0.00    +0.000 A 
ATOM     12  C   UNL     1      -0.266  10.921  20.829  0.00  0.00    +0.000 A 
ATOM     13  C   UNL     1      -0.476  10.759  22.180  0.00  0.00    +0.000 A 
ATOM     14  S   UNL     1       0.300   9.363  22.787  0.00  0.00    +0.000 S 
ENDBRANCH   9  10
ENDBRANCH   6   9
ENDBRANCH   1   3
BRANCH   1  16
ATOM     15  N   UNL     1       5.279   3.855  17.218  0.00  0.00    +0.000 N 
ATOM     16  C   UNL     1       5.639   4.207  18.505  0.00  0.00    +0.000 C 
ATOM     17  O   UNL     1       6.660   4.829  18.799  0.00  0.00    +0.000 OA
ATOM     18  H   UNL     1       4.478   3.242  17.102  0.00  0.00    +0.000 HD
BRANCH  15  22
ATOM     19  C   UNL     1       7.338   4.754  12.742  0.00  0.00    +0.000 C 
ATOM     20  C   UNL     1       6.957   4.675  14.173  0.00  0.00    +0.000 A 
ATOM     21  C   UNL     1       5.914   3.938  14.788  0.00  0.00    +0.000 A 
ATOM     22  C   UNL     1       6.025   4.242  16.127  0.00  0.00    +0.000 A 
ATOM     23  O   UNL     1       7.068   5.100  16.290  0.00  0.00    +0.000 OA
ATOM     24  N   UNL     1       7.653   5.375  15.070  0.00  0.00    +0.000 NA
ENDBRANCH  15  22
ENDBRANCH   1  16
TORSDOF 5
ENDMDL
MODEL 9
REMARK VINA RESULT:      -6.2      4.209      5.616
REMARK  Name = 
REMARK  7 active torsions:
REMARK  status: ('A' for Active; 'I' for Inactive)
REMARK    1  A    between atoms: C_1  and  C_2
REMARK    2  A    between atoms: C_4  and  N_5
REMARK    3  A    between atoms: C_6  and  C_8
REMARK    4  A    between atoms: C_8  and  C_9
REMARK    5  A    between atoms: C_8  and  N_10
REMARK    6  A    between atoms: N_13  and  C_14
REMARK    7  A    between atoms: C_14  and  C_15
REMARK                            x       y       z     vdW  Elec       q    Type
REMARK                         _______ _______ _______ _____ _____    ______ ____
ROOT
ATOM      1  C   UNL     1       3.144   6.400  19.322  0.00  0.00    +0.000 C 
ATOM      2  C   UNL     1       2.206   5.385  19.988  0.00  0.00    +0.000 C 
ENDROOT
BRANCH   1   3
ATOM      3  N   UNL     1       2.648   7.797  19.200  0.00  0.00    +0.000 NA
ATOM      4  C   UNL     1       1.481   8.030  20.087  0.00  0.00    +0.000 C 
ATOM      5  C   UNL     1       1.075   9.523  20.120  0.00  0.00    +0.000 C 
ATOM      6  N   UNL     1       0.805  10.117  18.790  0.00  0.00    +0.000 NA
ATOM      7  C   UNL     1       1.916   9.756  17.879  0.00  0.00    +0.000 C 
ATOM      8  C   UNL     1       2.284   8.245  17.841  0.00  0.00    +0.000 C 
BRANCH   6   9
ATOM      9  C   UNL     1      -0.513   9.683  18.292  0.00  0.00    +0.000 C 
BRANCH   9  10
ATOM     10  C   UNL     1      -1.616  10.656  18.613  0.00  0.00    +0.000 A 
ATOM     11  C   UNL     1      -1.626  11.672  19.550  0.00  0.00    +0.000 A 
ATOM     12  C   UNL     1      -2.876  12.357  19.593  0.00  0.00    +0.000 A 
ATOM     13  C   UNL     1      -3.776  11.848  18.684  0.00  0.00    +0.000 A 
ATOM     14  S   UNL     1      -3.116  10.553  17.785  0.00  0.00    +0.000 S 
ENDBRANCH   9  10
ENDBRANCH   6   9
ENDBRANCH   1   3
BRANCH   1  16
ATOM     15  N   UNL     1       4.895   6.291  17.581  0.00  0.00    +0.000 N 
ATOM     16  C   UNL     1       3.664   5.814  17.988  0.00  0.00    +0.000 C 
ATOM     17  O   UNL     1       3.032   4.930  17.408  0.00  0.00    +0.000 OA
ATOM     18  H   UNL     1       5.272   7.102  18.065  0.00  0.00    +0.000 HD
BRANCH  15  22
ATOM     19  C   UNL     1       6.456   3.918  13.457  0.00  0.00    +0.000 C 
ATOM     20  C   UNL     1       6.285   4.739  14.680  0.00  0.00    +0.000 A 
ATOM     21  C   UNL     1       5.159   4.860  15.532  0.00  0.00    +0.000 A 
ATOM     22  C   UNL     1       5.559   5.755  16.500  0.00  0.00    +0.000 A 
ATOM     23  O   UNL     1       6.839   6.134  16.237  0.00  0.00    +0.000 OA
ATOM     24  N   UNL     1       7.297   5.501  15.098  0.00  0.00    +0.000 NA
ENDBRANCH  15  22
ENDBRANCH   1  16
TORSDOF 5
ENDMDL
