MODEL 1
REMARK VINA RESULT:      -9.2      0.000      0.000
REMARK  Name = 
REMARK  2 active torsions:
REMARK  status: ('A' for Active; 'I' for Inactive)
REMARK    1  A    between atoms: C_7  and  C_8
REMARK    2  A    between atoms: C_12  and  C_13
REMARK                            x       y       z     vdW  Elec       q    Type
REMARK                         _______ _______ _______ _____ _____    ______ ____
ROOT
ATOM      1  C   UNL     1       4.051   4.638  17.729  0.00  0.00    +0.000 A 
ATOM      2  C   UNL     1       4.201   5.975  18.121  0.00  0.00    +0.000 A 
ATOM      3  C   UNL     1       4.927   6.863  17.335  0.00  0.00    +0.000 A 
ATOM      4  C   UNL     1       5.504   6.429  16.142  0.00  0.00    +0.000 A 
ATOM      5  C   UNL     1       5.361   5.103  15.694  0.00  0.00    +0.000 A 
ATOM      6  C   UNL     1       4.630   4.221  16.517  0.00  0.00    +0.000 A 
ENDROOT
BRANCH   1  13
ATOM      7  O   UNL     1       0.133   1.934  18.431  0.00  0.00    +0.000 OA
ATOM      8  C   UNL     1       0.952   2.708  18.923  0.00  0.00    +0.000 C 
ATOM      9  C   UNL     1       1.033   2.926  20.408  0.00  0.00    +0.000 C 
ATOM     10  C   UNL     1       2.455   3.079  20.868  0.00  0.00    +0.000 C 
ATOM     11  O   UNL     1       2.847   2.585  21.923  0.00  0.00    +0.000 OA
ATOM     12  C   UNL     1       3.330   4.005  20.059  0.00  0.00    +0.000 C 
ATOM     13  C   UNL     1       3.244   3.659  18.567  0.00  0.00    +0.000 C 
ATOM     14  C   UNL     1       1.799   3.610  18.058  0.00  0.00    +0.000 C 
ENDBRANCH   1  13
BRANCH   5  15
ATOM     15  C   UNL     1       5.939   4.665  14.400  0.00  0.00    +0.000 A 
ATOM     16  C   UNL     1       5.287   3.735  13.572  0.00  0.00    +0.000 A 
ATOM     17  C   UNL     1       5.834   3.336  12.348  0.00  0.00    +0.000 A 
ATOM     18  C   UNL     1       7.057   3.849  11.928  0.00  0.00    +0.000 A 
ATOM     19  C   UNL     1       7.728   4.768  12.727  0.00  0.00    +0.000 A 
ATOM     20  C   UNL     1       7.170   5.175  13.943  0.00  0.00    +0.000 A 
ENDBRANCH   5  15
TORSDOF 2
ENDMDL
MODEL 2
REMARK VINA RESULT:      -9.2      0.063      1.076
REMARK  Name = 
REMARK  2 active torsions:
REMARK  status: ('A' for Active; 'I' for Inactive)
REMARK    1  A    between atoms: C_7  and  C_8
REMARK    2  A    between atoms: C_12  and  C_13
REMARK                            x       y       z     vdW  Elec       q    Type
REMARK                         _______ _______ _______ _____ _____    ______ ____
ROOT
ATOM      1  C   UNL     1       4.100   4.636  17.708  0.00  0.00    +0.000 A 
ATOM      2  C   UNL     1       4.283   5.965  18.111  0.00  0.00    +0.000 A 
ATOM      3  C   UNL     1       5.020   6.845  17.326  0.00  0.00    +0.000 A 
ATOM      4  C   UNL     1       5.577   6.410  16.123  0.00  0.00    +0.000 A 
ATOM      5  C   UNL     1       5.400   5.091  15.665  0.00  0.00    +0.000 A 
ATOM      6  C   UNL     1       4.657   4.218  16.486  0.00  0.00    +0.000 A 
ENDROOT
BRANCH   1  13
ATOM      7  O   UNL     1       0.165   1.951  18.387  0.00  0.00    +0.000 OA
ATOM      8  C   UNL     1       0.980   2.726  18.882  0.00  0.00    +0.000 C 
ATOM      9  C   UNL     1       1.045   2.957  20.366  0.00  0.00    +0.000 C 
ATOM     10  C   UNL     1       2.462   3.109  20.841  0.00  0.00    +0.000 C 
ATOM     11  O   UNL     1       2.840   2.622  21.904  0.00  0.00    +0.000 OA
ATOM     12  C   UNL     1       3.350   4.025  20.035  0.00  0.00    +0.000 C 
ATOM     13  C   UNL     1       3.280   3.667  18.544  0.00  0.00    +0.000 C 
ATOM     14  C   UNL     1       1.840   3.618  18.019  0.00  0.00    +0.000 C 
ENDBRANCH   1  13
BRANCH   5  15
ATOM     15  C   UNL     1       5.956   4.654  14.361  0.00  0.00    +0.000 A 
ATOM     16  C   UNL     1       7.175   5.150  13.869  0.00  0.00    +0.000 A 
ATOM     17  C   UNL     1       7.697   4.724  12.643  0.00  0.00    +0.000 A 
ATOM     18  C   UNL     1       7.002   3.799  11.871  0.00  0.00    +0.000 A 
ATOM     19  C   UNL     1       5.790   3.293  12.329  0.00  0.00    +0.000 A 
ATOM     20  C   UNL     1       5.281   3.710  13.562  0.00  0.00    +0.000 A 
ENDBRANCH   5  15
TORSDOF 2
ENDMDL
MODEL 3
REMARK VINA RESULT:      -8.7      1.486      2.395
REMARK  Name = 
REMARK  2 active torsions:
REMARK  status: ('A' for Active; 'I' for Inactive)
REMARK    1  A    between atoms: C_7  and  C_8
REMARK    2  A    between atoms: C_12  and  C_13
REMARK                            x       y       z     vdW  Elec       q    Type
REMARK                         _______ _______ _______ _____ _____    ______ ____
ROOT
ATOM      1  C   UNL     1       4.712   4.588  17.819  0.00  0.00    +0.000 A 
ATOM      2  C   UNL     1       5.797   4.809  18.678  0.00  0.00    +0.000 A 
ATOM      3  C   UNL     1       7.093   4.865  18.177  0.00  0.00    +0.000 A 
ATOM      4  C   UNL     1       7.320   4.710  16.809  0.00  0.00    +0.000 A 
ATOM      5  C   UNL     1       6.261   4.510  15.905  0.00  0.00    +0.000 A 
ATOM      6  C   UNL     1       4.958   4.447  16.442  0.00  0.00    +0.000 A 
ENDROOT
BRANCH   1  13
ATOM      7  O   UNL     1       1.330   6.026  20.926  0.00  0.00    +0.000 OA
ATOM      8  C   UNL     1       1.843   5.084  20.325  0.00  0.00    +0.000 C 
ATOM      9  C   UNL     1       1.196   3.728  20.293  0.00  0.00    +0.000 C 
ATOM     10  C   UNL     1       1.358   3.070  18.952  0.00  0.00    +0.000 C 
ATOM     11  O   UNL     1       0.451   2.417  18.441  0.00  0.00    +0.000 OA
ATOM     12  C   UNL     1       2.739   3.110  18.343  0.00  0.00    +0.000 C 
ATOM     13  C   UNL     1       3.287   4.543  18.348  0.00  0.00    +0.000 C 
ATOM     14  C   UNL     1       3.230   5.188  19.738  0.00  0.00    +0.000 C 
ENDBRANCH   1  13
BRANCH   5  15
ATOM     15  C   UNL     1       6.511   4.395  14.447  0.00  0.00    +0.000 A 
ATOM     16  C   UNL     1       7.516   5.140  13.805  0.00  0.00    +0.000 A 
ATOM     17  C   UNL     1       7.751   5.018  12.431  0.00  0.00    +0.000 A 
ATOM     18  C   UNL     1       6.976   4.156  11.663  0.00  0.00    +0.000 A 
ATOM     19  C   UNL     1       5.972   3.409  12.269  0.00  0.00    +0.000 A 
ATOM     20  C   UNL     1       5.750   3.523  13.644  0.00  0.00    +0.000 A 
ENDBRANCH   5  15
TORSDOF 2
ENDMDL
MODEL 4
REMARK VINA RESULT:      -8.7      1.539      2.144
REMARK  Name = 
REMARK  2 active torsions:
REMARK  status: ('A' for Active; 'I' for Inactive)
REMARK    1  A    between atoms: C_7  and  C_8
REMARK    2  A    between atoms: C_12  and  C_13
REMARK                            x       y       z     vdW  Elec       q    Type
REMARK                         _______ _______ _______ _____ _____    ______ ____
ROOT
ATOM      1  C   UNL     1       4.726   4.605  17.905  0.00  0.00    +0.000 A 
ATOM      2  C   UNL     1       5.816   4.819  18.760  0.00  0.00    +0.000 A 
ATOM      3  C   UNL     1       7.110   4.864  18.254  0.00  0.00    +0.000 A 
ATOM      4  C   UNL     1       7.332   4.706  16.886  0.00  0.00    +0.000 A 
ATOM      5  C   UNL     1       6.268   4.513  15.985  0.00  0.00    +0.000 A 
ATOM      6  C   UNL     1       4.967   4.460  16.527  0.00  0.00    +0.000 A 
ENDROOT
BRANCH   1  13
ATOM      7  O   UNL     1       1.319   6.203  20.904  0.00  0.00    +0.000 OA
ATOM      8  C   UNL     1       1.850   5.229  20.374  0.00  0.00    +0.000 C 
ATOM      9  C   UNL     1       1.229   3.862  20.443  0.00  0.00    +0.000 C 
ATOM     10  C   UNL     1       1.404   3.110  19.154  0.00  0.00    +0.000 C 
ATOM     11  O   UNL     1       0.510   2.403  18.695  0.00  0.00    +0.000 OA
ATOM     12  C   UNL     1       2.783   3.132  18.541  0.00  0.00    +0.000 C 
ATOM     13  C   UNL     1       3.303   4.572  18.439  0.00  0.00    +0.000 C 
ATOM     14  C   UNL     1       3.234   5.316  19.778  0.00  0.00    +0.000 C 
ENDBRANCH   1  13
BRANCH   5  15
ATOM     15  C   UNL     1       6.512   4.394  14.527  0.00  0.00    +0.000 A 
ATOM     16  C   UNL     1       5.771   3.514  13.719  0.00  0.00    +0.000 A 
ATOM     17  C   UNL     1       6.001   3.416  12.342  0.00  0.00    +0.000 A 
ATOM     18  C   UNL     1       6.989   4.189  11.742  0.00  0.00    +0.000 A 
ATOM     19  C   UNL     1       7.741   5.067  12.515  0.00  0.00    +0.000 A 
ATOM     20  C   UNL     1       7.498   5.172  13.888  0.00  0.00    +0.000 A 
ENDBRANCH   5  15
TORSDOF 2
ENDMDL
MODEL 5
REMARK VINA RESULT:      -8.6      4.827      7.943
REMARK  Name = 
REMARK  2 active torsions:
REMARK  status: ('A' for Active; 'I' for Inactive)
REMARK    1  A    between atoms: C_7  and  C_8
REMARK    2  A    between atoms: C_12  and  C_13
REMARK                            x       y       z     vdW  Elec       q    Type
REMARK                         _______ _______ _______ _____ _____    ______ ____
ROOT
ATOM      1  C   UNL     1       2.274   6.902  19.730  0.00  0.00    +0.000 A 
ATOM      2  C   UNL     1       2.559   7.347  18.432  0.00  0.00    +0.000 A 
ATOM      3  C   UNL     1       2.089   8.579  17.991  0.00  0.00    +0.000 A 
ATOM      4  C   UNL     1       1.336   9.386  18.844  0.00  0.00    +0.000 A 
ATOM      5  C   UNL     1       1.045   8.993  20.163  0.00  0.00    +0.000 A 
ATOM      6  C   UNL     1       1.524   7.734  20.580  0.00  0.00    +0.000 A 
ENDROOT
BRANCH   1  13
ATOM      7  O   UNL     1       5.269   3.151  19.381  0.00  0.00    +0.000 OA
ATOM      8  C   UNL     1       4.121   3.536  19.593  0.00  0.00    +0.000 C 
ATOM      9  C   UNL     1       3.071   2.610  20.142  0.00  0.00    +0.000 C 
ATOM     10  C   UNL     1       2.173   3.312  21.121  0.00  0.00    +0.000 C 
ATOM     11  O   UNL     1       1.778   2.757  22.144  0.00  0.00    +0.000 OA
ATOM     12  C   UNL     1       1.648   4.665  20.706  0.00  0.00    +0.000 C 
ATOM     13  C   UNL     1       2.796   5.566  20.234  0.00  0.00    +0.000 C 
ATOM     14  C   UNL     1       3.656   4.903  19.152  0.00  0.00    +0.000 C 
ENDBRANCH   1  13
BRANCH   5  15
ATOM     15  C   UNL     1       0.285   9.880  21.076  0.00  0.00    +0.000 A 
ATOM     16  C   UNL     1      -0.051  11.199  20.722  0.00  0.00    +0.000 A 
ATOM     17  C   UNL     1      -0.778  12.026  21.585  0.00  0.00    +0.000 A 
ATOM     18  C   UNL     1      -1.175  11.557  22.833  0.00  0.00    +0.000 A 
ATOM     19  C   UNL     1      -0.854  10.259  23.214  0.00  0.00    +0.000 A 
ATOM     20  C   UNL     1      -0.141   9.431  22.342  0.00  0.00    +0.000 A 
ENDBRANCH   5  15
TORSDOF 2
ENDMDL
MODEL 6
REMARK VINA RESULT:      -8.5      4.874      7.952
REMARK  Name = 
REMARK  2 active torsions:
REMARK  status: ('A' for Active; 'I' for Inactive)
REMARK    1  A    between atoms: C_7  and  C_8
REMARK    2  A    between atoms: C_12  and  C_13
REMARK                            x       y       z     vdW  Elec       q    Type
REMARK                         _______ _______ _______ _____ _____    ______ ____
ROOT
ATOM      1  C   UNL     1       2.279   6.985  19.703  0.00  0.00    +0.000 A 
ATOM      2  C   UNL     1       2.556   7.444  18.408  0.00  0.00    +0.000 A 
ATOM      3  C   UNL     1       2.054   8.664  17.971  0.00  0.00    +0.000 A 
ATOM      4  C   UNL     1       1.278   9.448  18.825  0.00  0.00    +0.000 A 
ATOM      5  C   UNL     1       0.993   9.040  20.142  0.00  0.00    +0.000 A 
ATOM      6  C   UNL     1       1.505   7.793  20.555  0.00  0.00    +0.000 A 
ENDROOT
BRANCH   1  13
ATOM      7  O   UNL     1       5.313   3.272  19.295  0.00  0.00    +0.000 OA
ATOM      8  C   UNL     1       4.168   3.643  19.540  0.00  0.00    +0.000 C 
ATOM      9  C   UNL     1       3.149   2.709  20.131  0.00  0.00    +0.000 C 
ATOM     10  C   UNL     1       2.272   3.408  21.131  0.00  0.00    +0.000 C 
ATOM     11  O   UNL     1       1.918   2.859  22.172  0.00  0.00    +0.000 OA
ATOM     12  C   UNL     1       1.715   4.750  20.720  0.00  0.00    +0.000 C 
ATOM     13  C   UNL     1       2.836   5.662  20.204  0.00  0.00    +0.000 C 
ATOM     14  C   UNL     1       3.670   4.999  19.101  0.00  0.00    +0.000 C 
ENDBRANCH   1  13
BRANCH   5  15
ATOM     15  C   UNL     1       0.207   9.904  21.057  0.00  0.00    +0.000 A 
ATOM     16  C   UNL     1      -0.144   9.487  22.353  0.00  0.00    +0.000 A 
ATOM     17  C   UNL     1      -0.876  10.312  23.213  0.00  0.00    +0.000 A 
ATOM     18  C   UNL     1      -1.288  11.572  22.791  0.00  0.00    +0.000 A 
ATOM     19  C   UNL     1      -0.960  12.011  21.513  0.00  0.00    +0.000 A 
ATOM     20  C   UNL     1      -0.215  11.189  20.662  0.00  0.00    +0.000 A 
ENDBRANCH   5  15
TORSDOF 2
ENDMDL
MODEL 7
REMARK VINA RESULT:      -8.4      3.252      7.122
REMARK  Name = 
REMARK  2 active torsions:
REMARK  status: ('A' for Active; 'I' for Inactive)
REMARK    1  A    between atoms: C_7  and  C_8
REMARK    2  A    between atoms: C_12  and  C_13
REMARK                            x       y       z     vdW  Elec       q    Type
REMARK                         _______ _______ _______ _____ _____    ______ ____
ROOT
ATOM      1  C   UNL     1       5.875   4.841  16.218  0.00  0.00    +0.000 A 
ATOM      2  C   UNL     1       6.950   5.117  17.072  0.00  0.00    +0.000 A 
ATOM      3  C   UNL     1       6.792   5.042  18.452  0.00  0.00    +0.000 A 
ATOM      4  C   UNL     1       5.559   4.680  18.995  0.00  0.00    +0.000 A 
ATOM      5  C   UNL     1       4.457   4.370  18.177  0.00  0.00    +0.000 A 
ATOM      6  C   UNL     1       4.643   4.465  16.783  0.00  0.00    +0.000 A 
ENDROOT
BRANCH   1  13
ATOM      7  O   UNL     1       4.920   3.148  11.815  0.00  0.00    +0.000 OA
ATOM      8  C   UNL     1       5.770   3.584  12.589  0.00  0.00    +0.000 C 
ATOM      9  C   UNL     1       7.142   3.972  12.112  0.00  0.00    +0.000 C 
ATOM     10  C   UNL     1       7.646   5.199  12.817  0.00  0.00    +0.000 C 
ATOM     11  O   UNL     1       8.279   6.069  12.223  0.00  0.00    +0.000 OA
ATOM     12  C   UNL     1       7.482   5.231  14.317  0.00  0.00    +0.000 C 
ATOM     13  C   UNL     1       6.036   4.899  14.707  0.00  0.00    +0.000 C 
ATOM     14  C   UNL     1       5.546   3.588  14.082  0.00  0.00    +0.000 C 
ENDBRANCH   1  13
BRANCH   5  15
ATOM     15  C   UNL     1       3.165   3.940  18.765  0.00  0.00    +0.000 A 
ATOM     16  C   UNL     1       2.742   4.380  20.032  0.00  0.00    +0.000 A 
ATOM     17  C   UNL     1       1.517   3.977  20.575  0.00  0.00    +0.000 A 
ATOM     18  C   UNL     1       0.690   3.111  19.867  0.00  0.00    +0.000 A 
ATOM     19  C   UNL     1       1.083   2.655  18.613  0.00  0.00    +0.000 A 
ATOM     20  C   UNL     1       2.301   3.072  18.069  0.00  0.00    +0.000 A 
ENDBRANCH   5  15
TORSDOF 2
ENDMDL
MODEL 8
REMARK VINA RESULT:      -8.4      1.107      2.348
REMARK  Name = 
REMARK  2 active torsions:
REMARK  status: ('A' for Active; 'I' for Inactive)
REMARK    1  A    between atoms: C_7  and  C_8
REMARK    2  A    between atoms: C_12  and  C_13
REMARK                            x       y       z     vdW  Elec       q    Type
REMARK                         _______ _______ _______ _____ _____    ______ ____
ROOT
ATOM      1  C   UNL     1       4.989   4.708  18.121  0.00  0.00    +0.000 A 
ATOM      2  C   UNL     1       5.922   5.503  18.801  0.00  0.00    +0.000 A 
ATOM      3  C   UNL     1       7.052   5.980  18.145  0.00  0.00    +0.000 A 
ATOM      4  C   UNL     1       7.259   5.677  16.799  0.00  0.00    +0.000 A 
ATOM      5  C   UNL     1       6.339   4.902  16.069  0.00  0.00    +0.000 A 
ATOM      6  C   UNL     1       5.208   4.423  16.762  0.00  0.00    +0.000 A 
ENDROOT
BRANCH   1  13
ATOM      7  O   UNL     1       2.829   2.562  21.847  0.00  0.00    +0.000 OA
ATOM      8  C   UNL     1       2.910   2.668  20.626  0.00  0.00    +0.000 C 
ATOM      9  C   UNL     1       1.880   2.059  19.714  0.00  0.00    +0.000 C 
ATOM     10  C   UNL     1       1.589   2.947  18.538  0.00  0.00    +0.000 C 
ATOM     11  O   UNL     1       0.449   3.083  18.100  0.00  0.00    +0.000 OA
ATOM     12  C   UNL     1       2.783   3.529  17.820  0.00  0.00    +0.000 C 
ATOM     13  C   UNL     1       3.739   4.195  18.818  0.00  0.00    +0.000 C 
ATOM     14  C   UNL     1       4.133   3.259  19.967  0.00  0.00    +0.000 C 
ENDBRANCH   1  13
BRANCH   5  15
ATOM     15  C   UNL     1       6.546   4.627  14.626  0.00  0.00    +0.000 A 
ATOM     16  C   UNL     1       7.549   5.273  13.883  0.00  0.00    +0.000 A 
ATOM     17  C   UNL     1       7.744   5.000  12.525  0.00  0.00    +0.000 A 
ATOM     18  C   UNL     1       6.928   4.080  11.873  0.00  0.00    +0.000 A 
ATOM     19  C   UNL     1       5.925   3.428  12.580  0.00  0.00    +0.000 A 
ATOM     20  C   UNL     1       5.744   3.693  13.941  0.00  0.00    +0.000 A 
ENDBRANCH   5  15
TORSDOF 2
ENDMDL
MODEL 9
REMARK VINA RESULT:      -8.4      3.209      7.038
REMARK  Name = 
REMARK  2 active torsions:
REMARK  status: ('A' for Active; 'I' for Inactive)
REMARK    1  A    between atoms: C_7  and  C_8
REMARK    2  A    between atoms: C_12  and  C_13
REMARK                            x       y       z     vdW  Elec       q    Type
REMARK                         _______ _______ _______ _____ _____    ______ ____
ROOT
ATOM      1  C   UNL     1       5.775   5.004  16.269  0.00  0.00    +0.000 A 
ATOM      2  C   UNL     1       6.811   5.389  17.131  0.00  0.00    +0.000 A 
ATOM      3  C   UNL     1       6.630   5.357  18.509  0.00  0.00    +0.000 A 
ATOM      4  C   UNL     1       5.415   4.928  19.045  0.00  0.00    +0.000 A 
ATOM      5  C   UNL     1       4.355   4.508  18.221  0.00  0.00    +0.000 A 
ATOM      6  C   UNL     1       4.562   4.562  16.827  0.00  0.00    +0.000 A 
ENDROOT
BRANCH   1  13
ATOM      7  O   UNL     1       4.780   3.269  11.892  0.00  0.00    +0.000 OA
ATOM      8  C   UNL     1       5.645   3.668  12.670  0.00  0.00    +0.000 C 
ATOM      9  C   UNL     1       7.046   3.956  12.207  0.00  0.00    +0.000 C 
ATOM     10  C   UNL     1       7.617   5.165  12.891  0.00  0.00    +0.000 C 
ATOM     11  O   UNL     1       8.314   5.978  12.287  0.00  0.00    +0.000 OA
ATOM     12  C   UNL     1       7.433   5.244  14.387  0.00  0.00    +0.000 C 
ATOM     13  C   UNL     1       5.963   5.015  14.761  0.00  0.00    +0.000 C 
ATOM     14  C   UNL     1       5.399   3.723  14.158  0.00  0.00    +0.000 C 
ENDBRANCH   1  13
BRANCH   5  15
ATOM     15  C   UNL     1       3.085   4.009  18.803  0.00  0.00    +0.000 A 
ATOM     16  C   UNL     1       2.197   3.203  18.069  0.00  0.00    +0.000 A 
ATOM     17  C   UNL     1       1.007   2.728  18.629  0.00  0.00    +0.000 A 
ATOM     18  C   UNL     1       0.669   3.059  19.937  0.00  0.00    +0.000 A 
ATOM     19  C   UNL     1       1.525   3.857  20.688  0.00  0.00    +0.000 A 
ATOM     20  C   UNL     1       2.720   4.318  20.128  0.00  0.00    +0.000 A 
ENDBRANCH   5  15
TORSDOF 2
ENDMDL
