MODEL 1
REMARK VINA RESULT:      -7.7      0.000      0.000
REMARK  Name = 
REMARK  8 active torsions:
REMARK  status: ('A' for Active; 'I' for Inactive)
REMARK    1  A    between atoms: C_1  and  C_2
REMARK    2  A    between atoms: C_2  and  O_3
REMARK    3  A    between atoms: O_3  and  C_4
REMARK    4  A    between atoms: C_4  and  C_6
REMARK    5  A    between atoms: C_13  and  C_14
REMARK    6  A    between atoms: N_21  and  C_22
REMARK    7  A    between atoms: C_22  and  C_23
REMARK    8  A    between atoms: C_23  and  O_24
REMARK                            x       y       z     vdW  Elec       q    Type
REMARK                         _______ _______ _______ _____ _____    ______ ____
ROOT
ATOM      1  C   UNL     1       5.838   4.885  15.428  0.00  0.00    +0.000 A 
ATOM      2  C   UNL     1       5.462   3.744  16.150  0.00  0.00    +0.000 A 
ATOM      3  C   UNL     1       4.534   3.819  17.195  0.00  0.00    +0.000 A 
ATOM      4  C   UNL     1       3.999   5.081  17.493  0.00  0.00    +0.000 A 
ATOM      5  C   UNL     1       4.359   6.223  16.793  0.00  0.00    +0.000 A 
ATOM      6  C   UNL     1       5.284   6.137  15.740  0.00  0.00    +0.000 A 
ATOM      7  N   UNL     1       3.717   7.323  17.286  0.00  0.00    +0.000 NA
ATOM      8  C   UNL     1       2.986   6.908  18.309  0.00  0.00    +0.000 A 
ATOM      9  N   UNL     1       3.084   5.530  18.426  0.00  0.00    +0.000 N 
ENDROOT
BRANCH   8  10
ATOM     10  C   UNL     1       2.158   7.821  19.117  0.00  0.00    +0.000 A 
ATOM     11  C   UNL     1       1.907   7.503  20.461  0.00  0.00    +0.000 A 
ATOM     12  C   UNL     1       1.129   8.339  21.272  0.00  0.00    +0.000 A 
ATOM     13  C   UNL     1       0.598   9.511  20.739  0.00  0.00    +0.000 A 
ATOM     14 CL   UNL     1      -0.362  10.544  21.723  0.00  0.00    +0.000 Cl
ATOM     15  C   UNL     1       0.822   9.839  19.406  0.00  0.00    +0.000 A 
ATOM     16  C   UNL     1       1.576   8.987  18.594  0.00  0.00    +0.000 A 
ENDBRANCH   8  10
BRANCH   1  17
ATOM     17  C   UNL     1       6.896   4.738  14.393  0.00  0.00    +0.000 C 
ATOM     18  O   UNL     1       7.756   5.574  14.178  0.00  0.00    +0.000 OA
BRANCH  17  19
ATOM     19  O   UNL     1       6.675   3.610  13.674  0.00  0.00    +0.000 OA
BRANCH  19  21
ATOM     20  C   UNL     1       5.083   3.251  11.932  0.00  0.00    +0.000 C 
ATOM     21  C   UNL     1       6.457   3.803  12.273  0.00  0.00    +0.000 C 
ENDBRANCH  19  21
ENDBRANCH  17  19
ENDBRANCH   1  17
BRANCH   9  22
ATOM     22  C   UNL     1       2.346   4.658  19.325  0.00  0.00    +0.000 C 
BRANCH  22  23
ATOM     23  C   UNL     1       1.230   3.860  18.654  0.00  0.00    +0.000 C 
BRANCH  23  24
ATOM     24  O   UNL     1       1.532   2.470  18.631  0.00  0.00    +0.000 OA
ATOM     25  H   UNL     1       0.892   2.038  18.035  0.00  0.00    +0.000 HD
ENDBRANCH  23  24
ENDBRANCH  22  23
ENDBRANCH   9  22
TORSDOF 7
ENDMDL
MODEL 2
REMARK VINA RESULT:      -7.6      0.601      1.214
REMARK  Name = 
REMARK  8 active torsions:
REMARK  status: ('A' for Active; 'I' for Inactive)
REMARK    1  A    between atoms: C_1  and  C_2
REMARK    2  A    between atoms: C_2  and  O_3
REMARK    3  A    between atoms: O_3  and  C_4
REMARK    4  A    between atoms: C_4  and  C_6
REMARK    5  A    between atoms: C_13  and  C_14
REMARK    6  A    between atoms: N_21  and  C_22
REMARK    7  A    between atoms: C_22  and  C_23
REMARK    8  A    between atoms: C_23  and  O_24
REMARK                            x       y       z     vdW  Elec       q    Type
REMARK                         _______ _______ _______ _____ _____    ______ ____
ROOT
ATOM      1  C   UNL     1       5.744   4.897  15.626  0.00  0.00    +0.000 A 
ATOM      2  C   UNL     1       5.205   3.749  16.222  0.00  0.00    +0.000 A 
ATOM      3  C   UNL     1       4.202   3.837  17.195  0.00  0.00    +0.000 A 
ATOM      4  C   UNL     1       3.763   5.121  17.552  0.00  0.00    +0.000 A 
ATOM      5  C   UNL     1       4.285   6.270  16.978  0.00  0.00    +0.000 A 
ATOM      6  C   UNL     1       5.284   6.171  15.996  0.00  0.00    +0.000 A 
ATOM      7  N   UNL     1       3.708   7.388  17.509  0.00  0.00    +0.000 NA
ATOM      8  C   UNL     1       2.858   6.973  18.435  0.00  0.00    +0.000 A 
ATOM      9  N   UNL     1       2.818   5.588  18.447  0.00  0.00    +0.000 N 
ENDROOT
BRANCH   8  10
ATOM     10  C   UNL     1       2.053   7.902  19.248  0.00  0.00    +0.000 A 
ATOM     11  C   UNL     1       1.559   9.074  18.654  0.00  0.00    +0.000 A 
ATOM     12  C   UNL     1       0.786   9.987  19.384  0.00  0.00    +0.000 A 
ATOM     13  C   UNL     1       0.496   9.727  20.720  0.00  0.00    +0.000 A 
ATOM     14 CL   UNL     1      -0.448  10.842  21.628  0.00  0.00    +0.000 Cl
ATOM     15  C   UNL     1       0.986   8.578  21.333  0.00  0.00    +0.000 A 
ATOM     16  C   UNL     1       1.781   7.684  20.608  0.00  0.00    +0.000 A 
ENDBRANCH   8  10
BRANCH   1  17
ATOM     17  C   UNL     1       6.868   4.723  14.667  0.00  0.00    +0.000 C 
ATOM     18  O   UNL     1       7.800   5.501  14.566  0.00  0.00    +0.000 OA
BRANCH  17  19
ATOM     19  O   UNL     1       6.624   3.654  13.871  0.00  0.00    +0.000 OA
BRANCH  19  21
ATOM     20  C   UNL     1       5.734   2.629  11.907  0.00  0.00    +0.000 C 
ATOM     21  C   UNL     1       5.834   3.917  12.707  0.00  0.00    +0.000 C 
ENDBRANCH  19  21
ENDBRANCH  17  19
ENDBRANCH   1  17
BRANCH   9  22
ATOM     22  C   UNL     1       1.930   4.728  19.211  0.00  0.00    +0.000 C 
BRANCH  22  23
ATOM     23  C   UNL     1       2.563   4.120  20.461  0.00  0.00    +0.000 C 
BRANCH  23  24
ATOM     24  O   UNL     1       2.544   2.698  20.409  0.00  0.00    +0.000 OA
ATOM     25  H   UNL     1       2.770   2.432  19.498  0.00  0.00    +0.000 HD
ENDBRANCH  23  24
ENDBRANCH  22  23
ENDBRANCH   9  22
TORSDOF 7
ENDMDL
MODEL 3
REMARK VINA RESULT:      -7.4      1.324      1.820
REMARK  Name = 
REMARK  8 active torsions:
REMARK  status: ('A' for Active; 'I' for Inactive)
REMARK    1  A    between atoms: C_1  and  C_2
REMARK    2  A    between atoms: C_2  and  O_3
REMARK    3  A    between atoms: O_3  and  C_4
REMARK    4  A    between atoms: C_4  and  C_6
REMARK    5  A    between atoms: C_13  and  C_14
REMARK    6  A    between atoms: N_21  and  C_22
REMARK    7  A    between atoms: C_22  and  C_23
REMARK    8  A    between atoms: C_23  and  O_24
REMARK                            x       y       z     vdW  Elec       q    Type
REMARK                         _______ _______ _______ _____ _____    ______ ____
ROOT
ATOM      1  C   UNL     1       5.585   5.113  16.898  0.00  0.00    +0.000 A 
ATOM      2  C   UNL     1       5.266   4.075  17.785  0.00  0.00    +0.000 A 
ATOM      3  C   UNL     1       4.294   4.241  18.778  0.00  0.00    +0.000 A 
ATOM      4  C   UNL     1       3.656   5.488  18.853  0.00  0.00    +0.000 A 
ATOM      5  C   UNL     1       3.958   6.529  17.989  0.00  0.00    +0.000 A 
ATOM      6  C   UNL     1       4.929   6.351  16.989  0.00  0.00    +0.000 A 
ATOM      7  N   UNL     1       3.218   7.639  18.280  0.00  0.00    +0.000 NA
ATOM      8  C   UNL     1       2.479   7.335  19.336  0.00  0.00    +0.000 A 
ATOM      9  N   UNL     1       2.674   6.005  19.677  0.00  0.00    +0.000 N 
ENDROOT
BRANCH   8  10
ATOM     10  C   UNL     1       1.555   8.296  19.963  0.00  0.00    +0.000 A 
ATOM     11  C   UNL     1       1.038   9.348  19.189  0.00  0.00    +0.000 A 
ATOM     12  C   UNL     1       0.154  10.286  19.737  0.00  0.00    +0.000 A 
ATOM     13  C   UNL     1      -0.226  10.173  21.071  0.00  0.00    +0.000 A 
ATOM     14 CL   UNL     1      -1.308  11.320  21.757  0.00  0.00    +0.000 Cl
ATOM     15  C   UNL     1       0.283   9.146  21.861  0.00  0.00    +0.000 A 
ATOM     16  C   UNL     1       1.188   8.230  21.316  0.00  0.00    +0.000 A 
ENDBRANCH   8  10
BRANCH   1  17
ATOM     17  C   UNL     1       6.692   4.888  15.930  0.00  0.00    +0.000 C 
ATOM     18  O   UNL     1       7.814   4.538  16.252  0.00  0.00    +0.000 OA
BRANCH  17  19
ATOM     19  O   UNL     1       6.287   5.242  14.686  0.00  0.00    +0.000 OA
BRANCH  19  21
ATOM     20  C   UNL     1       6.345   3.649  12.909  0.00  0.00    +0.000 C 
ATOM     21  C   UNL     1       5.488   4.274  13.997  0.00  0.00    +0.000 C 
ENDBRANCH  19  21
ENDBRANCH  17  19
ENDBRANCH   1  17
BRANCH   9  22
ATOM     22  C   UNL     1       1.967   5.231  20.684  0.00  0.00    +0.000 C 
BRANCH  22  23
ATOM     23  C   UNL     1       1.006   4.188  20.117  0.00  0.00    +0.000 C 
BRANCH  23  24
ATOM     24  O   UNL     1       0.870   3.080  20.998  0.00  0.00    +0.000 OA
ATOM     25  H   UNL     1       1.738   2.640  21.058  0.00  0.00    +0.000 HD
ENDBRANCH  23  24
ENDBRANCH  22  23
ENDBRANCH   9  22
TORSDOF 7
ENDMDL
MODEL 4
REMARK VINA RESULT:      -7.1      1.610      2.595
REMARK  Name = 
REMARK  8 active torsions:
REMARK  status: ('A' for Active; 'I' for Inactive)
REMARK    1  A    between atoms: C_1  and  C_2
REMARK    2  A    between atoms: C_2  and  O_3
REMARK    3  A    between atoms: O_3  and  C_4
REMARK    4  A    between atoms: C_4  and  C_6
REMARK    5  A    between atoms: C_13  and  C_14
REMARK    6  A    between atoms: N_21  and  C_22
REMARK    7  A    between atoms: C_22  and  C_23
REMARK    8  A    between atoms: C_23  and  O_24
REMARK                            x       y       z     vdW  Elec       q    Type
REMARK                         _______ _______ _______ _____ _____    ______ ____
ROOT
ATOM      1  C   UNL     1       5.124   4.742  16.553  0.00  0.00    +0.000 A 
ATOM      2  C   UNL     1       4.466   3.660  17.154  0.00  0.00    +0.000 A 
ATOM      3  C   UNL     1       3.441   3.859  18.086  0.00  0.00    +0.000 A 
ATOM      4  C   UNL     1       3.104   5.184  18.399  0.00  0.00    +0.000 A 
ATOM      5  C   UNL     1       3.744   6.270  17.819  0.00  0.00    +0.000 A 
ATOM      6  C   UNL     1       4.765   6.060  16.877  0.00  0.00    +0.000 A 
ATOM      7  N   UNL     1       3.248   7.446  18.303  0.00  0.00    +0.000 NA
ATOM      8  C   UNL     1       2.333   7.130  19.205  0.00  0.00    +0.000 A 
ATOM      9  N   UNL     1       2.172   5.754  19.246  0.00  0.00    +0.000 N 
ENDROOT
BRANCH   8  10
ATOM     10  C   UNL     1       1.584   8.145  19.968  0.00  0.00    +0.000 A 
ATOM     11  C   UNL     1       1.123   9.292  19.302  0.00  0.00    +0.000 A 
ATOM     12  C   UNL     1       0.403  10.285  19.981  0.00  0.00    +0.000 A 
ATOM     13  C   UNL     1       0.135  10.130  21.338  0.00  0.00    +0.000 A 
ATOM     14 CL   UNL     1      -0.744  11.343  22.183  0.00  0.00    +0.000 Cl
ATOM     15  C   UNL     1       0.593   9.008  22.020  0.00  0.00    +0.000 A 
ATOM     16  C   UNL     1       1.335   8.034  21.344  0.00  0.00    +0.000 A 
ENDBRANCH   8  10
BRANCH   1  17
ATOM     17  C   UNL     1       6.261   4.447  15.641  0.00  0.00    +0.000 C 
ATOM     18  O   UNL     1       6.167   3.761  14.638  0.00  0.00    +0.000 OA
BRANCH  17  19
ATOM     19  O   UNL     1       7.405   4.953  16.163  0.00  0.00    +0.000 OA
BRANCH  19  21
ATOM     20  C   UNL     1       7.824   5.688  18.395  0.00  0.00    +0.000 C 
ATOM     21  C   UNL     1       7.749   4.484  17.471  0.00  0.00    +0.000 C 
ENDBRANCH  19  21
ENDBRANCH  17  19
ENDBRANCH   1  17
BRANCH   9  22
ATOM     22  C   UNL     1       1.185   4.994  19.996  0.00  0.00    +0.000 C 
BRANCH  22  23
ATOM     23  C   UNL     1       1.774   4.097  21.083  0.00  0.00    +0.000 C 
BRANCH  23  24
ATOM     24  O   UNL     1       0.967   2.944  21.292  0.00  0.00    +0.000 OA
ATOM     25  H   UNL     1       0.682   2.947  22.224  0.00  0.00    +0.000 HD
ENDBRANCH  23  24
ENDBRANCH  22  23
ENDBRANCH   9  22
TORSDOF 7
ENDMDL
MODEL 5
REMARK VINA RESULT:      -7.0      0.804      1.272
REMARK  Name = 
REMARK  8 active torsions:
REMARK  status: ('A' for Active; 'I' for Inactive)
REMARK    1  A    between atoms: C_1  and  C_2
REMARK    2  A    between atoms: C_2  and  O_3
REMARK    3  A    between atoms: O_3  and  C_4
REMARK    4  A    between atoms: C_4  and  C_6
REMARK    5  A    between atoms: C_13  and  C_14
REMARK    6  A    between atoms: N_21  and  C_22
REMARK    7  A    between atoms: C_22  and  C_23
REMARK    8  A    between atoms: C_23  and  O_24
REMARK                            x       y       z     vdW  Elec       q    Type
REMARK                         _______ _______ _______ _____ _____    ______ ____
ROOT
ATOM      1  C   UNL     1       6.140   4.989  14.874  0.00  0.00    +0.000 A 
ATOM      2  C   UNL     1       5.867   3.776  15.523  0.00  0.00    +0.000 A 
ATOM      3  C   UNL     1       4.979   3.714  16.602  0.00  0.00    +0.000 A 
ATOM      4  C   UNL     1       4.376   4.913  17.011  0.00  0.00    +0.000 A 
ATOM      5  C   UNL     1       4.634   6.124  16.386  0.00  0.00    +0.000 A 
ATOM      6  C   UNL     1       5.520   6.175  15.297  0.00  0.00    +0.000 A 
ATOM      7  N   UNL     1       3.943   7.140  16.981  0.00  0.00    +0.000 NA
ATOM      8  C   UNL     1       3.282   6.605  17.996  0.00  0.00    +0.000 A 
ATOM      9  N   UNL     1       3.472   5.232  18.007  0.00  0.00    +0.000 N 
ENDROOT
BRANCH   8  10
ATOM     10  C   UNL     1       2.430   7.401  18.898  0.00  0.00    +0.000 A 
ATOM     11  C   UNL     1       1.888   8.609  18.431  0.00  0.00    +0.000 A 
ATOM     12  C   UNL     1       1.070   9.401  19.248  0.00  0.00    +0.000 A 
ATOM     13  C   UNL     1       0.783   8.981  20.544  0.00  0.00    +0.000 A 
ATOM     14 CL   UNL     1      -0.217   9.945  21.559  0.00  0.00    +0.000 Cl
ATOM     15  C   UNL     1       1.320   7.793  21.032  0.00  0.00    +0.000 A 
ATOM     16  C   UNL     1       2.159   7.022  20.222  0.00  0.00    +0.000 A 
ENDBRANCH   8  10
BRANCH   1  17
ATOM     17  C   UNL     1       7.163   4.987  13.794  0.00  0.00    +0.000 C 
ATOM     18  O   UNL     1       8.326   5.314  13.960  0.00  0.00    +0.000 OA
BRANCH  17  19
ATOM     19  O   UNL     1       6.575   4.687  12.611  0.00  0.00    +0.000 OA
BRANCH  19  21
ATOM     20  C   UNL     1       4.914   3.132  11.888  0.00  0.00    +0.000 C 
ATOM     21  C   UNL     1       6.345   3.294  12.370  0.00  0.00    +0.000 C 
ENDBRANCH  19  21
ENDBRANCH  17  19
ENDBRANCH   1  17
BRANCH   9  22
ATOM     22  C   UNL     1       2.829   4.250  18.864  0.00  0.00    +0.000 C 
BRANCH  22  23
ATOM     23  C   UNL     1       1.763   3.407  18.167  0.00  0.00    +0.000 C 
BRANCH  23  24
ATOM     24  O   UNL     1       0.960   4.203  17.303  0.00  0.00    +0.000 OA
ATOM     25  H   UNL     1       0.081   3.785  17.249  0.00  0.00    +0.000 HD
ENDBRANCH  23  24
ENDBRANCH  22  23
ENDBRANCH   9  22
TORSDOF 7
ENDMDL
MODEL 6
REMARK VINA RESULT:      -6.9      1.592      2.389
REMARK  Name = 
REMARK  8 active torsions:
REMARK  status: ('A' for Active; 'I' for Inactive)
REMARK    1  A    between atoms: C_1  and  C_2
REMARK    2  A    between atoms: C_2  and  O_3
REMARK    3  A    between atoms: O_3  and  C_4
REMARK    4  A    between atoms: C_4  and  C_6
REMARK    5  A    between atoms: C_13  and  C_14
REMARK    6  A    between atoms: N_21  and  C_22
REMARK    7  A    between atoms: C_22  and  C_23
REMARK    8  A    between atoms: C_23  and  O_24
REMARK                            x       y       z     vdW  Elec       q    Type
REMARK                         _______ _______ _______ _____ _____    ______ ____
ROOT
ATOM      1  C   UNL     1       5.058   4.817  16.514  0.00  0.00    +0.000 A 
ATOM      2  C   UNL     1       4.494   3.737  17.208  0.00  0.00    +0.000 A 
ATOM      3  C   UNL     1       3.524   3.936  18.197  0.00  0.00    +0.000 A 
ATOM      4  C   UNL     1       3.142   5.258  18.468  0.00  0.00    +0.000 A 
ATOM      5  C   UNL     1       3.689   6.341  17.796  0.00  0.00    +0.000 A 
ATOM      6  C   UNL     1       4.655   6.131  16.799  0.00  0.00    +0.000 A 
ATOM      7  N   UNL     1       3.168   7.516  18.256  0.00  0.00    +0.000 NA
ATOM      8  C   UNL     1       2.330   7.204  19.232  0.00  0.00    +0.000 A 
ATOM      9  N   UNL     1       2.240   5.826  19.348  0.00  0.00    +0.000 N 
ENDROOT
BRANCH   8  10
ATOM     10  C   UNL     1       1.583   8.220  19.994  0.00  0.00    +0.000 A 
ATOM     11  C   UNL     1       1.516   8.109  21.392  0.00  0.00    +0.000 A 
ATOM     12  C   UNL     1       0.821   9.051  22.163  0.00  0.00    +0.000 A 
ATOM     13  C   UNL     1       0.189  10.119  21.533  0.00  0.00    +0.000 A 
ATOM     14 CL   UNL     1      -0.671  11.280  22.467  0.00  0.00    +0.000 Cl
ATOM     15  C   UNL     1       0.231  10.242  20.148  0.00  0.00    +0.000 A 
ATOM     16  C   UNL     1       0.902   9.284  19.382  0.00  0.00    +0.000 A 
ENDBRANCH   8  10
BRANCH   1  17
ATOM     17  C   UNL     1       6.147   4.529  15.542  0.00  0.00    +0.000 C 
ATOM     18  O   UNL     1       5.991   3.886  14.518  0.00  0.00    +0.000 OA
BRANCH  17  19
ATOM     19  O   UNL     1       7.325   4.985  16.032  0.00  0.00    +0.000 OA
BRANCH  19  21
ATOM     20  C   UNL     1       7.788   5.699  18.262  0.00  0.00    +0.000 C 
ATOM     21  C   UNL     1       7.682   4.503  17.332  0.00  0.00    +0.000 C 
ENDBRANCH  19  21
ENDBRANCH  17  19
ENDBRANCH   1  17
BRANCH   9  22
ATOM     22  C   UNL     1       1.343   5.060  20.198  0.00  0.00    +0.000 C 
BRANCH  22  23
ATOM     23  C   UNL     1       2.041   4.289  21.317  0.00  0.00    +0.000 C 
BRANCH  23  24
ATOM     24  O   UNL     1       1.835   2.888  21.183  0.00  0.00    +0.000 OA
ATOM     25  H   UNL     1       2.710   2.457  21.198  0.00  0.00    +0.000 HD
ENDBRANCH  23  24
ENDBRANCH  22  23
ENDBRANCH   9  22
TORSDOF 7
ENDMDL
MODEL 7
REMARK VINA RESULT:      -6.9      3.631      4.488
REMARK  Name = 
REMARK  8 active torsions:
REMARK  status: ('A' for Active; 'I' for Inactive)
REMARK    1  A    between atoms: C_1  and  C_2
REMARK    2  A    between atoms: C_2  and  O_3
REMARK    3  A    between atoms: O_3  and  C_4
REMARK    4  A    between atoms: C_4  and  C_6
REMARK    5  A    between atoms: C_13  and  C_14
REMARK    6  A    between atoms: N_21  and  C_22
REMARK    7  A    between atoms: C_22  and  C_23
REMARK    8  A    between atoms: C_23  and  O_24
REMARK                            x       y       z     vdW  Elec       q    Type
REMARK                         _______ _______ _______ _____ _____    ______ ____
ROOT
ATOM      1  C   UNL     1       6.636   4.218  13.816  0.00  0.00    +0.000 A 
ATOM      2  C   UNL     1       7.367   5.195  14.507  0.00  0.00    +0.000 A 
ATOM      3  C   UNL     1       7.106   5.481  15.852  0.00  0.00    +0.000 A 
ATOM      4  C   UNL     1       6.083   4.754  16.479  0.00  0.00    +0.000 A 
ATOM      5  C   UNL     1       5.346   3.785  15.814  0.00  0.00    +0.000 A 
ATOM      6  C   UNL     1       5.621   3.499  14.467  0.00  0.00    +0.000 A 
ATOM      7  N   UNL     1       4.401   3.240  16.634  0.00  0.00    +0.000 NA
ATOM      8  C   UNL     1       4.497   3.869  17.795  0.00  0.00    +0.000 A 
ATOM      9  N   UNL     1       5.559   4.759  17.758  0.00  0.00    +0.000 N 
ENDROOT
BRANCH   8  10
ATOM     10  C   UNL     1       3.618   3.566  18.939  0.00  0.00    +0.000 A 
ATOM     11  C   UNL     1       4.059   2.656  19.913  0.00  0.00    +0.000 A 
ATOM     12  C   UNL     1       3.263   2.337  21.021  0.00  0.00    +0.000 A 
ATOM     13  C   UNL     1       2.014   2.936  21.163  0.00  0.00    +0.000 A 
ATOM     14 CL   UNL     1       1.025   2.551  22.516  0.00  0.00    +0.000 Cl
ATOM     15  C   UNL     1       1.552   3.831  20.203  0.00  0.00    +0.000 A 
ATOM     16  C   UNL     1       2.339   4.124  19.085  0.00  0.00    +0.000 A 
ENDBRANCH   8  10
BRANCH   1  17
ATOM     17  C   UNL     1       6.913   4.037  12.366  0.00  0.00    +0.000 C 
ATOM     18  O   UNL     1       7.560   4.822  11.695  0.00  0.00    +0.000 OA
BRANCH  17  19
ATOM     19  O   UNL     1       6.243   2.951  11.908  0.00  0.00    +0.000 OA
BRANCH  19  21
ATOM     20  C   UNL     1       6.270   0.668  11.211  0.00  0.00    +0.000 C 
ATOM     21  C   UNL     1       7.039   1.978  11.222  0.00  0.00    +0.000 C 
ENDBRANCH  19  21
ENDBRANCH  17  19
ENDBRANCH   1  17
BRANCH   9  22
ATOM     22  C   UNL     1       6.096   5.552  18.852  0.00  0.00    +0.000 C 
BRANCH  22  23
ATOM     23  C   UNL     1       7.553   5.248  19.195  0.00  0.00    +0.000 C 
BRANCH  23  24
ATOM     24  O   UNL     1       7.836   5.548  20.556  0.00  0.00    +0.000 OA
ATOM     25  H   UNL     1       7.236   6.266  20.832  0.00  0.00    +0.000 HD
ENDBRANCH  23  24
ENDBRANCH  22  23
ENDBRANCH   9  22
TORSDOF 7
ENDMDL
MODEL 8
REMARK VINA RESULT:      -6.8      4.148      8.308
REMARK  Name = 
REMARK  8 active torsions:
REMARK  status: ('A' for Active; 'I' for Inactive)
REMARK    1  A    between atoms: C_1  and  C_2
REMARK    2  A    between atoms: C_2  and  O_3
REMARK    3  A    between atoms: O_3  and  C_4
REMARK    4  A    between atoms: C_4  and  C_6
REMARK    5  A    between atoms: C_13  and  C_14
REMARK    6  A    between atoms: N_21  and  C_22
REMARK    7  A    between atoms: C_22  and  C_23
REMARK    8  A    between atoms: C_23  and  O_24
REMARK                            x       y       z     vdW  Elec       q    Type
REMARK                         _______ _______ _______ _____ _____    ______ ____
ROOT
ATOM      1  C   UNL     1       0.278  10.348  20.209  0.00  0.00    +0.000 A 
ATOM      2  C   UNL     1       0.227   9.440  21.276  0.00  0.00    +0.000 A 
ATOM      3  C   UNL     1       0.906   8.217  21.222  0.00  0.00    +0.000 A 
ATOM      4  C   UNL     1       1.634   7.935  20.057  0.00  0.00    +0.000 A 
ATOM      5  C   UNL     1       1.695   8.817  18.989  0.00  0.00    +0.000 A 
ATOM      6  C   UNL     1       1.019  10.046  19.055  0.00  0.00    +0.000 A 
ATOM      7  N   UNL     1       2.448   8.303  17.972  0.00  0.00    +0.000 NA
ATOM      8  C   UNL     1       2.834   7.097  18.357  0.00  0.00    +0.000 A 
ATOM      9  N   UNL     1       2.408   6.862  19.655  0.00  0.00    +0.000 N 
ENDROOT
BRANCH   8  10
ATOM     10  C   UNL     1       3.655   6.215  17.508  0.00  0.00    +0.000 A 
ATOM     11  C   UNL     1       4.650   6.785  16.698  0.00  0.00    +0.000 A 
ATOM     12  C   UNL     1       5.459   5.991  15.875  0.00  0.00    +0.000 A 
ATOM     13  C   UNL     1       5.279   4.610  15.864  0.00  0.00    +0.000 A 
ATOM     14 CL   UNL     1       6.263   3.624  14.855  0.00  0.00    +0.000 Cl
ATOM     15  C   UNL     1       4.291   4.025  16.649  0.00  0.00    +0.000 A 
ATOM     16  C   UNL     1       3.467   4.826  17.446  0.00  0.00    +0.000 A 
ENDBRANCH   8  10
BRANCH   1  17
ATOM     17  C   UNL     1      -0.543  11.584  20.306  0.00  0.00    +0.000 C 
ATOM     18  O   UNL     1      -1.123  12.090  19.361  0.00  0.00    +0.000 OA
BRANCH  17  19
ATOM     19  O   UNL     1      -0.440  12.101  21.555  0.00  0.00    +0.000 OA
BRANCH  19  21
ATOM     20  C   UNL     1      -2.152  11.782  23.187  0.00  0.00    +0.000 C 
ATOM     21  C   UNL     1      -1.635  12.687  22.082  0.00  0.00    +0.000 C 
ENDBRANCH  19  21
ENDBRANCH  17  19
ENDBRANCH   1  17
BRANCH   9  22
ATOM     22  C   UNL     1       2.724   5.726  20.505  0.00  0.00    +0.000 C 
BRANCH  22  23
ATOM     23  C   UNL     1       1.606   4.691  20.615  0.00  0.00    +0.000 C 
BRANCH  23  24
ATOM     24  O   UNL     1       1.907   3.710  21.601  0.00  0.00    +0.000 OA
ATOM     25  H   UNL     1       2.302   4.169  22.365  0.00  0.00    +0.000 HD
ENDBRANCH  23  24
ENDBRANCH  22  23
ENDBRANCH   9  22
TORSDOF 7
ENDMDL
MODEL 9
REMARK VINA RESULT:      -6.7      4.854      7.358
REMARK  Name = 
REMARK  8 active torsions:
REMARK  status: ('A' for Active; 'I' for Inactive)
REMARK    1  A    between atoms: C_1  and  C_2
REMARK    2  A    between atoms: C_2  and  O_3
REMARK    3  A    between atoms: O_3  and  C_4
REMARK    4  A    between atoms: C_4  and  C_6
REMARK    5  A    between atoms: C_13  and  C_14
REMARK    6  A    between atoms: N_21  and  C_22
REMARK    7  A    between atoms: C_22  and  C_23
REMARK    8  A    between atoms: C_23  and  O_24
REMARK                            x       y       z     vdW  Elec       q    Type
REMARK                         _______ _______ _______ _____ _____    ______ ____
ROOT
ATOM      1  C   UNL     1       1.950   7.632  19.916  0.00  0.00    +0.000 A 
ATOM      2  C   UNL     1       1.877   8.381  18.733  0.00  0.00    +0.000 A 
ATOM      3  C   UNL     1       1.271   9.642  18.707  0.00  0.00    +0.000 A 
ATOM      4  C   UNL     1       0.737  10.125  19.911  0.00  0.00    +0.000 A 
ATOM      5  C   UNL     1       0.795   9.400  21.092  0.00  0.00    +0.000 A 
ATOM      6  C   UNL     1       1.413   8.139  21.110  0.00  0.00    +0.000 A 
ATOM      7  N   UNL     1       0.188  10.076  22.112  0.00  0.00    +0.000 NA
ATOM      8  C   UNL     1      -0.287  11.198  21.594  0.00  0.00    +0.000 A 
ATOM      9  N   UNL     1       0.085  11.292  20.261  0.00  0.00    +0.000 N 
ENDROOT
BRANCH   8  10
ATOM     10  C   UNL     1      -1.032  12.189  22.391  0.00  0.00    +0.000 A 
ATOM     11  C   UNL     1      -2.318  11.863  22.852  0.00  0.00    +0.000 A 
ATOM     12  C   UNL     1      -3.065  12.769  23.616  0.00  0.00    +0.000 A 
ATOM     13  C   UNL     1      -2.523  14.013  23.929  0.00  0.00    +0.000 A 
ATOM     14 CL   UNL     1      -3.432  15.135  24.862  0.00  0.00    +0.000 Cl
ATOM     15  C   UNL     1      -1.256  14.361  23.471  0.00  0.00    +0.000 A 
ATOM     16  C   UNL     1      -0.526  13.464  22.685  0.00  0.00    +0.000 A 
ENDBRANCH   8  10
BRANCH   1  17
ATOM     17  C   UNL     1       2.528   6.264  19.841  0.00  0.00    +0.000 C 
ATOM     18  O   UNL     1       3.282   5.893  18.958  0.00  0.00    +0.000 OA
BRANCH  17  19
ATOM     19  O   UNL     1       1.998   5.492  20.821  0.00  0.00    +0.000 OA
BRANCH  19  21
ATOM     20  C   UNL     1       1.523   3.183  21.194  0.00  0.00    +0.000 C 
ATOM     21  C   UNL     1       1.168   4.413  20.377  0.00  0.00    +0.000 C 
ENDBRANCH  19  21
ENDBRANCH  17  19
ENDBRANCH   1  17
BRANCH   9  22
ATOM     22  C   UNL     1      -0.113  12.414  19.359  0.00  0.00    +0.000 C 
BRANCH  22  23
ATOM     23  C   UNL     1      -1.476  12.438  18.672  0.00  0.00    +0.000 C 
BRANCH  23  24
ATOM     24  O   UNL     1      -1.340  12.491  17.257  0.00  0.00    +0.000 OA
ATOM     25  H   UNL     1      -0.491  12.072  17.025  0.00  0.00    +0.000 HD
ENDBRANCH  23  24
ENDBRANCH  22  23
ENDBRANCH   9  22
TORSDOF 7
ENDMDL
