MODEL 1
REMARK VINA RESULT:      -6.4      0.000      0.000
REMARK  Name = 
REMARK  6 active torsions:
REMARK  status: ('A' for Active; 'I' for Inactive)
REMARK    1  A    between atoms: C_1  and  O_2
REMARK    2  A    between atoms: O_2  and  C_3
REMARK    3  A    between atoms: C_8  and  C_9
REMARK    4  A    between atoms: C_11  and  C_12
REMARK    5  A    between atoms: C_12  and  O_13
REMARK    6  A    between atoms: C_15  and  C_16
REMARK                            x       y       z     vdW  Elec       q    Type
REMARK                         _______ _______ _______ _____ _____    ______ ____
ROOT
ATOM      1  C   UNL     1       3.212   6.718  18.338  0.00  0.00    +0.000 A 
ATOM      2  C   UNL     1       3.990   6.162  17.299  0.00  0.00    +0.000 A 
ATOM      3  C   UNL     1       4.577   7.059  16.378  0.00  0.00    +0.000 A 
ATOM      4  C   UNL     1       5.367   6.639  15.324  0.00  0.00    +0.000 A 
ATOM      5  C   UNL     1       5.622   5.293  15.187  0.00  0.00    +0.000 A 
ATOM      6  C   UNL     1       5.084   4.349  16.090  0.00  0.00    +0.000 A 
ATOM      7  C   UNL     1       5.531   2.934  15.806  0.00  0.00    +0.000 C 
ATOM      8  C   UNL     1       4.190   4.746  17.166  0.00  0.00    +0.000 A 
ATOM      9  C   UNL     1       3.472   3.877  18.111  0.00  0.00    +0.000 A 
ATOM     10  C   UNL     1       2.697   4.457  19.171  0.00  0.00    +0.000 A 
ATOM     11  C   UNL     1       1.907   3.976  20.287  0.00  0.00    +0.000 A 
ATOM     12  C   UNL     1       1.651   2.604  20.795  0.00  0.00    +0.000 C 
ATOM     13  C   UNL     1       1.367   5.100  20.875  0.00  0.00    +0.000 A 
ATOM     14  O   UNL     1       1.774   6.214  20.242  0.00  0.00    +0.000 OA
ATOM     15  C   UNL     1       2.592   5.839  19.223  0.00  0.00    +0.000 A 
ENDROOT
BRANCH   1  17
ATOM     16  C   UNL     1       1.812   8.577  17.850  0.00  0.00    +0.000 C 
ATOM     17  O   UNL     1       3.050   8.098  18.366  0.00  0.00    +0.000 OA
ENDBRANCH   1  17
BRANCH   9  18
ATOM     18  C   UNL     1       3.463   2.373  17.972  0.00  0.00    +0.000 C 
BRANCH  18  19
ATOM     19  O   UNL     1       2.248   1.904  17.402  0.00  0.00    +0.000 OA
ATOM     20  H   UNL     1       2.409   1.740  16.458  0.00  0.00    +0.000 HD
ENDBRANCH  18  19
ENDBRANCH   9  18
TORSDOF 3
ENDMDL
MODEL 2
REMARK VINA RESULT:      -6.2      1.135      4.389
REMARK  Name = 
REMARK  6 active torsions:
REMARK  status: ('A' for Active; 'I' for Inactive)
REMARK    1  A    between atoms: C_1  and  O_2
REMARK    2  A    between atoms: O_2  and  C_3
REMARK    3  A    between atoms: C_8  and  C_9
REMARK    4  A    between atoms: C_11  and  C_12
REMARK    5  A    between atoms: C_12  and  O_13
REMARK    6  A    between atoms: C_15  and  C_16
REMARK                            x       y       z     vdW  Elec       q    Type
REMARK                         _______ _______ _______ _____ _____    ______ ____
ROOT
ATOM      1  C   UNL     1       3.377   6.716  18.081  0.00  0.00    +0.000 A 
ATOM      2  C   UNL     1       2.648   5.845  18.921  0.00  0.00    +0.000 A 
ATOM      3  C   UNL     1       1.858   6.434  19.934  0.00  0.00    +0.000 A 
ATOM      4  C   UNL     1       1.092   5.689  20.813  0.00  0.00    +0.000 A 
ATOM      5  C   UNL     1       1.071   4.320  20.671  0.00  0.00    +0.000 A 
ATOM      6  C   UNL     1       1.821   3.675  19.662  0.00  0.00    +0.000 A 
ATOM      7  C   UNL     1       1.615   2.179  19.634  0.00  0.00    +0.000 C 
ATOM      8  C   UNL     1       2.694   4.418  18.768  0.00  0.00    +0.000 A 
ATOM      9  C   UNL     1       3.610   3.883  17.749  0.00  0.00    +0.000 A 
ATOM     10  C   UNL     1       4.333   4.780  16.893  0.00  0.00    +0.000 A 
ATOM     11  C   UNL     1       5.261   4.667  15.785  0.00  0.00    +0.000 A 
ATOM     12  C   UNL     1       5.786   3.483  15.057  0.00  0.00    +0.000 C 
ATOM     13  C   UNL     1       5.629   5.958  15.471  0.00  0.00    +0.000 A 
ATOM     14  O   UNL     1       4.993   6.842  16.259  0.00  0.00    +0.000 OA
ATOM     15  C   UNL     1       4.195   6.144  17.109  0.00  0.00    +0.000 A 
ENDROOT
BRANCH   1  17
ATOM     16  C   UNL     1       2.257   8.765  17.630  0.00  0.00    +0.000 C 
ATOM     17  O   UNL     1       3.295   8.081  18.326  0.00  0.00    +0.000 OA
ENDBRANCH   1  17
BRANCH   9  18
ATOM     18  C   UNL     1       3.877   2.403  17.605  0.00  0.00    +0.000 C 
BRANCH  18  19
ATOM     19  O   UNL     1       4.556   1.878  18.737  0.00  0.00    +0.000 OA
ATOM     20  H   UNL     1       4.451   2.513  19.465  0.00  0.00    +0.000 HD
ENDBRANCH  18  19
ENDBRANCH   9  18
TORSDOF 3
ENDMDL
MODEL 3
REMARK VINA RESULT:      -5.9      1.498      4.456
REMARK  Name = 
REMARK  6 active torsions:
REMARK  status: ('A' for Active; 'I' for Inactive)
REMARK    1  A    between atoms: C_1  and  O_2
REMARK    2  A    between atoms: O_2  and  C_3
REMARK    3  A    between atoms: C_8  and  C_9
REMARK    4  A    between atoms: C_11  and  C_12
REMARK    5  A    between atoms: C_12  and  O_13
REMARK    6  A    between atoms: C_15  and  C_16
REMARK                            x       y       z     vdW  Elec       q    Type
REMARK                         _______ _______ _______ _____ _____    ______ ____
ROOT
ATOM      1  C   UNL     1       1.965   6.037  19.793  0.00  0.00    +0.000 A 
ATOM      2  C   UNL     1       2.097   4.643  19.976  0.00  0.00    +0.000 A 
ATOM      3  C   UNL     1       1.380   4.059  21.046  0.00  0.00    +0.000 A 
ATOM      4  C   UNL     1       1.420   2.705  21.322  0.00  0.00    +0.000 A 
ATOM      5  C   UNL     1       2.160   1.886  20.499  0.00  0.00    +0.000 A 
ATOM      6  C   UNL     1       2.879   2.407  19.400  0.00  0.00    +0.000 A 
ATOM      7  C   UNL     1       3.575   1.341  18.586  0.00  0.00    +0.000 C 
ATOM      8  C   UNL     1       2.920   3.834  19.122  0.00  0.00    +0.000 A 
ATOM      9  C   UNL     1       3.703   4.531  18.090  0.00  0.00    +0.000 A 
ATOM     10  C   UNL     1       3.547   5.945  17.907  0.00  0.00    +0.000 A 
ATOM     11  C   UNL     1       4.075   6.961  17.016  0.00  0.00    +0.000 A 
ATOM     12  C   UNL     1       4.996   6.869  15.854  0.00  0.00    +0.000 C 
ATOM     13  C   UNL     1       3.543   8.155  17.452  0.00  0.00    +0.000 A 
ATOM     14  O   UNL     1       2.723   7.960  18.500  0.00  0.00    +0.000 OA
ATOM     15  C   UNL     1       2.704   6.628  18.771  0.00  0.00    +0.000 A 
ENDROOT
BRANCH   1  17
ATOM     16  C   UNL     1       1.613   8.061  20.992  0.00  0.00    +0.000 C 
ATOM     17  O   UNL     1       1.170   6.741  20.690  0.00  0.00    +0.000 OA
ENDBRANCH   1  17
BRANCH   9  18
ATOM     18  C   UNL     1       4.732   3.819  17.244  0.00  0.00    +0.000 C 
BRANCH  18  19
ATOM     19  O   UNL     1       6.026   3.879  17.825  0.00  0.00    +0.000 OA
ATOM     20  H   UNL     1       5.965   3.508  18.721  0.00  0.00    +0.000 HD
ENDBRANCH  18  19
ENDBRANCH   9  18
TORSDOF 3
ENDMDL
MODEL 4
REMARK VINA RESULT:      -5.7      1.369      5.731
REMARK  Name = 
REMARK  6 active torsions:
REMARK  status: ('A' for Active; 'I' for Inactive)
REMARK    1  A    between atoms: C_1  and  O_2
REMARK    2  A    between atoms: O_2  and  C_3
REMARK    3  A    between atoms: C_8  and  C_9
REMARK    4  A    between atoms: C_11  and  C_12
REMARK    5  A    between atoms: C_12  and  O_13
REMARK    6  A    between atoms: C_15  and  C_16
REMARK                            x       y       z     vdW  Elec       q    Type
REMARK                         _______ _______ _______ _____ _____    ______ ____
ROOT
ATOM      1  C   UNL     1       3.401   3.132  17.828  0.00  0.00    +0.000 A 
ATOM      2  C   UNL     1       2.653   3.869  18.772  0.00  0.00    +0.000 A 
ATOM      3  C   UNL     1       1.778   3.144  19.613  0.00  0.00    +0.000 A 
ATOM      4  C   UNL     1       1.000   3.750  20.583  0.00  0.00    +0.000 A 
ATOM      5  C   UNL     1       1.110   5.110  20.760  0.00  0.00    +0.000 A 
ATOM      6  C   UNL     1       1.985   5.886  19.967  0.00  0.00    +0.000 A 
ATOM      7  C   UNL     1       2.006   7.345  20.359  0.00  0.00    +0.000 C 
ATOM      8  C   UNL     1       2.763   5.296  18.890  0.00  0.00    +0.000 A 
ATOM      9  C   UNL     1       3.627   5.984  17.918  0.00  0.00    +0.000 A 
ATOM     10  C   UNL     1       4.392   5.220  16.974  0.00  0.00    +0.000 A 
ATOM     11  C   UNL     1       5.353   5.494  15.924  0.00  0.00    +0.000 A 
ATOM     12  C   UNL     1       5.970   6.764  15.460  0.00  0.00    +0.000 C 
ATOM     13  C   UNL     1       5.643   4.274  15.352  0.00  0.00    +0.000 A 
ATOM     14  O   UNL     1       4.976   3.285  15.972  0.00  0.00    +0.000 OA
ATOM     15  C   UNL     1       4.232   3.842  16.963  0.00  0.00    +0.000 A 
ENDROOT
BRANCH   1  17
ATOM     16  C   UNL     1       4.071   0.979  18.586  0.00  0.00    +0.000 C 
ATOM     17  O   UNL     1       3.204   1.758  17.767  0.00  0.00    +0.000 OA
ENDBRANCH   1  17
BRANCH   9  18
ATOM     18  C   UNL     1       3.695   7.489  17.827  0.00  0.00    +0.000 C 
BRANCH  18  19
ATOM     19  O   UNL     1       2.648   8.017  17.024  0.00  0.00    +0.000 OA
ATOM     20  H   UNL     1       2.821   8.965  16.899  0.00  0.00    +0.000 HD
ENDBRANCH  18  19
ENDBRANCH   9  18
TORSDOF 3
ENDMDL
MODEL 5
REMARK VINA RESULT:      -5.6      1.335      3.762
REMARK  Name = 
REMARK  6 active torsions:
REMARK  status: ('A' for Active; 'I' for Inactive)
REMARK    1  A    between atoms: C_1  and  O_2
REMARK    2  A    between atoms: O_2  and  C_3
REMARK    3  A    between atoms: C_8  and  C_9
REMARK    4  A    between atoms: C_11  and  C_12
REMARK    5  A    between atoms: C_12  and  O_13
REMARK    6  A    between atoms: C_15  and  C_16
REMARK                            x       y       z     vdW  Elec       q    Type
REMARK                         _______ _______ _______ _____ _____    ______ ____
ROOT
ATOM      1  C   UNL     1       3.871   3.643  18.569  0.00  0.00    +0.000 A 
ATOM      2  C   UNL     1       4.518   4.183  17.436  0.00  0.00    +0.000 A 
ATOM      3  C   UNL     1       5.303   3.303  16.657  0.00  0.00    +0.000 A 
ATOM      4  C   UNL     1       5.977   3.709  15.520  0.00  0.00    +0.000 A 
ATOM      5  C   UNL     1       5.849   5.017  15.110  0.00  0.00    +0.000 A 
ATOM      6  C   UNL     1       5.060   5.939  15.834  0.00  0.00    +0.000 A 
ATOM      7  C   UNL     1       4.999   7.304  15.189  0.00  0.00    +0.000 C 
ATOM      8  C   UNL     1       4.397   5.567  17.074  0.00  0.00    +0.000 A 
ATOM      9  C   UNL     1       3.636   6.435  17.986  0.00  0.00    +0.000 A 
ATOM     10  C   UNL     1       2.972   5.868  19.125  0.00  0.00    +0.000 A 
ATOM     11  C   UNL     1       2.124   6.345  20.200  0.00  0.00    +0.000 A 
ATOM     12  C   UNL     1       1.558   7.689  20.486  0.00  0.00    +0.000 C 
ATOM     13  C   UNL     1       1.894   5.253  21.010  0.00  0.00    +0.000 A 
ATOM     14  O   UNL     1       2.495   4.157  20.515  0.00  0.00    +0.000 OA
ATOM     15  C   UNL     1       3.133   4.512  19.369  0.00  0.00    +0.000 A 
ENDROOT
BRANCH   1  17
ATOM     16  C   UNL     1       2.979   1.438  18.560  0.00  0.00    +0.000 C 
ATOM     17  O   UNL     1       4.074   2.298  18.858  0.00  0.00    +0.000 OA
ENDBRANCH   1  17
BRANCH   9  18
ATOM     18  C   UNL     1       3.578   7.933  17.809  0.00  0.00    +0.000 C 
BRANCH  18  19
ATOM     19  O   UNL     1       2.345   8.349  17.238  0.00  0.00    +0.000 OA
ATOM     20  H   UNL     1       1.734   8.547  17.967  0.00  0.00    +0.000 HD
ENDBRANCH  18  19
ENDBRANCH   9  18
TORSDOF 3
ENDMDL
MODEL 6
REMARK VINA RESULT:      -5.4      6.879      9.993
REMARK  Name = 
REMARK  6 active torsions:
REMARK  status: ('A' for Active; 'I' for Inactive)
REMARK    1  A    between atoms: C_1  and  O_2
REMARK    2  A    between atoms: O_2  and  C_3
REMARK    3  A    between atoms: C_8  and  C_9
REMARK    4  A    between atoms: C_11  and  C_12
REMARK    5  A    between atoms: C_12  and  O_13
REMARK    6  A    between atoms: C_15  and  C_16
REMARK                            x       y       z     vdW  Elec       q    Type
REMARK                         _______ _______ _______ _____ _____    ______ ____
ROOT
ATOM      1  C   UNL     1      -3.100  10.652  17.459  0.00  0.00    +0.000 A 
ATOM      2  C   UNL     1      -1.975  10.797  18.302  0.00  0.00    +0.000 A 
ATOM      3  C   UNL     1      -0.814  10.066  17.964  0.00  0.00    +0.000 A 
ATOM      4  C   UNL     1       0.353  10.131  18.703  0.00  0.00    +0.000 A 
ATOM      5  C   UNL     1       0.395  10.970  19.794  0.00  0.00    +0.000 A 
ATOM      6  C   UNL     1      -0.726  11.744  20.168  0.00  0.00    +0.000 A 
ATOM      7  C   UNL     1      -0.457  12.644  21.352  0.00  0.00    +0.000 C 
ATOM      8  C   UNL     1      -1.991  11.647  19.459  0.00  0.00    +0.000 A 
ATOM      9  C   UNL     1      -3.266  12.301  19.792  0.00  0.00    +0.000 A 
ATOM     10  C   UNL     1      -4.395  12.156  18.918  0.00  0.00    +0.000 A 
ATOM     11  C   UNL     1      -5.758  12.647  18.861  0.00  0.00    +0.000 A 
ATOM     12  C   UNL     1      -6.501  13.594  19.733  0.00  0.00    +0.000 C 
ATOM     13  C   UNL     1      -6.329  12.042  17.763  0.00  0.00    +0.000 A 
ATOM     14  O   UNL     1      -5.439  11.256  17.132  0.00  0.00    +0.000 OA
ATOM     15  C   UNL     1      -4.264  11.331  17.810  0.00  0.00    +0.000 A 
ENDROOT
BRANCH   1  17
ATOM     16  C   UNL     1      -2.921  10.402  15.101  0.00  0.00    +0.000 C 
ATOM     17  O   UNL     1      -2.999   9.781  16.380  0.00  0.00    +0.000 OA
ENDBRANCH   1  17
BRANCH   9  18
ATOM     18  C   UNL     1      -3.460  13.080  21.071  0.00  0.00    +0.000 C 
BRANCH  18  19
ATOM     19  O   UNL     1      -4.132  12.312  22.059  0.00  0.00    +0.000 OA
ATOM     20  H   UNL     1      -3.663  11.465  22.144  0.00  0.00    +0.000 HD
ENDBRANCH  18  19
ENDBRANCH   9  18
TORSDOF 3
ENDMDL
MODEL 7
REMARK VINA RESULT:      -5.4      1.510      4.778
REMARK  Name = 
REMARK  6 active torsions:
REMARK  status: ('A' for Active; 'I' for Inactive)
REMARK    1  A    between atoms: C_1  and  O_2
REMARK    2  A    between atoms: O_2  and  C_3
REMARK    3  A    between atoms: C_8  and  C_9
REMARK    4  A    between atoms: C_11  and  C_12
REMARK    5  A    between atoms: C_12  and  O_13
REMARK    6  A    between atoms: C_15  and  C_16
REMARK                            x       y       z     vdW  Elec       q    Type
REMARK                         _______ _______ _______ _____ _____    ______ ____
ROOT
ATOM      1  C   UNL     1       4.060   4.774  17.249  0.00  0.00    +0.000 A 
ATOM      2  C   UNL     1       3.544   3.735  18.055  0.00  0.00    +0.000 A 
ATOM      3  C   UNL     1       3.956   2.417  17.754  0.00  0.00    +0.000 A 
ATOM      4  C   UNL     1       3.529   1.317  18.475  0.00  0.00    +0.000 A 
ATOM      5  C   UNL     1       2.696   1.519  19.552  0.00  0.00    +0.000 A 
ATOM      6  C   UNL     1       2.268   2.815  19.917  0.00  0.00    +0.000 A 
ATOM      7  C   UNL     1       1.410   2.829  21.161  0.00  0.00    +0.000 C 
ATOM      8  C   UNL     1       2.637   3.987  19.139  0.00  0.00    +0.000 A 
ATOM      9  C   UNL     1       2.187   5.375  19.328  0.00  0.00    +0.000 A 
ATOM     10  C   UNL     1       2.731   6.421  18.511  0.00  0.00    +0.000 A 
ATOM     11  C   UNL     1       2.594   7.861  18.407  0.00  0.00    +0.000 A 
ATOM     12  C   UNL     1       1.818   8.837  19.214  0.00  0.00    +0.000 C 
ATOM     13  C   UNL     1       3.370   8.235  17.331  0.00  0.00    +0.000 A 
ATOM     14  O   UNL     1       3.987   7.169  16.793  0.00  0.00    +0.000 OA
ATOM     15  C   UNL     1       3.623   6.072  17.507  0.00  0.00    +0.000 A 
ENDROOT
BRANCH   1  17
ATOM     16  C   UNL     1       6.290   4.679  16.429  0.00  0.00    +0.000 C 
ATOM     17  O   UNL     1       4.907   4.430  16.202  0.00  0.00    +0.000 OA
ENDBRANCH   1  17
BRANCH   9  18
ATOM     18  C   UNL     1       1.108   5.742  20.319  0.00  0.00    +0.000 C 
BRANCH  18  19
ATOM     19  O   UNL     1       1.641   6.415  21.452  0.00  0.00    +0.000 OA
ATOM     20  H   UNL     1       2.388   6.957  21.148  0.00  0.00    +0.000 HD
ENDBRANCH  18  19
ENDBRANCH   9  18
TORSDOF 3
ENDMDL
MODEL 8
REMARK VINA RESULT:      -5.4      5.950      9.237
REMARK  Name = 
REMARK  6 active torsions:
REMARK  status: ('A' for Active; 'I' for Inactive)
REMARK    1  A    between atoms: C_1  and  O_2
REMARK    2  A    between atoms: O_2  and  C_3
REMARK    3  A    between atoms: C_8  and  C_9
REMARK    4  A    between atoms: C_11  and  C_12
REMARK    5  A    between atoms: C_12  and  O_13
REMARK    6  A    between atoms: C_15  and  C_16
REMARK                            x       y       z     vdW  Elec       q    Type
REMARK                         _______ _______ _______ _____ _____    ______ ____
ROOT
ATOM      1  C   UNL     1      -0.653  10.241  18.607  0.00  0.00    +0.000 A 
ATOM      2  C   UNL     1      -1.838  10.544  17.900  0.00  0.00    +0.000 A 
ATOM      3  C   UNL     1      -1.978   9.994  16.606  0.00  0.00    +0.000 A 
ATOM      4  C   UNL     1      -3.094  10.209  15.818  0.00  0.00    +0.000 A 
ATOM      5  C   UNL     1      -4.127  10.962  16.331  0.00  0.00    +0.000 A 
ATOM      6  C   UNL     1      -4.055  11.519  17.628  0.00  0.00    +0.000 A 
ATOM      7  C   UNL     1      -5.312  12.256  18.027  0.00  0.00    +0.000 C 
ATOM      8  C   UNL     1      -2.868  11.375  18.455  0.00  0.00    +0.000 A 
ATOM      9  C   UNL     1      -2.605  11.982  19.769  0.00  0.00    +0.000 A 
ATOM     10  C   UNL     1      -1.404  11.652  20.482  0.00  0.00    +0.000 A 
ATOM     11  C   UNL     1      -0.810  11.983  21.763  0.00  0.00    +0.000 A 
ATOM     12  C   UNL     1      -1.308  12.803  22.897  0.00  0.00    +0.000 C 
ATOM     13  C   UNL     1       0.420  11.360  21.778  0.00  0.00    +0.000 A 
ATOM     14  O   UNL     1       0.617  10.662  20.646  0.00  0.00    +0.000 OA
ATOM     15  C   UNL     1      -0.485  10.816  19.865  0.00  0.00    +0.000 A 
ENDROOT
BRANCH   1  17
ATOM     16  C   UNL     1       1.604  10.025  17.887  0.00  0.00    +0.000 C 
ATOM     17  O   UNL     1       0.302   9.454  17.975  0.00  0.00    +0.000 OA
ENDBRANCH   1  17
BRANCH   9  18
ATOM     18  C   UNL     1      -3.530  13.005  20.383  0.00  0.00    +0.000 C 
BRANCH  18  19
ATOM     19  O   UNL     1      -3.080  14.332  20.146  0.00  0.00    +0.000 OA
ATOM     20  H   UNL     1      -2.302  14.280  19.566  0.00  0.00    +0.000 HD
ENDBRANCH  18  19
ENDBRANCH   9  18
TORSDOF 3
ENDMDL
MODEL 9
REMARK VINA RESULT:      -5.4      1.862      3.024
REMARK  Name = 
REMARK  6 active torsions:
REMARK  status: ('A' for Active; 'I' for Inactive)
REMARK    1  A    between atoms: C_1  and  O_2
REMARK    2  A    between atoms: O_2  and  C_3
REMARK    3  A    between atoms: C_8  and  C_9
REMARK    4  A    between atoms: C_11  and  C_12
REMARK    5  A    between atoms: C_12  and  O_13
REMARK    6  A    between atoms: C_15  and  C_16
REMARK                            x       y       z     vdW  Elec       q    Type
REMARK                         _______ _______ _______ _____ _____    ______ ____
ROOT
ATOM      1  C   UNL     1       1.961   6.005  20.267  0.00  0.00    +0.000 A 
ATOM      2  C   UNL     1       2.537   6.670  19.161  0.00  0.00    +0.000 A 
ATOM      3  C   UNL     1       2.030   7.949  18.839  0.00  0.00    +0.000 A 
ATOM      4  C   UNL     1       2.517   8.704  17.788  0.00  0.00    +0.000 A 
ATOM      5  C   UNL     1       3.563   8.202  17.046  0.00  0.00    +0.000 A 
ATOM      6  C   UNL     1       4.127   6.939  17.334  0.00  0.00    +0.000 A 
ATOM      7  C   UNL     1       5.302   6.598  16.447  0.00  0.00    +0.000 C 
ATOM      8  C   UNL     1       3.594   6.087  18.384  0.00  0.00    +0.000 A 
ATOM      9  C   UNL     1       4.002   4.716  18.729  0.00  0.00    +0.000 A 
ATOM     10  C   UNL     1       3.418   4.059  19.864  0.00  0.00    +0.000 A 
ATOM     11  C   UNL     1       3.565   2.785  20.538  0.00  0.00    +0.000 A 
ATOM     12  C   UNL     1       4.487   1.645  20.300  0.00  0.00    +0.000 C 
ATOM     13  C   UNL     1       2.620   2.780  21.542  0.00  0.00    +0.000 A 
ATOM     14  O   UNL     1       1.936   3.938  21.560  0.00  0.00    +0.000 OA
ATOM     15  C   UNL     1       2.421   4.724  20.563  0.00  0.00    +0.000 A 
ENDROOT
BRANCH   1  17
ATOM     16  C   UNL     1       1.255   7.873  21.558  0.00  0.00    +0.000 C 
ATOM     17  O   UNL     1       0.920   6.635  20.938  0.00  0.00    +0.000 OA
ENDBRANCH   1  17
BRANCH   9  18
ATOM     18  C   UNL     1       4.979   3.931  17.886  0.00  0.00    +0.000 C 
BRANCH  18  19
ATOM     19  O   UNL     1       6.285   3.944  18.443  0.00  0.00    +0.000 OA
ATOM     20  H   UNL     1       6.283   4.573  19.185  0.00  0.00    +0.000 HD
ENDBRANCH  18  19
ENDBRANCH   9  18
TORSDOF 3
ENDMDL
