MODEL 1
REMARK VINA RESULT:      -7.6      0.000      0.000
REMARK  Name = 
REMARK  1 active torsions:
REMARK  status: ('A' for Active; 'I' for Inactive)
REMARK    1  A    between atoms: C_7  and  C_8
REMARK                            x       y       z     vdW  Elec       q    Type
REMARK                         _______ _______ _______ _____ _____    ______ ____
ROOT
ATOM      1  C   UNL     1       2.086   5.540  19.627  0.00  0.00    +0.000 A 
ATOM      2  C   UNL     1       1.257   4.662  18.928  0.00  0.00    +0.000 A 
ATOM      3  N   UNL     1       1.687   3.486  18.470  0.00  0.00    +0.000 NA
ATOM      4  C   UNL     1       2.998   3.303  18.660  0.00  0.00    +0.000 A 
ATOM      5  C   UNL     1       3.701   3.668  19.770  0.00  0.00    +0.000 A 
ATOM      6  C   UNL     1       3.241   4.937  20.239  0.00  0.00    +0.000 A 
ATOM      7  C   UNL     1       5.140   3.223  19.340  0.00  0.00    +0.000 C 
ATOM      8  C   UNL     1       5.197   4.139  18.113  0.00  0.00    +0.000 C 
ATOM      9  C   UNL     1       5.976   5.360  18.794  0.00  0.00    +0.000 C 
ATOM     10  N   UNL     1       6.359   6.471  17.913  0.00  0.00    +0.000 NA
ATOM     11  C   UNL     1       7.474   6.018  17.065  0.00  0.00    +0.000 C 
ATOM     12  C   UNL     1       7.178   4.645  16.435  0.00  0.00    +0.000 C 
ATOM     13  C   UNL     1       5.705   4.272  16.647  0.00  0.00    +0.000 C 
ATOM     14  C   UNL     1       4.934   5.585  16.112  0.00  0.00    +0.000 C 
ATOM     15  C   UNL     1       5.176   6.751  17.092  0.00  0.00    +0.000 C 
ATOM     16  O   UNL     1       3.783   3.994  17.675  0.00  0.00    +0.000 OA
ENDROOT
BRANCH   1  23
ATOM     17  F   UNL     1       1.265   7.602  21.558  0.00  0.00    +0.000 F 
ATOM     18  C   UNL     1       1.508   7.954  20.290  0.00  0.00    +0.000 A 
ATOM     19  C   UNL     1       1.348   9.317  19.946  0.00  0.00    +0.000 A 
ATOM     20  C   UNL     1       1.595   9.761  18.642  0.00  0.00    +0.000 A 
ATOM     21  C   UNL     1       2.018   8.850  17.685  0.00  0.00    +0.000 A 
ATOM     22  C   UNL     1       2.173   7.503  18.041  0.00  0.00    +0.000 A 
ATOM     23  C   UNL     1       1.893   7.002  19.351  0.00  0.00    +0.000 A 
ENDBRANCH   1  23
TORSDOF 1
ENDMDL
MODEL 2
REMARK VINA RESULT:      -7.3      2.408      5.331
REMARK  Name = 
REMARK  1 active torsions:
REMARK  status: ('A' for Active; 'I' for Inactive)
REMARK    1  A    between atoms: C_7  and  C_8
REMARK                            x       y       z     vdW  Elec       q    Type
REMARK                         _______ _______ _______ _____ _____    ______ ____
ROOT
ATOM      1  C   UNL     1       4.799   6.518  17.794  0.00  0.00    +0.000 A 
ATOM      2  C   UNL     1       3.892   7.480  17.349  0.00  0.00    +0.000 A 
ATOM      3  N   UNL     1       2.711   7.674  17.937  0.00  0.00    +0.000 NA
ATOM      4  C   UNL     1       2.461   6.786  18.905  0.00  0.00    +0.000 A 
ATOM      5  C   UNL     1       3.369   6.313  19.806  0.00  0.00    +0.000 A 
ATOM      6  C   UNL     1       4.624   6.094  19.159  0.00  0.00    +0.000 A 
ATOM      7  C   UNL     1       2.466   5.309  20.601  0.00  0.00    +0.000 C 
ATOM      8  C   UNL     1       2.134   4.441  19.383  0.00  0.00    +0.000 C 
ATOM      9  C   UNL     1       3.257   3.323  19.605  0.00  0.00    +0.000 C 
ATOM     10  N   UNL     1       3.238   2.178  18.685  0.00  0.00    +0.000 NA
ATOM     11  C   UNL     1       2.088   1.328  19.038  0.00  0.00    +0.000 C 
ATOM     12  C   UNL     1       0.805   2.161  19.206  0.00  0.00    +0.000 C 
ATOM     13  C   UNL     1       1.030   3.589  18.690  0.00  0.00    +0.000 C 
ATOM     14  C   UNL     1       1.635   3.334  17.217  0.00  0.00    +0.000 C 
ATOM     15  C   UNL     1       3.057   2.748  17.346  0.00  0.00    +0.000 C 
ATOM     16  O   UNL     1       2.012   5.529  18.375  0.00  0.00    +0.000 OA
ENDROOT
BRANCH   1  23
ATOM     17  F   UNL     1       7.705   6.068  17.731  0.00  0.00    +0.000 F 
ATOM     18  C   UNL     1       6.948   5.589  16.737  0.00  0.00    +0.000 A 
ATOM     19  C   UNL     1       7.601   4.889  15.694  0.00  0.00    +0.000 A 
ATOM     20  C   UNL     1       6.873   4.350  14.626  0.00  0.00    +0.000 A 
ATOM     21  C   UNL     1       5.494   4.495  14.607  0.00  0.00    +0.000 A 
ATOM     22  C   UNL     1       4.861   5.190  15.647  0.00  0.00    +0.000 A 
ATOM     23  C   UNL     1       5.571   5.789  16.734  0.00  0.00    +0.000 A 
ENDBRANCH   1  23
TORSDOF 1
ENDMDL
MODEL 3
REMARK VINA RESULT:      -7.0      1.026      1.442
REMARK  Name = 
REMARK  1 active torsions:
REMARK  status: ('A' for Active; 'I' for Inactive)
REMARK    1  A    between atoms: C_7  and  C_8
REMARK                            x       y       z     vdW  Elec       q    Type
REMARK                         _______ _______ _______ _____ _____    ______ ____
ROOT
ATOM      1  C   UNL     1       1.983   5.210  19.942  0.00  0.00    +0.000 A 
ATOM      2  C   UNL     1       1.150   4.404  19.165  0.00  0.00    +0.000 A 
ATOM      3  N   UNL     1       1.572   3.268  18.607  0.00  0.00    +0.000 NA
ATOM      4  C   UNL     1       2.880   3.058  18.786  0.00  0.00    +0.000 A 
ATOM      5  C   UNL     1       3.581   3.317  19.926  0.00  0.00    +0.000 A 
ATOM      6  C   UNL     1       3.130   4.544  20.503  0.00  0.00    +0.000 A 
ATOM      7  C   UNL     1       5.019   2.898  19.464  0.00  0.00    +0.000 C 
ATOM      8  C   UNL     1       5.090   3.918  18.323  0.00  0.00    +0.000 C 
ATOM      9  C   UNL     1       5.876   5.068  19.112  0.00  0.00    +0.000 C 
ATOM     10  N   UNL     1       6.272   6.248  18.333  0.00  0.00    +0.000 NA
ATOM     11  C   UNL     1       7.388   5.861  17.453  0.00  0.00    +0.000 C 
ATOM     12  C   UNL     1       7.082   4.552  16.703  0.00  0.00    +0.000 C 
ATOM     13  C   UNL     1       5.605   4.176  16.876  0.00  0.00    +0.000 C 
ATOM     14  C   UNL     1       4.849   5.537  16.455  0.00  0.00    +0.000 C 
ATOM     15  C   UNL     1       5.097   6.610  17.535  0.00  0.00    +0.000 C 
ATOM     16  O   UNL     1       3.676   3.825  17.869  0.00  0.00    +0.000 OA
ENDROOT
BRANCH   1  23
ATOM     17  F   UNL     1       2.166   6.765  17.452  0.00  0.00    +0.000 F 
ATOM     18  C   UNL     1       1.893   7.398  18.599  0.00  0.00    +0.000 A 
ATOM     19  C   UNL     1       1.711   8.800  18.547  0.00  0.00    +0.000 A 
ATOM     20  C   UNL     1       1.412   9.528  19.705  0.00  0.00    +0.000 A 
ATOM     21  C   UNL     1       1.277   8.856  20.910  0.00  0.00    +0.000 A 
ATOM     22  C   UNL     1       1.460   7.466  20.947  0.00  0.00    +0.000 A 
ATOM     23  C   UNL     1       1.805   6.692  19.795  0.00  0.00    +0.000 A 
ENDBRANCH   1  23
TORSDOF 1
ENDMDL
MODEL 4
REMARK VINA RESULT:      -6.8      7.243      9.377
REMARK  Name = 
REMARK  1 active torsions:
REMARK  status: ('A' for Active; 'I' for Inactive)
REMARK    1  A    between atoms: C_7  and  C_8
REMARK                            x       y       z     vdW  Elec       q    Type
REMARK                         _______ _______ _______ _____ _____    ______ ____
ROOT
ATOM      1  C   UNL     1      -4.565  10.631  17.718  0.00  0.00    +0.000 A 
ATOM      2  C   UNL     1      -4.516  11.342  16.518  0.00  0.00    +0.000 A 
ATOM      3  N   UNL     1      -3.392  11.481  15.816  0.00  0.00    +0.000 NA
ATOM      4  C   UNL     1      -2.325  10.967  16.436  0.00  0.00    +0.000 A 
ATOM      5  C   UNL     1      -2.301   9.805  17.148  0.00  0.00    +0.000 A 
ATOM      6  C   UNL     1      -3.503   9.677  17.909  0.00  0.00    +0.000 A 
ATOM      7  C   UNL     1      -0.809   9.811  17.629  0.00  0.00    +0.000 C 
ATOM      8  C   UNL     1      -0.928  11.129  18.400  0.00  0.00    +0.000 C 
ATOM      9  C   UNL     1      -1.202  10.506  19.849  0.00  0.00    +0.000 C 
ATOM     10  N   UNL     1      -1.276  11.453  20.970  0.00  0.00    +0.000 NA
ATOM     11  C   UNL     1       0.088  11.932  21.253  0.00  0.00    +0.000 C 
ATOM     12  C   UNL     1       0.807  12.369  19.965  0.00  0.00    +0.000 C 
ATOM     13  C   UNL     1      -0.189  12.440  18.800  0.00  0.00    +0.000 C 
ATOM     14  C   UNL     1      -1.371  13.354  19.410  0.00  0.00    +0.000 C 
ATOM     15  C   UNL     1      -2.117  12.558  20.501  0.00  0.00    +0.000 C 
ATOM     16  O   UNL     1      -1.821  11.849  17.452  0.00  0.00    +0.000 OA
ENDROOT
BRANCH   1  23
ATOM     17  F   UNL     1      -6.889   9.306  18.941  0.00  0.00    +0.000 F 
ATOM     18  C   UNL     1      -6.546  10.533  19.351  0.00  0.00    +0.000 A 
ATOM     19  C   UNL     1      -7.337  11.133  20.359  0.00  0.00    +0.000 A 
ATOM     20  C   UNL     1      -7.032  12.410  20.845  0.00  0.00    +0.000 A 
ATOM     21  C   UNL     1      -5.929  13.081  20.339  0.00  0.00    +0.000 A 
ATOM     22  C   UNL     1      -5.155  12.475  19.340  0.00  0.00    +0.000 A 
ATOM     23  C   UNL     1      -5.455  11.189  18.789  0.00  0.00    +0.000 A 
ENDBRANCH   1  23
TORSDOF 1
ENDMDL
MODEL 5
REMARK VINA RESULT:      -6.8      9.148     12.085
REMARK  Name = 
REMARK  1 active torsions:
REMARK  status: ('A' for Active; 'I' for Inactive)
REMARK    1  A    between atoms: C_7  and  C_8
REMARK                            x       y       z     vdW  Elec       q    Type
REMARK                         _______ _______ _______ _____ _____    ______ ____
ROOT
ATOM      1  C   UNL     1      -6.478  11.041  18.690  0.00  0.00    +0.000 A 
ATOM      2  C   UNL     1      -6.848   9.953  19.481  0.00  0.00    +0.000 A 
ATOM      3  N   UNL     1      -7.397  10.101  20.688  0.00  0.00    +0.000 NA
ATOM      4  C   UNL     1      -7.447  11.377  21.082  0.00  0.00    +0.000 A 
ATOM      5  C   UNL     1      -7.746  12.445  20.290  0.00  0.00    +0.000 A 
ATOM      6  C   UNL     1      -7.137  12.282  19.007  0.00  0.00    +0.000 A 
ATOM      7  C   UNL     1      -7.591  13.608  21.329  0.00  0.00    +0.000 C 
ATOM      8  C   UNL     1      -6.116  13.318  21.628  0.00  0.00    +0.000 C 
ATOM      9  C   UNL     1      -5.480  14.382  20.615  0.00  0.00    +0.000 C 
ATOM     10  N   UNL     1      -4.018  14.531  20.649  0.00  0.00    +0.000 NA
ATOM     11  C   UNL     1      -3.661  15.247  21.886  0.00  0.00    +0.000 C 
ATOM     12  C   UNL     1      -4.369  14.639  23.110  0.00  0.00    +0.000 C 
ATOM     13  C   UNL     1      -5.021  13.302  22.734  0.00  0.00    +0.000 C 
ATOM     14  C   UNL     1      -3.804  12.507  22.034  0.00  0.00    +0.000 C 
ATOM     15  C   UNL     1      -3.481  13.167  20.677  0.00  0.00    +0.000 C 
ATOM     16  O   UNL     1      -6.180  11.832  21.583  0.00  0.00    +0.000 OA
ENDROOT
BRANCH   1  23
ATOM     17  F   UNL     1      -5.582  12.750  16.470  0.00  0.00    +0.000 F 
ATOM     18  C   UNL     1      -4.818  11.719  16.851  0.00  0.00    +0.000 A 
ATOM     19  C   UNL     1      -3.609  11.504  16.148  0.00  0.00    +0.000 A 
ATOM     20  C   UNL     1      -2.754  10.452  16.496  0.00  0.00    +0.000 A 
ATOM     21  C   UNL     1      -3.096   9.626  17.556  0.00  0.00    +0.000 A 
ATOM     22  C   UNL     1      -4.297   9.850  18.244  0.00  0.00    +0.000 A 
ATOM     23  C   UNL     1      -5.216  10.889  17.894  0.00  0.00    +0.000 A 
ENDBRANCH   1  23
TORSDOF 1
ENDMDL
MODEL 6
REMARK VINA RESULT:      -6.7      8.987     10.684
REMARK  Name = 
REMARK  1 active torsions:
REMARK  status: ('A' for Active; 'I' for Inactive)
REMARK    1  A    between atoms: C_7  and  C_8
REMARK                            x       y       z     vdW  Elec       q    Type
REMARK                         _______ _______ _______ _____ _____    ______ ____
ROOT
ATOM      1  C   UNL     1      10.115  11.732  20.684  0.00  0.00    +0.000 A 
ATOM      2  C   UNL     1       9.433  10.865  19.829  0.00  0.00    +0.000 A 
ATOM      3  N   UNL     1       9.717  10.775  18.529  0.00  0.00    +0.000 NA
ATOM      4  C   UNL     1      10.631  11.667  18.134  0.00  0.00    +0.000 A 
ATOM      5  C   UNL     1      11.737  12.040  18.839  0.00  0.00    +0.000 A 
ATOM      6  C   UNL     1      11.414  12.150  20.226  0.00  0.00    +0.000 A 
ATOM      7  C   UNL     1      12.333  13.112  17.863  0.00  0.00    +0.000 C 
ATOM      8  C   UNL     1      11.103  14.026  17.909  0.00  0.00    +0.000 C 
ATOM      9  C   UNL     1      11.626  15.030  19.041  0.00  0.00    +0.000 C 
ATOM     10  N   UNL     1      10.770  16.186  19.342  0.00  0.00    +0.000 NA
ATOM     11  C   UNL     1      10.872  17.134  18.220  0.00  0.00    +0.000 C 
ATOM     12  C   UNL     1      10.701  16.423  16.867  0.00  0.00    +0.000 C 
ATOM     13  C   UNL     1      10.201  14.988  17.082  0.00  0.00    +0.000 C 
ATOM     14  C   UNL     1       8.923  15.207  18.042  0.00  0.00    +0.000 C 
ATOM     15  C   UNL     1       9.406  15.655  19.437  0.00  0.00    +0.000 C 
ATOM     16  O   UNL     1      10.056  12.969  17.937  0.00  0.00    +0.000 OA
ENDROOT
BRANCH   1  23
ATOM     17  F   UNL     1      10.603  14.375  21.881  0.00  0.00    +0.000 F 
ATOM     18  C   UNL     1       9.551  13.656  22.291  0.00  0.00    +0.000 A 
ATOM     19  C   UNL     1       8.726  14.215  23.295  0.00  0.00    +0.000 A 
ATOM     20  C   UNL     1       7.601  13.527  23.766  0.00  0.00    +0.000 A 
ATOM     21  C   UNL     1       7.290  12.289  23.223  0.00  0.00    +0.000 A 
ATOM     22  C   UNL     1       8.116  11.747  22.228  0.00  0.00    +0.000 A 
ATOM     23  C   UNL     1       9.295  12.400  21.749  0.00  0.00    +0.000 A 
ENDBRANCH   1  23
TORSDOF 1
ENDMDL
MODEL 7
REMARK VINA RESULT:      -6.6      3.241      6.259
REMARK  Name = 
REMARK  1 active torsions:
REMARK  status: ('A' for Active; 'I' for Inactive)
REMARK    1  A    between atoms: C_7  and  C_8
REMARK                            x       y       z     vdW  Elec       q    Type
REMARK                         _______ _______ _______ _____ _____    ______ ____
ROOT
ATOM      1  C   UNL     1       7.407   5.357  16.020  0.00  0.00    +0.000 A 
ATOM      2  C   UNL     1       7.444   6.751  16.065  0.00  0.00    +0.000 A 
ATOM      3  N   UNL     1       7.219   7.436  17.187  0.00  0.00    +0.000 NA
ATOM      4  C   UNL     1       6.855   6.653  18.208  0.00  0.00    +0.000 A 
ATOM      5  C   UNL     1       7.374   5.425  18.496  0.00  0.00    +0.000 A 
ATOM      6  C   UNL     1       7.595   4.697  17.286  0.00  0.00    +0.000 A 
ATOM      7  C   UNL     1       6.508   5.049  19.746  0.00  0.00    +0.000 C 
ATOM      8  C   UNL     1       5.171   5.113  19.000  0.00  0.00    +0.000 C 
ATOM      9  C   UNL     1       5.038   3.554  18.665  0.00  0.00    +0.000 C 
ATOM     10  N   UNL     1       3.791   3.123  18.018  0.00  0.00    +0.000 NA
ATOM     11  C   UNL     1       2.716   3.167  19.025  0.00  0.00    +0.000 C 
ATOM     12  C   UNL     1       2.725   4.499  19.796  0.00  0.00    +0.000 C 
ATOM     13  C   UNL     1       3.667   5.499  19.114  0.00  0.00    +0.000 C 
ATOM     14  C   UNL     1       3.162   5.462  17.583  0.00  0.00    +0.000 C 
ATOM     15  C   UNL     1       3.535   4.102  16.958  0.00  0.00    +0.000 C 
ATOM     16  O   UNL     1       5.469   6.285  18.133  0.00  0.00    +0.000 OA
ENDROOT
BRANCH   1  23
ATOM     17  F   UNL     1       8.488   5.533  13.290  0.00  0.00    +0.000 F 
ATOM     18  C   UNL     1       7.362   4.843  13.503  0.00  0.00    +0.000 A 
ATOM     19  C   UNL     1       6.743   4.234  12.385  0.00  0.00    +0.000 A 
ATOM     20  C   UNL     1       5.569   3.488  12.533  0.00  0.00    +0.000 A 
ATOM     21  C   UNL     1       5.020   3.334  13.798  0.00  0.00    +0.000 A 
ATOM     22  C   UNL     1       5.643   3.942  14.896  0.00  0.00    +0.000 A 
ATOM     23  C   UNL     1       6.822   4.745  14.782  0.00  0.00    +0.000 A 
ENDBRANCH   1  23
TORSDOF 1
ENDMDL
MODEL 8
REMARK VINA RESULT:      -6.6      4.827      8.352
REMARK  Name = 
REMARK  1 active torsions:
REMARK  status: ('A' for Active; 'I' for Inactive)
REMARK    1  A    between atoms: C_7  and  C_8
REMARK                            x       y       z     vdW  Elec       q    Type
REMARK                         _______ _______ _______ _____ _____    ______ ____
ROOT
ATOM      1  C   UNL     1      -0.342  10.200  20.776  0.00  0.00    +0.000 A 
ATOM      2  C   UNL     1      -0.174  10.097  22.157  0.00  0.00    +0.000 A 
ATOM      3  N   UNL     1      -0.402  11.120  22.982  0.00  0.00    +0.000 NA
ATOM      4  C   UNL     1      -0.694  12.253  22.336  0.00  0.00    +0.000 A 
ATOM      5  C   UNL     1      -1.475  12.357  21.223  0.00  0.00    +0.000 A 
ATOM      6  C   UNL     1      -1.209  11.265  20.341  0.00  0.00    +0.000 A 
ATOM      7  C   UNL     1      -1.375  13.899  20.963  0.00  0.00    +0.000 C 
ATOM      8  C   UNL     1       0.147  13.902  20.784  0.00  0.00    +0.000 C 
ATOM      9  C   UNL     1       0.173  13.815  19.185  0.00  0.00    +0.000 C 
ATOM     10  N   UNL     1       1.491  13.904  18.543  0.00  0.00    +0.000 NA
ATOM     11  C   UNL     1       1.953  15.299  18.639  0.00  0.00    +0.000 C 
ATOM     12  C   UNL     1       1.791  15.846  20.069  0.00  0.00    +0.000 C 
ATOM     13  C   UNL     1       1.457  14.704  21.037  0.00  0.00    +0.000 C 
ATOM     14  C   UNL     1       2.613  13.626  20.716  0.00  0.00    +0.000 C 
ATOM     15  C   UNL     1       2.370  13.022  19.317  0.00  0.00    +0.000 C 
ATOM     16  O   UNL     1       0.484  12.899  21.830  0.00  0.00    +0.000 OA
ENDROOT
BRANCH   1  23
ATOM     17  F   UNL     1       1.146   7.770  21.508  0.00  0.00    +0.000 F 
ATOM     18  C   UNL     1       1.338   8.316  20.301  0.00  0.00    +0.000 A 
ATOM     19  C   UNL     1       2.265   7.686  19.437  0.00  0.00    +0.000 A 
ATOM     20  C   UNL     1       2.511   8.193  18.156  0.00  0.00    +0.000 A 
ATOM     21  C   UNL     1       1.819   9.317  17.730  0.00  0.00    +0.000 A 
ATOM     22  C   UNL     1       0.904   9.931  18.596  0.00  0.00    +0.000 A 
ATOM     23  C   UNL     1       0.654   9.468  19.926  0.00  0.00    +0.000 A 
ENDBRANCH   1  23
TORSDOF 1
ENDMDL
MODEL 9
REMARK VINA RESULT:      -6.6      4.964      8.477
REMARK  Name = 
REMARK  1 active torsions:
REMARK  status: ('A' for Active; 'I' for Inactive)
REMARK    1  A    between atoms: C_7  and  C_8
REMARK                            x       y       z     vdW  Elec       q    Type
REMARK                         _______ _______ _______ _____ _____    ______ ____
ROOT
ATOM      1  C   UNL     1      -0.448  10.265  20.825  0.00  0.00    +0.000 A 
ATOM      2  C   UNL     1      -0.257  10.156  22.203  0.00  0.00    +0.000 A 
ATOM      3  N   UNL     1      -0.432  11.186  23.032  0.00  0.00    +0.000 NA
ATOM      4  C   UNL     1      -0.695  12.329  22.390  0.00  0.00    +0.000 A 
ATOM      5  C   UNL     1      -1.492  12.461  21.292  0.00  0.00    +0.000 A 
ATOM      6  C   UNL     1      -1.283  11.360  20.406  0.00  0.00    +0.000 A 
ATOM      7  C   UNL     1      -1.342  13.999  21.029  0.00  0.00    +0.000 C 
ATOM      8  C   UNL     1       0.175  13.946  20.820  0.00  0.00    +0.000 C 
ATOM      9  C   UNL     1       0.168  13.858  19.222  0.00  0.00    +0.000 C 
ATOM     10  N   UNL     1       1.476  13.898  18.553  0.00  0.00    +0.000 NA
ATOM     11  C   UNL     1       1.989  15.276  18.640  0.00  0.00    +0.000 C 
ATOM     12  C   UNL     1       1.876  15.828  20.071  0.00  0.00    +0.000 C 
ATOM     13  C   UNL     1       1.518  14.700  21.047  0.00  0.00    +0.000 C 
ATOM     14  C   UNL     1       2.629  13.581  20.705  0.00  0.00    +0.000 C 
ATOM     15  C   UNL     1       2.336  12.985  19.311  0.00  0.00    +0.000 C 
ATOM     16  O   UNL     1       0.497  12.932  21.860  0.00  0.00    +0.000 OA
ENDROOT
BRANCH   1  23
ATOM     17  F   UNL     1       0.168  10.787  17.997  0.00  0.00    +0.000 F 
ATOM     18  C   UNL     1       0.778   9.773  18.622  0.00  0.00    +0.000 A 
ATOM     19  C   UNL     1       1.692   8.996  17.872  0.00  0.00    +0.000 A 
ATOM     20  C   UNL     1       2.376   7.926  18.461  0.00  0.00    +0.000 A 
ATOM     21  C   UNL     1       2.161   7.642  19.802  0.00  0.00    +0.000 A 
ATOM     22  C   UNL     1       1.252   8.421  20.532  0.00  0.00    +0.000 A 
ATOM     23  C   UNL     1       0.504   9.496  19.957  0.00  0.00    +0.000 A 
ENDBRANCH   1  23
TORSDOF 1
ENDMDL
