MODEL 1
REMARK VINA RESULT:      -5.7      0.000      0.000
REMARK  Name = 
REMARK  3 active torsions:
REMARK  status: ('A' for Active; 'I' for Inactive)
REMARK    1  A    between atoms: S_2  and  N_4
REMARK    2  A    between atoms: S_2  and  C_6
REMARK    3  A    between atoms: N_4  and  O_5
REMARK                            x       y       z     vdW  Elec       q    Type
REMARK                         _______ _______ _______ _____ _____    ______ ____
ROOT
ATOM      1  O   UNL     1       7.536   6.677  16.680  0.00  0.00    +0.000 OA
ATOM      2  S   UNL     1       6.900   5.503  16.115  0.00  0.00    +0.000 S 
ATOM      3  O   UNL     1       6.798   5.299  14.688  0.00  0.00    +0.000 OA
ENDROOT
BRANCH   2   4
ATOM      4  C   UNL     1       5.290   5.300  16.814  0.00  0.00    +0.000 A 
ATOM      5  C   UNL     1       4.647   6.369  17.440  0.00  0.00    +0.000 A 
ATOM      6  C   UNL     1       3.369   6.177  17.970  0.00  0.00    +0.000 A 
ATOM      7  C   UNL     1       2.747   4.931  17.873  0.00  0.00    +0.000 A 
ATOM      8  C   UNL     1       3.391   3.871  17.234  0.00  0.00    +0.000 A 
ATOM      9  C   UNL     1       4.662   4.054  16.694  0.00  0.00    +0.000 A 
ENDBRANCH   2   4
BRANCH   2  10
ATOM     10  N   UNL     1       7.741   4.148  16.767  0.00  0.00    +0.000 NA
ATOM     11  H   UNL     1       8.700   4.145  16.405  0.00  0.00    +0.000 HD
BRANCH  10  12
ATOM     12  O   UNL     1       7.787   4.331  18.209  0.00  0.00    +0.000 OA
ATOM     13  H   UNL     1       7.778   3.428  18.593  0.00  0.00    +0.000 HD
ENDBRANCH  10  12
ENDBRANCH   2  10
TORSDOF 3
ENDMDL
MODEL 2
REMARK VINA RESULT:      -5.5      1.013      1.845
REMARK  Name = 
REMARK  3 active torsions:
REMARK  status: ('A' for Active; 'I' for Inactive)
REMARK    1  A    between atoms: S_2  and  N_4
REMARK    2  A    between atoms: S_2  and  C_6
REMARK    3  A    between atoms: N_4  and  O_5
REMARK                            x       y       z     vdW  Elec       q    Type
REMARK                         _______ _______ _______ _____ _____    ______ ____
ROOT
ATOM      1  O   UNL     1       7.829   4.448  16.789  0.00  0.00    +0.000 OA
ATOM      2  S   UNL     1       6.945   5.510  16.351  0.00  0.00    +0.000 S 
ATOM      3  O   UNL     1       7.254   6.904  16.572  0.00  0.00    +0.000 OA
ENDROOT
BRANCH   2   4
ATOM      4  C   UNL     1       5.309   5.210  16.947  0.00  0.00    +0.000 A 
ATOM      5  C   UNL     1       4.602   6.210  17.618  0.00  0.00    +0.000 A 
ATOM      6  C   UNL     1       3.306   5.945  18.063  0.00  0.00    +0.000 A 
ATOM      7  C   UNL     1       2.728   4.693  17.840  0.00  0.00    +0.000 A 
ATOM      8  C   UNL     1       3.436   3.703  17.157  0.00  0.00    +0.000 A 
ATOM      9  C   UNL     1       4.726   3.962  16.700  0.00  0.00    +0.000 A 
ENDBRANCH   2   4
BRANCH   2  10
ATOM     10  N   UNL     1       6.747   5.293  14.653  0.00  0.00    +0.000 NA
ATOM     11  H   UNL     1       6.072   5.981  14.305  0.00  0.00    +0.000 HD
BRANCH  10  12
ATOM     12  O   UNL     1       8.039   5.555  14.038  0.00  0.00    +0.000 OA
ATOM     13  H   UNL     1       8.435   4.673  13.867  0.00  0.00    +0.000 HD
ENDBRANCH  10  12
ENDBRANCH   2  10
TORSDOF 3
ENDMDL
MODEL 3
REMARK VINA RESULT:      -5.5      1.018      2.348
REMARK  Name = 
REMARK  3 active torsions:
REMARK  status: ('A' for Active; 'I' for Inactive)
REMARK    1  A    between atoms: S_2  and  N_4
REMARK    2  A    between atoms: S_2  and  C_6
REMARK    3  A    between atoms: N_4  and  O_5
REMARK                            x       y       z     vdW  Elec       q    Type
REMARK                         _______ _______ _______ _____ _____    ______ ____
ROOT
ATOM      1  O   UNL     1       7.683   4.522  16.844  0.00  0.00    +0.000 OA
ATOM      2  S   UNL     1       6.814   5.603  16.421  0.00  0.00    +0.000 S 
ATOM      3  O   UNL     1       7.123   6.987  16.697  0.00  0.00    +0.000 OA
ENDROOT
BRANCH   2   4
ATOM      4  C   UNL     1       5.163   5.291  16.966  0.00  0.00    +0.000 A 
ATOM      5  C   UNL     1       4.606   4.015  16.854  0.00  0.00    +0.000 A 
ATOM      6  C   UNL     1       3.304   3.799  17.308  0.00  0.00    +0.000 A 
ATOM      7  C   UNL     1       2.570   4.849  17.865  0.00  0.00    +0.000 A 
ATOM      8  C   UNL     1       3.137   6.118  17.986  0.00  0.00    +0.000 A 
ATOM      9  C   UNL     1       4.439   6.341  17.545  0.00  0.00    +0.000 A 
ENDBRANCH   2   4
BRANCH   2  10
ATOM     10  N   UNL     1       6.656   5.444  14.712  0.00  0.00    +0.000 NA
ATOM     11  H   UNL     1       6.077   6.212  14.358  0.00  0.00    +0.000 HD
BRANCH  10  12
ATOM     12  O   UNL     1       7.992   5.569  14.150  0.00  0.00    +0.000 OA
ATOM     13  H   UNL     1       7.921   5.253  13.223  0.00  0.00    +0.000 HD
ENDBRANCH  10  12
ENDBRANCH   2  10
TORSDOF 3
ENDMDL
MODEL 4
REMARK VINA RESULT:      -5.5      1.573      2.375
REMARK  Name = 
REMARK  3 active torsions:
REMARK  status: ('A' for Active; 'I' for Inactive)
REMARK    1  A    between atoms: S_2  and  N_4
REMARK    2  A    between atoms: S_2  and  C_6
REMARK    3  A    between atoms: N_4  and  O_5
REMARK                            x       y       z     vdW  Elec       q    Type
REMARK                         _______ _______ _______ _____ _____    ______ ____
ROOT
ATOM      1  O   UNL     1       6.576   5.032  19.600  0.00  0.00    +0.000 OA
ATOM      2  S   UNL     1       6.173   5.358  18.245  0.00  0.00    +0.000 S 
ATOM      3  O   UNL     1       6.394   6.667  17.675  0.00  0.00    +0.000 OA
ENDROOT
BRANCH   2   4
ATOM      4  C   UNL     1       4.474   4.937  18.008  0.00  0.00    +0.000 A 
ATOM      5  C   UNL     1       4.114   3.678  17.524  0.00  0.00    +0.000 A 
ATOM      6  C   UNL     1       2.761   3.373  17.362  0.00  0.00    +0.000 A 
ATOM      7  C   UNL     1       1.784   4.318  17.680  0.00  0.00    +0.000 A 
ATOM      8  C   UNL     1       2.151   5.570  18.177  0.00  0.00    +0.000 A 
ATOM      9  C   UNL     1       3.497   5.880  18.351  0.00  0.00    +0.000 A 
ENDBRANCH   2   4
BRANCH   2  10
ATOM     10  N   UNL     1       6.964   4.215  17.227  0.00  0.00    +0.000 NA
ATOM     11  H   UNL     1       7.027   4.600  16.279  0.00  0.00    +0.000 HD
BRANCH  10  12
ATOM     12  O   UNL     1       8.311   4.042  17.750  0.00  0.00    +0.000 OA
ATOM     13  H   UNL     1       8.727   3.352  17.190  0.00  0.00    +0.000 HD
ENDBRANCH  10  12
ENDBRANCH   2  10
TORSDOF 3
ENDMDL
MODEL 5
REMARK VINA RESULT:      -5.4      2.740      3.194
REMARK  Name = 
REMARK  3 active torsions:
REMARK  status: ('A' for Active; 'I' for Inactive)
REMARK    1  A    between atoms: S_2  and  N_4
REMARK    2  A    between atoms: S_2  and  C_6
REMARK    3  A    between atoms: N_4  and  O_5
REMARK                            x       y       z     vdW  Elec       q    Type
REMARK                         _______ _______ _______ _____ _____    ______ ____
ROOT
ATOM      1  O   UNL     1       4.677   5.867  17.925  0.00  0.00    +0.000 OA
ATOM      2  S   UNL     1       4.496   4.429  17.882  0.00  0.00    +0.000 S 
ATOM      3  O   UNL     1       4.479   3.695  16.638  0.00  0.00    +0.000 OA
ENDROOT
BRANCH   2   4
ATOM      4  C   UNL     1       3.058   3.979  18.804  0.00  0.00    +0.000 A 
ATOM      5  C   UNL     1       2.845   4.494  20.084  0.00  0.00    +0.000 A 
ATOM      6  C   UNL     1       1.690   4.130  20.780  0.00  0.00    +0.000 A 
ATOM      7  C   UNL     1       0.764   3.260  20.200  0.00  0.00    +0.000 A 
ATOM      8  C   UNL     1       0.979   2.759  18.915  0.00  0.00    +0.000 A 
ATOM      9  C   UNL     1       2.122   3.125  18.209  0.00  0.00    +0.000 A 
ENDBRANCH   2   4
BRANCH   2  10
ATOM     10  N   UNL     1       5.758   3.764  18.850  0.00  0.00    +0.000 NA
ATOM     11  H   UNL     1       5.683   2.742  18.840  0.00  0.00    +0.000 HD
BRANCH  10  12
ATOM     12  O   UNL     1       7.016   4.147  18.229  0.00  0.00    +0.000 OA
ATOM     13  H   UNL     1       6.788   4.422  17.315  0.00  0.00    +0.000 HD
ENDBRANCH  10  12
ENDBRANCH   2  10
TORSDOF 3
ENDMDL
MODEL 6
REMARK VINA RESULT:      -5.4      3.527      4.116
REMARK  Name = 
REMARK  3 active torsions:
REMARK  status: ('A' for Active; 'I' for Inactive)
REMARK    1  A    between atoms: S_2  and  N_4
REMARK    2  A    between atoms: S_2  and  C_6
REMARK    3  A    between atoms: N_4  and  O_5
REMARK                            x       y       z     vdW  Elec       q    Type
REMARK                         _______ _______ _______ _____ _____    ______ ____
ROOT
ATOM      1  O   UNL     1       3.588   1.834  17.879  0.00  0.00    +0.000 OA
ATOM      2  S   UNL     1       3.757   3.060  18.635  0.00  0.00    +0.000 S 
ATOM      3  O   UNL     1       2.707   3.594  19.471  0.00  0.00    +0.000 OA
ENDROOT
BRANCH   2   4
ATOM      4  C   UNL     1       4.318   4.350  17.566  0.00  0.00    +0.000 A 
ATOM      5  C   UNL     1       4.968   4.048  16.368  0.00  0.00    +0.000 A 
ATOM      6  C   UNL     1       5.386   5.091  15.540  0.00  0.00    +0.000 A 
ATOM      7  C   UNL     1       5.156   6.418  15.910  0.00  0.00    +0.000 A 
ATOM      8  C   UNL     1       4.494   6.712  17.103  0.00  0.00    +0.000 A 
ATOM      9  C   UNL     1       4.065   5.677  17.931  0.00  0.00    +0.000 A 
ENDBRANCH   2   4
BRANCH   2  10
ATOM     10  N   UNL     1       5.134   2.810  19.640  0.00  0.00    +0.000 NA
ATOM     11  H   UNL     1       5.009   3.331  20.514  0.00  0.00    +0.000 HD
BRANCH  10  12
ATOM     12  O   UNL     1       5.185   1.389  19.946  0.00  0.00    +0.000 OA
ATOM     13  H   UNL     1       5.595   0.962  19.163  0.00  0.00    +0.000 HD
ENDBRANCH  10  12
ENDBRANCH   2  10
TORSDOF 3
ENDMDL
MODEL 7
REMARK VINA RESULT:      -5.4      1.959      2.583
REMARK  Name = 
REMARK  3 active torsions:
REMARK  status: ('A' for Active; 'I' for Inactive)
REMARK    1  A    between atoms: S_2  and  N_4
REMARK    2  A    between atoms: S_2  and  C_6
REMARK    3  A    between atoms: N_4  and  O_5
REMARK                            x       y       z     vdW  Elec       q    Type
REMARK                         _______ _______ _______ _____ _____    ______ ____
ROOT
ATOM      1  O   UNL     1       6.723   4.971  19.497  0.00  0.00    +0.000 OA
ATOM      2  S   UNL     1       6.009   5.047  18.237  0.00  0.00    +0.000 S 
ATOM      3  O   UNL     1       5.612   6.309  17.657  0.00  0.00    +0.000 OA
ENDROOT
BRANCH   2   4
ATOM      4  C   UNL     1       4.590   3.997  18.289  0.00  0.00    +0.000 A 
ATOM      5  C   UNL     1       3.653   4.016  17.254  0.00  0.00    +0.000 A 
ATOM      6  C   UNL     1       2.549   3.163  17.320  0.00  0.00    +0.000 A 
ATOM      7  C   UNL     1       2.388   2.304  18.409  0.00  0.00    +0.000 A 
ATOM      8  C   UNL     1       3.335   2.281  19.433  0.00  0.00    +0.000 A 
ATOM      9  C   UNL     1       4.445   3.122  19.372  0.00  0.00    +0.000 A 
ENDBRANCH   2   4
BRANCH   2  10
ATOM     10  N   UNL     1       7.001   4.242  17.081  0.00  0.00    +0.000 NA
ATOM     11  H   UNL     1       7.118   4.847  16.262  0.00  0.00    +0.000 HD
BRANCH  10  12
ATOM     12  O   UNL     1       8.301   4.043  17.703  0.00  0.00    +0.000 OA
ATOM     13  H   UNL     1       8.120   3.886  18.655  0.00  0.00    +0.000 HD
ENDBRANCH  10  12
ENDBRANCH   2  10
TORSDOF 3
ENDMDL
MODEL 8
REMARK VINA RESULT:      -5.4      1.822      2.242
REMARK  Name = 
REMARK  3 active torsions:
REMARK  status: ('A' for Active; 'I' for Inactive)
REMARK    1  A    between atoms: S_2  and  N_4
REMARK    2  A    between atoms: S_2  and  C_6
REMARK    3  A    between atoms: N_4  and  O_5
REMARK                            x       y       z     vdW  Elec       q    Type
REMARK                         _______ _______ _______ _____ _____    ______ ____
ROOT
ATOM      1  O   UNL     1       5.350   5.970  17.122  0.00  0.00    +0.000 OA
ATOM      2  S   UNL     1       5.390   4.520  17.124  0.00  0.00    +0.000 S 
ATOM      3  O   UNL     1       5.831   3.765  15.974  0.00  0.00    +0.000 OA
ENDROOT
BRANCH   2   4
ATOM      4  C   UNL     1       3.824   3.880  17.633  0.00  0.00    +0.000 A 
ATOM      5  C   UNL     1       2.709   4.716  17.723  0.00  0.00    +0.000 A 
ATOM      6  C   UNL     1       1.484   4.174  18.115  0.00  0.00    +0.000 A 
ATOM      7  C   UNL     1       1.378   2.814  18.414  0.00  0.00    +0.000 A 
ATOM      8  C   UNL     1       2.494   1.983  18.309  0.00  0.00    +0.000 A 
ATOM      9  C   UNL     1       3.719   2.511  17.909  0.00  0.00    +0.000 A 
ENDBRANCH   2   4
BRANCH   2  10
ATOM     10  N   UNL     1       6.400   4.075  18.447  0.00  0.00    +0.000 NA
ATOM     11  H   UNL     1       6.234   3.090  18.677  0.00  0.00    +0.000 HD
BRANCH  10  12
ATOM     12  O   UNL     1       7.776   4.225  17.999  0.00  0.00    +0.000 OA
ATOM     13  H   UNL     1       8.198   4.839  18.638  0.00  0.00    +0.000 HD
ENDBRANCH  10  12
ENDBRANCH   2  10
TORSDOF 3
ENDMDL
MODEL 9
REMARK VINA RESULT:      -5.4      0.974      1.075
REMARK  Name = 
REMARK  3 active torsions:
REMARK  status: ('A' for Active; 'I' for Inactive)
REMARK    1  A    between atoms: S_2  and  N_4
REMARK    2  A    between atoms: S_2  and  C_6
REMARK    3  A    between atoms: N_4  and  O_5
REMARK                            x       y       z     vdW  Elec       q    Type
REMARK                         _______ _______ _______ _____ _____    ______ ____
ROOT
ATOM      1  O   UNL     1       6.581   6.498  17.880  0.00  0.00    +0.000 OA
ATOM      2  S   UNL     1       6.050   5.665  16.818  0.00  0.00    +0.000 S 
ATOM      3  O   UNL     1       6.043   6.094  15.439  0.00  0.00    +0.000 OA
ENDROOT
BRANCH   2   4
ATOM      4  C   UNL     1       4.417   5.134  17.235  0.00  0.00    +0.000 A 
ATOM      5  C   UNL     1       3.513   6.014  17.832  0.00  0.00    +0.000 A 
ATOM      6  C   UNL     1       2.226   5.566  18.135  0.00  0.00    +0.000 A 
ATOM      7  C   UNL     1       1.853   4.252  17.845  0.00  0.00    +0.000 A 
ATOM      8  C   UNL     1       2.758   3.381  17.236  0.00  0.00    +0.000 A 
ATOM      9  C   UNL     1       4.041   3.822  16.921  0.00  0.00    +0.000 A 
ENDBRANCH   2   4
BRANCH   2  10
ATOM     10  N   UNL     1       6.931   4.187  16.890  0.00  0.00    +0.000 NA
ATOM     11  H   UNL     1       7.543   4.122  16.070  0.00  0.00    +0.000 HD
BRANCH  10  12
ATOM     12  O   UNL     1       7.759   4.244  18.085  0.00  0.00    +0.000 OA
ATOM     13  H   UNL     1       8.118   3.338  18.204  0.00  0.00    +0.000 HD
ENDBRANCH  10  12
ENDBRANCH   2  10
TORSDOF 3
ENDMDL
