MODEL 1
REMARK VINA RESULT:      -7.5      0.000      0.000
REMARK  Name = 
REMARK  9 active torsions:
REMARK  status: ('A' for Active; 'I' for Inactive)
REMARK    1  A    between atoms: C_1  and  C_2
REMARK    2  A    between atoms: C_4  and  O_5
REMARK    3  A    between atoms: O_5  and  C_6
REMARK    4  A    between atoms: C_6  and  C_7
REMARK    5  A    between atoms: C_7  and  C_8
REMARK    6  A    between atoms: N_9  and  N_10
REMARK    7  A    between atoms: C_15  and  O_16
REMARK    8  A    between atoms: O_16  and  S_17
REMARK    9  A    between atoms: S_17  and  C_20
REMARK                            x       y       z     vdW  Elec       q    Type
REMARK                         _______ _______ _______ _____ _____    ______ ____
ROOT
ATOM      1  C   UNL     1       1.383   3.587  21.083  0.00  0.00    +0.000 C 
ATOM      2  C   UNL     1       1.869   4.721  20.228  0.00  0.00    +0.000 A 
ATOM      3  C   UNL     1       2.585   4.494  19.048  0.00  0.00    +0.000 A 
ATOM      4  C   UNL     1       3.054   5.562  18.272  0.00  0.00    +0.000 A 
ATOM      5  C   UNL     1       2.759   6.869  18.659  0.00  0.00    +0.000 A 
ATOM      6  C   UNL     1       2.024   7.108  19.832  0.00  0.00    +0.000 A 
ATOM      7  C   UNL     1       1.607   6.038  20.622  0.00  0.00    +0.000 A 
ENDROOT
BRANCH   4   8
ATOM      8  O   UNL     1       3.726   5.195  17.139  0.00  0.00    +0.000 OA
BRANCH   8   9
ATOM      9  C   UNL     1       4.313   3.892  17.089  0.00  0.00    +0.000 C 
BRANCH   9  10
ATOM     10  C   UNL     1       5.633   3.972  16.342  0.00  0.00    +0.000 C 
BRANCH  10  11
ATOM     11  C   UNL     1       6.157   5.379  16.334  0.00  0.00    +0.000 C 
ATOM     12  N   UNL     1       7.366   5.637  16.721  0.00  0.00    +0.000 NA
BRANCH  12  13
ATOM     13  N   UNL     1       7.600   7.021  16.684  0.00  0.00    +0.000 NA
ATOM     14  C   UNL     1       7.960   7.500  17.835  0.00  0.00    +0.000 C 
ATOM     15  N   UNL     1       8.191   6.776  18.958  0.00  0.00    +0.000 N 
ATOM     16  N   UNL     1       8.125   8.823  18.062  0.00  0.00    +0.000 N 
ATOM     17  H   UNL     1       7.806   5.846  18.815  0.00  0.00    +0.000 HD
ATOM     18  H   UNL     1       7.843   7.207  19.801  0.00  0.00    +0.000 HD
ATOM     19  H   UNL     1       8.245   9.356  17.207  0.00  0.00    +0.000 HD
ATOM     20  H   UNL     1       8.786   9.067  18.785  0.00  0.00    +0.000 HD
ENDBRANCH  12  13
ENDBRANCH  10  11
ENDBRANCH   9  10
ENDBRANCH   8   9
ENDBRANCH   4   8
BRANCH   6  21
ATOM     21  O   UNL     1       1.788   8.426  20.143  0.00  0.00    +0.000 OA
BRANCH  21  22
ATOM     22  S   UNL     1       0.904   8.823  21.453  0.00  0.00    +0.000 S 
ATOM     23  O   UNL     1      -0.293   8.005  21.516  0.00  0.00    +0.000 OA
ATOM     24  O   UNL     1       1.747   9.054  22.603  0.00  0.00    +0.000 OA
BRANCH  22  25
ATOM     25  C   UNL     1       0.303  10.437  20.987  0.00  0.00    +0.000 A 
ATOM     26  C   UNL     1      -0.250  11.466  21.726  0.00  0.00    +0.000 A 
ATOM     27  C   UNL     1      -0.550  12.604  20.923  0.00  0.00    +0.000 A 
ATOM     28  C   UNL     1      -0.211  12.382  19.613  0.00  0.00    +0.000 A 
ATOM     29 CL   UNL     1      -0.387  13.484  18.309  0.00  0.00    +0.000 Cl
ATOM     30  S   UNL     1       0.443  10.849  19.332  0.00  0.00    +0.000 S 
ENDBRANCH  22  25
ENDBRANCH  21  22
ENDBRANCH   6  21
TORSDOF 8
ENDMDL
MODEL 2
REMARK VINA RESULT:      -7.3      5.249      7.895
REMARK  Name = 
REMARK  9 active torsions:
REMARK  status: ('A' for Active; 'I' for Inactive)
REMARK    1  A    between atoms: C_1  and  C_2
REMARK    2  A    between atoms: C_4  and  O_5
REMARK    3  A    between atoms: O_5  and  C_6
REMARK    4  A    between atoms: C_6  and  C_7
REMARK    5  A    between atoms: C_7  and  C_8
REMARK    6  A    between atoms: N_9  and  N_10
REMARK    7  A    between atoms: C_15  and  O_16
REMARK    8  A    between atoms: O_16  and  S_17
REMARK    9  A    between atoms: S_17  and  C_20
REMARK                            x       y       z     vdW  Elec       q    Type
REMARK                         _______ _______ _______ _____ _____    ______ ____
ROOT
ATOM      1  C   UNL     1       1.853   3.240  21.556  0.00  0.00    +0.000 C 
ATOM      2  C   UNL     1       2.112   4.320  20.546  0.00  0.00    +0.000 A 
ATOM      3  C   UNL     1       1.977   5.674  20.871  0.00  0.00    +0.000 A 
ATOM      4  C   UNL     1       2.198   6.671  19.912  0.00  0.00    +0.000 A 
ATOM      5  C   UNL     1       2.606   6.306  18.628  0.00  0.00    +0.000 A 
ATOM      6  C   UNL     1       2.764   4.950  18.298  0.00  0.00    +0.000 A 
ATOM      7  C   UNL     1       2.491   3.966  19.246  0.00  0.00    +0.000 A 
ENDROOT
BRANCH   4   8
ATOM      8  O   UNL     1       2.043   7.949  20.370  0.00  0.00    +0.000 OA
BRANCH   8   9
ATOM      9  C   UNL     1       0.898   8.251  21.171  0.00  0.00    +0.000 C 
BRANCH   9  10
ATOM     10  C   UNL     1       0.553   9.721  21.008  0.00  0.00    +0.000 C 
BRANCH  10  11
ATOM     11  C   UNL     1       0.080  10.006  19.612  0.00  0.00    +0.000 C 
ATOM     12  N   UNL     1      -1.057  10.591  19.405  0.00  0.00    +0.000 NA
BRANCH  12  13
ATOM     13  N   UNL     1      -1.307  10.689  18.027  0.00  0.00    +0.000 NA
ATOM     14  C   UNL     1      -2.245  11.540  17.746  0.00  0.00    +0.000 C 
ATOM     15  N   UNL     1      -2.881  12.341  18.635  0.00  0.00    +0.000 N 
ATOM     16  N   UNL     1      -2.730  11.712  16.495  0.00  0.00    +0.000 N 
ATOM     17  H   UNL     1      -2.678  11.994  19.569  0.00  0.00    +0.000 HD
ATOM     18  H   UNL     1      -3.873  12.429  18.469  0.00  0.00    +0.000 HD
ATOM     19  H   UNL     1      -2.104  11.361  15.779  0.00  0.00    +0.000 HD
ATOM     20  H   UNL     1      -3.103  12.628  16.289  0.00  0.00    +0.000 HD
ENDBRANCH  12  13
ENDBRANCH  10  11
ENDBRANCH   9  10
ENDBRANCH   8   9
ENDBRANCH   4   8
BRANCH   6  21
ATOM     21  O   UNL     1       3.160   4.682  17.008  0.00  0.00    +0.000 OA
BRANCH  21  22
ATOM     22  S   UNL     1       4.562   3.905  16.717  0.00  0.00    +0.000 S 
ATOM     23  O   UNL     1       4.565   2.614  17.379  0.00  0.00    +0.000 OA
ATOM     24  O   UNL     1       4.978   4.073  15.344  0.00  0.00    +0.000 OA
BRANCH  22  25
ATOM     25  C   UNL     1       5.705   4.886  17.673  0.00  0.00    +0.000 A 
ATOM     26  C   UNL     1       6.207   4.736  18.952  0.00  0.00    +0.000 A 
ATOM     27  C   UNL     1       7.141   5.759  19.287  0.00  0.00    +0.000 A 
ATOM     28  C   UNL     1       7.301   6.636  18.245  0.00  0.00    +0.000 A 
ATOM     29 CL   UNL     1       8.335   8.006  18.210  0.00  0.00    +0.000 Cl
ATOM     30  S   UNL     1       6.355   6.265  16.894  0.00  0.00    +0.000 S 
ENDBRANCH  22  25
ENDBRANCH  21  22
ENDBRANCH   6  21
TORSDOF 8
ENDMDL
MODEL 3
REMARK VINA RESULT:      -7.3      5.409      7.899
REMARK  Name = 
REMARK  9 active torsions:
REMARK  status: ('A' for Active; 'I' for Inactive)
REMARK    1  A    between atoms: C_1  and  C_2
REMARK    2  A    between atoms: C_4  and  O_5
REMARK    3  A    between atoms: O_5  and  C_6
REMARK    4  A    between atoms: C_6  and  C_7
REMARK    5  A    between atoms: C_7  and  C_8
REMARK    6  A    between atoms: N_9  and  N_10
REMARK    7  A    between atoms: C_15  and  O_16
REMARK    8  A    between atoms: O_16  and  S_17
REMARK    9  A    between atoms: S_17  and  C_20
REMARK                            x       y       z     vdW  Elec       q    Type
REMARK                         _______ _______ _______ _____ _____    ______ ____
ROOT
ATOM      1  C   UNL     1       2.253   2.521  17.513  0.00  0.00    +0.000 C 
ATOM      2  C   UNL     1       2.992   3.704  18.068  0.00  0.00    +0.000 A 
ATOM      3  C   UNL     1       2.354   4.931  18.281  0.00  0.00    +0.000 A 
ATOM      4  C   UNL     1       3.061   6.034  18.776  0.00  0.00    +0.000 A 
ATOM      5  C   UNL     1       4.409   5.891  19.106  0.00  0.00    +0.000 A 
ATOM      6  C   UNL     1       5.054   4.658  18.913  0.00  0.00    +0.000 A 
ATOM      7  C   UNL     1       4.352   3.582  18.372  0.00  0.00    +0.000 A 
ENDROOT
BRANCH   4   8
ATOM      8  O   UNL     1       2.311   7.164  18.948  0.00  0.00    +0.000 OA
BRANCH   8   9
ATOM      9  C   UNL     1       2.496   8.249  18.035  0.00  0.00    +0.000 C 
BRANCH   9  10
ATOM     10  C   UNL     1       1.460   9.322  18.324  0.00  0.00    +0.000 C 
BRANCH  10  11
ATOM     11  C   UNL     1       0.873   9.141  19.694  0.00  0.00    +0.000 C 
ATOM     12  N   UNL     1       1.146   9.976  20.646  0.00  0.00    +0.000 NA
BRANCH  12  13
ATOM     13  N   UNL     1       0.535   9.562  21.841  0.00  0.00    +0.000 NA
ATOM     14  C   UNL     1      -0.428  10.348  22.211  0.00  0.00    +0.000 C 
ATOM     15  N   UNL     1      -0.898  11.410  21.511  0.00  0.00    +0.000 N 
ATOM     16  N   UNL     1      -1.079  10.210  23.388  0.00  0.00    +0.000 N 
ATOM     17  H   UNL     1      -0.221  11.629  20.784  0.00  0.00    +0.000 HD
ATOM     18  H   UNL     1      -1.115  12.213  22.083  0.00  0.00    +0.000 HD
ATOM     19  H   UNL     1      -0.965   9.288  23.794  0.00  0.00    +0.000 HD
ATOM     20  H   UNL     1      -2.032  10.543  23.407  0.00  0.00    +0.000 HD
ENDBRANCH  12  13
ENDBRANCH  10  11
ENDBRANCH   9  10
ENDBRANCH   8   9
ENDBRANCH   4   8
BRANCH   6  21
ATOM     21  O   UNL     1       6.385   4.609  19.256  0.00  0.00    +0.000 OA
BRANCH  21  22
ATOM     22  S   UNL     1       7.527   5.135  18.220  0.00  0.00    +0.000 S 
ATOM     23  O   UNL     1       7.871   6.514  18.513  0.00  0.00    +0.000 OA
ATOM     24  O   UNL     1       8.527   4.120  17.983  0.00  0.00    +0.000 OA
BRANCH  22  25
ATOM     25  C   UNL     1       6.596   5.233  16.701  0.00  0.00    +0.000 A 
ATOM     26  C   UNL     1       5.777   6.217  16.181  0.00  0.00    +0.000 A 
ATOM     27  C   UNL     1       5.269   5.872  14.895  0.00  0.00    +0.000 A 
ATOM     28  C   UNL     1       5.727   4.640  14.504  0.00  0.00    +0.000 A 
ATOM     29 CL   UNL     1       5.377   3.841  13.025  0.00  0.00    +0.000 Cl
ATOM     30  S   UNL     1       6.734   3.897  15.640  0.00  0.00    +0.000 S 
ENDBRANCH  22  25
ENDBRANCH  21  22
ENDBRANCH   6  21
TORSDOF 8
ENDMDL
MODEL 4
REMARK VINA RESULT:      -7.3      1.107      1.194
REMARK  Name = 
REMARK  9 active torsions:
REMARK  status: ('A' for Active; 'I' for Inactive)
REMARK    1  A    between atoms: C_1  and  C_2
REMARK    2  A    between atoms: C_4  and  O_5
REMARK    3  A    between atoms: O_5  and  C_6
REMARK    4  A    between atoms: C_6  and  C_7
REMARK    5  A    between atoms: C_7  and  C_8
REMARK    6  A    between atoms: N_9  and  N_10
REMARK    7  A    between atoms: C_15  and  O_16
REMARK    8  A    between atoms: O_16  and  S_17
REMARK    9  A    between atoms: S_17  and  C_20
REMARK                            x       y       z     vdW  Elec       q    Type
REMARK                         _______ _______ _______ _____ _____    ______ ____
ROOT
ATOM      1  C   UNL     1       2.007   3.928  21.427  0.00  0.00    +0.000 C 
ATOM      2  C   UNL     1       2.221   5.047  20.450  0.00  0.00    +0.000 A 
ATOM      3  C   UNL     1       2.870   4.838  19.229  0.00  0.00    +0.000 A 
ATOM      4  C   UNL     1       3.086   5.896  18.337  0.00  0.00    +0.000 A 
ATOM      5  C   UNL     1       2.602   7.166  18.653  0.00  0.00    +0.000 A 
ATOM      6  C   UNL     1       1.931   7.383  19.868  0.00  0.00    +0.000 A 
ATOM      7  C   UNL     1       1.769   6.332  20.769  0.00  0.00    +0.000 A 
ENDROOT
BRANCH   4   8
ATOM      8  O   UNL     1       3.719   5.547  17.177  0.00  0.00    +0.000 OA
BRANCH   8   9
ATOM      9  C   UNL     1       4.153   4.193  17.019  0.00  0.00    +0.000 C 
BRANCH   9  10
ATOM     10  C   UNL     1       5.600   4.188  16.557  0.00  0.00    +0.000 C 
BRANCH  10  11
ATOM     11  C   UNL     1       6.147   5.585  16.500  0.00  0.00    +0.000 C 
ATOM     12  N   UNL     1       7.389   5.821  16.780  0.00  0.00    +0.000 NA
BRANCH  12  13
ATOM     13  N   UNL     1       7.645   7.201  16.718  0.00  0.00    +0.000 NA
ATOM     14  C   UNL     1       8.036   7.690  17.855  0.00  0.00    +0.000 C 
ATOM     15  N   UNL     1       8.278   6.979  18.983  0.00  0.00    +0.000 N 
ATOM     16  N   UNL     1       8.226   9.013  18.058  0.00  0.00    +0.000 N 
ATOM     17  H   UNL     1       7.875   6.053  18.861  0.00  0.00    +0.000 HD
ATOM     18  H   UNL     1       7.954   7.428  19.827  0.00  0.00    +0.000 HD
ATOM     19  H   UNL     1       8.338   9.532  17.194  0.00  0.00    +0.000 HD
ATOM     20  H   UNL     1       8.906   9.257  18.764  0.00  0.00    +0.000 HD
ENDBRANCH  12  13
ENDBRANCH  10  11
ENDBRANCH   9  10
ENDBRANCH   8   9
ENDBRANCH   4   8
BRANCH   6  21
ATOM     21  O   UNL     1       1.497   8.666  20.102  0.00  0.00    +0.000 OA
BRANCH  21  22
ATOM     22  S   UNL     1       0.809   9.062  21.525  0.00  0.00    +0.000 S 
ATOM     23  O   UNL     1      -0.444   8.348  21.690  0.00  0.00    +0.000 OA
ATOM     24  O   UNL     1       1.795   9.151  22.576  0.00  0.00    +0.000 OA
BRANCH  22  25
ATOM     25  C   UNL     1       0.311  10.746  21.210  0.00  0.00    +0.000 A 
ATOM     26  C   UNL     1       0.672  11.648  20.228  0.00  0.00    +0.000 A 
ATOM     27  C   UNL     1      -0.025  12.885  20.351  0.00  0.00    +0.000 A 
ATOM     28  C   UNL     1      -0.879  12.861  21.423  0.00  0.00    +0.000 A 
ATOM     29 CL   UNL     1      -1.919  14.129  21.932  0.00  0.00    +0.000 Cl
ATOM     30  S   UNL     1      -0.854  11.403  22.278  0.00  0.00    +0.000 S 
ENDBRANCH  22  25
ENDBRANCH  21  22
ENDBRANCH   6  21
TORSDOF 8
ENDMDL
MODEL 5
REMARK VINA RESULT:      -7.1      3.345      4.611
REMARK  Name = 
REMARK  9 active torsions:
REMARK  status: ('A' for Active; 'I' for Inactive)
REMARK    1  A    between atoms: C_1  and  C_2
REMARK    2  A    between atoms: C_4  and  O_5
REMARK    3  A    between atoms: O_5  and  C_6
REMARK    4  A    between atoms: C_6  and  C_7
REMARK    5  A    between atoms: C_7  and  C_8
REMARK    6  A    between atoms: N_9  and  N_10
REMARK    7  A    between atoms: C_15  and  O_16
REMARK    8  A    between atoms: O_16  and  S_17
REMARK    9  A    between atoms: S_17  and  C_20
REMARK                            x       y       z     vdW  Elec       q    Type
REMARK                         _______ _______ _______ _____ _____    ______ ____
ROOT
ATOM      1  C   UNL     1      -0.088   9.162  22.683  0.00  0.00    +0.000 C 
ATOM      2  C   UNL     1       0.234   9.305  21.224  0.00  0.00    +0.000 A 
ATOM      3  C   UNL     1       1.217   8.521  20.611  0.00  0.00    +0.000 A 
ATOM      4  C   UNL     1       1.524   8.681  19.254  0.00  0.00    +0.000 A 
ATOM      5  C   UNL     1       0.804   9.604  18.494  0.00  0.00    +0.000 A 
ATOM      6  C   UNL     1      -0.199  10.382  19.096  0.00  0.00    +0.000 A 
ATOM      7  C   UNL     1      -0.459  10.249  20.458  0.00  0.00    +0.000 A 
ENDROOT
BRANCH   4   8
ATOM      8  O   UNL     1       2.494   7.841  18.784  0.00  0.00    +0.000 OA
BRANCH   8   9
ATOM      9  C   UNL     1       2.691   6.590  19.448  0.00  0.00    +0.000 C 
BRANCH   9  10
ATOM     10  C   UNL     1       2.363   5.461  18.486  0.00  0.00    +0.000 C 
BRANCH  10  11
ATOM     11  C   UNL     1       3.489   5.240  17.519  0.00  0.00    +0.000 C 
ATOM     12  N   UNL     1       4.533   4.555  17.864  0.00  0.00    +0.000 NA
BRANCH  12  13
ATOM     13  N   UNL     1       5.470   4.542  16.818  0.00  0.00    +0.000 NA
ATOM     14  C   UNL     1       6.695   4.493  17.241  0.00  0.00    +0.000 C 
ATOM     15  N   UNL     1       7.082   4.371  18.535  0.00  0.00    +0.000 N 
ATOM     16  N   UNL     1       7.762   4.588  16.416  0.00  0.00    +0.000 N 
ATOM     17  H   UNL     1       6.276   4.568  19.122  0.00  0.00    +0.000 HD
ATOM     18  H   UNL     1       7.879   4.940  18.778  0.00  0.00    +0.000 HD
ATOM     19  H   UNL     1       7.530   4.390  15.449  0.00  0.00    +0.000 HD
ATOM     20  H   UNL     1       8.604   4.126  16.730  0.00  0.00    +0.000 HD
ENDBRANCH  12  13
ENDBRANCH  10  11
ENDBRANCH   9  10
ENDBRANCH   8   9
ENDBRANCH   4   8
BRANCH   6  21
ATOM     21  O   UNL     1      -0.851  11.272  18.275  0.00  0.00    +0.000 OA
BRANCH  21  22
ATOM     22  S   UNL     1      -2.254  10.861  17.556  0.00  0.00    +0.000 S 
ATOM     23  O   UNL     1      -2.381  11.541  16.280  0.00  0.00    +0.000 OA
ATOM     24  O   UNL     1      -2.531   9.452  17.715  0.00  0.00    +0.000 OA
BRANCH  22  25
ATOM     25  C   UNL     1      -3.435  11.687  18.608  0.00  0.00    +0.000 A 
ATOM     26  C   UNL     1      -3.279  12.474  19.733  0.00  0.00    +0.000 A 
ATOM     27  C   UNL     1      -4.524  12.962  20.226  0.00  0.00    +0.000 A 
ATOM     28  C   UNL     1      -5.564  12.520  19.450  0.00  0.00    +0.000 A 
ATOM     29 CL   UNL     1      -7.229  12.875  19.672  0.00  0.00    +0.000 Cl
ATOM     30  S   UNL     1      -5.081  11.535  18.164  0.00  0.00    +0.000 S 
ENDBRANCH  22  25
ENDBRANCH  21  22
ENDBRANCH   6  21
TORSDOF 8
ENDMDL
MODEL 6
REMARK VINA RESULT:      -7.1      5.664      8.602
REMARK  Name = 
REMARK  9 active torsions:
REMARK  status: ('A' for Active; 'I' for Inactive)
REMARK    1  A    between atoms: C_1  and  C_2
REMARK    2  A    between atoms: C_4  and  O_5
REMARK    3  A    between atoms: O_5  and  C_6
REMARK    4  A    between atoms: C_6  and  C_7
REMARK    5  A    between atoms: C_7  and  C_8
REMARK    6  A    between atoms: N_9  and  N_10
REMARK    7  A    between atoms: C_15  and  O_16
REMARK    8  A    between atoms: O_16  and  S_17
REMARK    9  A    between atoms: S_17  and  C_20
REMARK                            x       y       z     vdW  Elec       q    Type
REMARK                         _______ _______ _______ _____ _____    ______ ____
ROOT
ATOM      1  C   UNL     1       1.405   2.517  18.289  0.00  0.00    +0.000 C 
ATOM      2  C   UNL     1       2.306   3.711  18.167  0.00  0.00    +0.000 A 
ATOM      3  C   UNL     1       1.942   4.960  18.682  0.00  0.00    +0.000 A 
ATOM      4  C   UNL     1       2.782   6.072  18.540  0.00  0.00    +0.000 A 
ATOM      5  C   UNL     1       4.021   5.917  17.918  0.00  0.00    +0.000 A 
ATOM      6  C   UNL     1       4.406   4.663  17.415  0.00  0.00    +0.000 A 
ATOM      7  C   UNL     1       3.539   3.577  17.518  0.00  0.00    +0.000 A 
ENDROOT
BRANCH   4   8
ATOM      8  O   UNL     1       2.306   7.224  19.101  0.00  0.00    +0.000 OA
BRANCH   8   9
ATOM      9  C   UNL     1       2.164   7.279  20.524  0.00  0.00    +0.000 C 
BRANCH   9  10
ATOM     10  C   UNL     1       1.183   8.383  20.880  0.00  0.00    +0.000 C 
BRANCH  10  11
ATOM     11  C   UNL     1       0.961   9.298  19.711  0.00  0.00    +0.000 C 
ATOM     12  N   UNL     1      -0.022  10.141  19.708  0.00  0.00    +0.000 NA
BRANCH  12  13
ATOM     13  N   UNL     1      -0.059  10.836  18.489  0.00  0.00    +0.000 NA
ATOM     14  C   UNL     1      -0.900  11.824  18.500  0.00  0.00    +0.000 C 
ATOM     15  N   UNL     1      -1.619  12.242  19.570  0.00  0.00    +0.000 N 
ATOM     16  N   UNL     1      -1.186  12.558  17.400  0.00  0.00    +0.000 N 
ATOM     17  H   UNL     1      -1.574  11.514  20.280  0.00  0.00    +0.000 HD
ATOM     18  H   UNL     1      -2.570  12.500  19.349  0.00  0.00    +0.000 HD
ATOM     19  H   UNL     1      -0.480  12.473  16.677  0.00  0.00    +0.000 HD
ATOM     20  H   UNL     1      -1.477  13.510  17.569  0.00  0.00    +0.000 HD
ENDBRANCH  12  13
ENDBRANCH  10  11
ENDBRANCH   9  10
ENDBRANCH   8   9
ENDBRANCH   4   8
BRANCH   6  21
ATOM     21  O   UNL     1       5.639   4.604  16.810  0.00  0.00    +0.000 OA
BRANCH  21  22
ATOM     22  S   UNL     1       6.167   5.836  15.883  0.00  0.00    +0.000 S 
ATOM     23  O   UNL     1       5.071   6.738  15.580  0.00  0.00    +0.000 OA
ATOM     24  O   UNL     1       7.460   6.306  16.322  0.00  0.00    +0.000 OA
BRANCH  22  25
ATOM     25  C   UNL     1       6.478   4.996  14.340  0.00  0.00    +0.000 A 
ATOM     26  C   UNL     1       7.467   5.150  13.387  0.00  0.00    +0.000 A 
ATOM     27  C   UNL     1       7.337   4.214  12.320  0.00  0.00    +0.000 A 
ATOM     28  C   UNL     1       6.253   3.397  12.515  0.00  0.00    +0.000 A 
ATOM     29 CL   UNL     1       5.732   2.124  11.487  0.00  0.00    +0.000 Cl
ATOM     30  S   UNL     1       5.395   3.734  13.932  0.00  0.00    +0.000 S 
ENDBRANCH  22  25
ENDBRANCH  21  22
ENDBRANCH   6  21
TORSDOF 8
ENDMDL
MODEL 7
REMARK VINA RESULT:      -7.1      4.786      7.510
REMARK  Name = 
REMARK  9 active torsions:
REMARK  status: ('A' for Active; 'I' for Inactive)
REMARK    1  A    between atoms: C_1  and  C_2
REMARK    2  A    between atoms: C_4  and  O_5
REMARK    3  A    between atoms: O_5  and  C_6
REMARK    4  A    between atoms: C_6  and  C_7
REMARK    5  A    between atoms: C_7  and  C_8
REMARK    6  A    between atoms: N_9  and  N_10
REMARK    7  A    between atoms: C_15  and  O_16
REMARK    8  A    between atoms: O_16  and  S_17
REMARK    9  A    between atoms: S_17  and  C_20
REMARK                            x       y       z     vdW  Elec       q    Type
REMARK                         _______ _______ _______ _____ _____    ______ ____
ROOT
ATOM      1  C   UNL     1       1.513   3.850  20.947  0.00  0.00    +0.000 C 
ATOM      2  C   UNL     1       2.003   4.837  19.927  0.00  0.00    +0.000 A 
ATOM      3  C   UNL     1       1.804   6.213  20.085  0.00  0.00    +0.000 A 
ATOM      4  C   UNL     1       2.245   7.121  19.114  0.00  0.00    +0.000 A 
ATOM      5  C   UNL     1       2.936   6.648  17.998  0.00  0.00    +0.000 A 
ATOM      6  C   UNL     1       3.159   5.270  17.840  0.00  0.00    +0.000 A 
ATOM      7  C   UNL     1       2.670   4.372  18.788  0.00  0.00    +0.000 A 
ENDROOT
BRANCH   4   8
ATOM      8  O   UNL     1       1.995   8.434  19.403  0.00  0.00    +0.000 OA
BRANCH   8   9
ATOM      9  C   UNL     1       1.913   9.365  18.320  0.00  0.00    +0.000 C 
BRANCH   9  10
ATOM     10  C   UNL     1       0.483   9.866  18.207  0.00  0.00    +0.000 C 
BRANCH  10  11
ATOM     11  C   UNL     1      -0.156   9.967  19.561  0.00  0.00    +0.000 C 
ATOM     12  N   UNL     1       0.318  10.773  20.458  0.00  0.00    +0.000 NA
BRANCH  12  13
ATOM     13  N   UNL     1      -0.405  10.643  21.655  0.00  0.00    +0.000 NA
ATOM     14  C   UNL     1       0.146   9.812  22.486  0.00  0.00    +0.000 C 
ATOM     15  N   UNL     1       1.334   9.184  22.309  0.00  0.00    +0.000 N 
ATOM     16  N   UNL     1      -0.435   9.444  23.650  0.00  0.00    +0.000 N 
ATOM     17  H   UNL     1       1.596   9.281  21.331  0.00  0.00    +0.000 HD
ATOM     18  H   UNL     1       1.336   8.220  22.610  0.00  0.00    +0.000 HD
ATOM     19  H   UNL     1      -1.158  10.089  23.950  0.00  0.00    +0.000 HD
ATOM     20  H   UNL     1       0.195   9.174  24.392  0.00  0.00    +0.000 HD
ENDBRANCH  12  13
ENDBRANCH  10  11
ENDBRANCH   9  10
ENDBRANCH   8   9
ENDBRANCH   4   8
BRANCH   6  21
ATOM     21  O   UNL     1       3.840   4.891  16.707  0.00  0.00    +0.000 OA
BRANCH  21  22
ATOM     22  S   UNL     1       5.190   3.985  16.816  0.00  0.00    +0.000 S 
ATOM     23  O   UNL     1       5.011   2.937  17.804  0.00  0.00    +0.000 OA
ATOM     24  O   UNL     1       5.758   3.734  15.512  0.00  0.00    +0.000 OA
BRANCH  22  25
ATOM     25  C   UNL     1       6.312   5.131  17.598  0.00  0.00    +0.000 A 
ATOM     26  C   UNL     1       7.142   5.009  18.696  0.00  0.00    +0.000 A 
ATOM     27  C   UNL     1       7.900   6.192  18.933  0.00  0.00    +0.000 A 
ATOM     28  C   UNL     1       7.606   7.155  18.003  0.00  0.00    +0.000 A 
ATOM     29 CL   UNL     1       8.294   8.726  17.903  0.00  0.00    +0.000 Cl
ATOM     30  S   UNL     1       6.446   6.676  16.871  0.00  0.00    +0.000 S 
ENDBRANCH  22  25
ENDBRANCH  21  22
ENDBRANCH   6  21
TORSDOF 8
ENDMDL
MODEL 8
REMARK VINA RESULT:      -7.1      5.350      8.175
REMARK  Name = 
REMARK  9 active torsions:
REMARK  status: ('A' for Active; 'I' for Inactive)
REMARK    1  A    between atoms: C_1  and  C_2
REMARK    2  A    between atoms: C_4  and  O_5
REMARK    3  A    between atoms: O_5  and  C_6
REMARK    4  A    between atoms: C_6  and  C_7
REMARK    5  A    between atoms: C_7  and  C_8
REMARK    6  A    between atoms: N_9  and  N_10
REMARK    7  A    between atoms: C_15  and  O_16
REMARK    8  A    between atoms: O_16  and  S_17
REMARK    9  A    between atoms: S_17  and  C_20
REMARK                            x       y       z     vdW  Elec       q    Type
REMARK                         _______ _______ _______ _____ _____    ______ ____
ROOT
ATOM      1  C   UNL     1       1.221   2.904  21.038  0.00  0.00    +0.000 C 
ATOM      2  C   UNL     1       1.692   4.274  20.645  0.00  0.00    +0.000 A 
ATOM      3  C   UNL     1       0.950   5.420  20.952  0.00  0.00    +0.000 A 
ATOM      4  C   UNL     1       1.389   6.691  20.558  0.00  0.00    +0.000 A 
ATOM      5  C   UNL     1       2.608   6.816  19.892  0.00  0.00    +0.000 A 
ATOM      6  C   UNL     1       3.370   5.674  19.595  0.00  0.00    +0.000 A 
ATOM      7  C   UNL     1       2.897   4.411  19.948  0.00  0.00    +0.000 A 
ENDROOT
BRANCH   4   8
ATOM      8  O   UNL     1       0.574   7.720  20.936  0.00  0.00    +0.000 OA
BRANCH   8   9
ATOM      9  C   UNL     1       1.158   8.838  21.612  0.00  0.00    +0.000 C 
BRANCH   9  10
ATOM     10  C   UNL     1       1.049  10.065  20.724  0.00  0.00    +0.000 C 
BRANCH  10  11
ATOM     11  C   UNL     1      -0.257  10.074  19.984  0.00  0.00    +0.000 C 
ATOM     12  N   UNL     1      -0.315  10.461  18.749  0.00  0.00    +0.000 NA
BRANCH  12  13
ATOM     13  N   UNL     1      -1.645  10.441  18.298  0.00  0.00    +0.000 NA
ATOM     14  C   UNL     1      -2.000  11.552  17.730  0.00  0.00    +0.000 C 
ATOM     15  N   UNL     1      -1.191  12.612  17.488  0.00  0.00    +0.000 N 
ATOM     16  N   UNL     1      -3.266  11.799  17.325  0.00  0.00    +0.000 N 
ATOM     17  H   UNL     1      -0.341  12.489  18.034  0.00  0.00    +0.000 HD
ATOM     18  H   UNL     1      -1.626  13.507  17.658  0.00  0.00    +0.000 HD
ATOM     19  H   UNL     1      -3.818  10.955  17.222  0.00  0.00    +0.000 HD
ATOM     20  H   UNL     1      -3.365  12.441  16.551  0.00  0.00    +0.000 HD
ENDBRANCH  12  13
ENDBRANCH  10  11
ENDBRANCH   9  10
ENDBRANCH   8   9
ENDBRANCH   4   8
BRANCH   6  21
ATOM     21  O   UNL     1       4.553   5.890  18.928  0.00  0.00    +0.000 OA
BRANCH  21  22
ATOM     22  S   UNL     1       5.747   4.783  18.980  0.00  0.00    +0.000 S 
ATOM     23  O   UNL     1       6.909   5.331  19.657  0.00  0.00    +0.000 OA
ATOM     24  O   UNL     1       5.230   3.467  19.273  0.00  0.00    +0.000 OA
BRANCH  22  25
ATOM     25  C   UNL     1       6.234   4.720  17.265  0.00  0.00    +0.000 A 
ATOM     26  C   UNL     1       7.389   5.114  16.616  0.00  0.00    +0.000 A 
ATOM     27  C   UNL     1       7.348   4.827  15.221  0.00  0.00    +0.000 A 
ATOM     28  C   UNL     1       6.162   4.230  14.879  0.00  0.00    +0.000 A 
ATOM     29 CL   UNL     1       5.694   3.705  13.313  0.00  0.00    +0.000 Cl
ATOM     30  S   UNL     1       5.107   4.019  16.183  0.00  0.00    +0.000 S 
ENDBRANCH  22  25
ENDBRANCH  21  22
ENDBRANCH   6  21
TORSDOF 8
ENDMDL
MODEL 9
REMARK VINA RESULT:      -7.1      4.914      7.819
REMARK  Name = 
REMARK  9 active torsions:
REMARK  status: ('A' for Active; 'I' for Inactive)
REMARK    1  A    between atoms: C_1  and  C_2
REMARK    2  A    between atoms: C_4  and  O_5
REMARK    3  A    between atoms: O_5  and  C_6
REMARK    4  A    between atoms: C_6  and  C_7
REMARK    5  A    between atoms: C_7  and  C_8
REMARK    6  A    between atoms: N_9  and  N_10
REMARK    7  A    between atoms: C_15  and  O_16
REMARK    8  A    between atoms: O_16  and  S_17
REMARK    9  A    between atoms: S_17  and  C_20
REMARK                            x       y       z     vdW  Elec       q    Type
REMARK                         _______ _______ _______ _____ _____    ______ ____
ROOT
ATOM      1  C   UNL     1       0.997   3.452  20.816  0.00  0.00    +0.000 C 
ATOM      2  C   UNL     1       1.635   4.585  20.067  0.00  0.00    +0.000 A 
ATOM      3  C   UNL     1       1.551   5.904  20.524  0.00  0.00    +0.000 A 
ATOM      4  C   UNL     1       2.130   6.956  19.802  0.00  0.00    +0.000 A 
ATOM      5  C   UNL     1       2.843   6.673  18.636  0.00  0.00    +0.000 A 
ATOM      6  C   UNL     1       2.951   5.349  18.179  0.00  0.00    +0.000 A 
ATOM      7  C   UNL     1       2.326   4.319  18.880  0.00  0.00    +0.000 A 
ENDROOT
BRANCH   4   8
ATOM      8  O   UNL     1       1.983   8.190  20.370  0.00  0.00    +0.000 OA
BRANCH   8   9
ATOM      9  C   UNL     1       1.194   8.302  21.559  0.00  0.00    +0.000 C 
BRANCH   9  10
ATOM     10  C   UNL     1      -0.084   9.056  21.236  0.00  0.00    +0.000 C 
BRANCH  10  11
ATOM     11  C   UNL     1       0.210  10.493  20.918  0.00  0.00    +0.000 C 
ATOM     12  N   UNL     1       0.754  11.268  21.802  0.00  0.00    +0.000 NA
BRANCH  12  13
ATOM     13  N   UNL     1       0.871  12.572  21.295  0.00  0.00    +0.000 NA
ATOM     14  C   UNL     1      -0.005  13.387  21.798  0.00  0.00    +0.000 C 
ATOM     15  N   UNL     1      -0.894  13.089  22.777  0.00  0.00    +0.000 N 
ATOM     16  N   UNL     1      -0.153  14.662  21.372  0.00  0.00    +0.000 N 
ATOM     17  H   UNL     1      -0.924  12.077  22.874  0.00  0.00    +0.000 HD
ATOM     18  H   UNL     1      -1.811  13.485  22.632  0.00  0.00    +0.000 HD
ATOM     19  H   UNL     1       0.656  15.004  20.866  0.00  0.00    +0.000 HD
ATOM     20  H   UNL     1      -0.507  15.317  22.054  0.00  0.00    +0.000 HD
ENDBRANCH  12  13
ENDBRANCH  10  11
ENDBRANCH   9  10
ENDBRANCH   8   9
ENDBRANCH   4   8
BRANCH   6  21
ATOM     21  O   UNL     1       3.663   5.164  17.018  0.00  0.00    +0.000 OA
BRANCH  21  22
ATOM     22  S   UNL     1       4.984   4.211  16.999  0.00  0.00    +0.000 S 
ATOM     23  O   UNL     1       4.852   3.153  17.985  0.00  0.00    +0.000 OA
ATOM     24  O   UNL     1       5.431   3.961  15.649  0.00  0.00    +0.000 OA
BRANCH  22  25
ATOM     25  C   UNL     1       6.208   5.305  17.699  0.00  0.00    +0.000 A 
ATOM     26  C   UNL     1       7.146   5.125  18.698  0.00  0.00    +0.000 A 
ATOM     27  C   UNL     1       7.951   6.284  18.895  0.00  0.00    +0.000 A 
ATOM     28  C   UNL     1       7.583   7.288  18.036  0.00  0.00    +0.000 A 
ATOM     29 CL   UNL     1       8.292   8.847  17.921  0.00  0.00    +0.000 Cl
ATOM     30  S   UNL     1       6.300   6.873  17.018  0.00  0.00    +0.000 S 
ENDBRANCH  22  25
ENDBRANCH  21  22
ENDBRANCH   6  21
TORSDOF 8
ENDMDL
