MODEL 1
REMARK VINA RESULT:      -8.1      0.000      0.000
REMARK  Name = 
REMARK  12 active torsions:
REMARK  status: ('A' for Active; 'I' for Inactive)
REMARK    1  A    between atoms: C_1  and  O_2
REMARK    2  A    between atoms: O_2  and  C_3
REMARK    3  A    between atoms: C_3  and  C_5
REMARK    4  A    between atoms: C_5  and  C_6
REMARK    5  A    between atoms: C_5  and  N_14
REMARK    6  A    between atoms: C_6  and  C_7
REMARK    7  A    between atoms: C_10  and  O_11
REMARK    8  A    between atoms: C_15  and  C_17
REMARK    9  A    between atoms: C_17  and  C_18
REMARK   10  A    between atoms: C_18  and  C_19
REMARK   11  A    between atoms: C_19  and  C_20
REMARK   12  A    between atoms: C_20  and  C_21
REMARK                            x       y       z     vdW  Elec       q    Type
REMARK                         _______ _______ _______ _____ _____    ______ ____
ROOT
ATOM      1  N   UNL     1       6.517   6.522  16.672  0.00  0.00    +0.000 N 
ATOM      2  C   UNL     1       7.354   5.956  17.601  0.00  0.00    +0.000 C 
ATOM      3  O   UNL     1       7.488   4.742  17.726  0.00  0.00    +0.000 OA
ATOM      4  H   UNL     1       6.304   7.515  16.714  0.00  0.00    +0.000 HD
ENDROOT
BRANCH   1   5
ATOM      5  C   UNL     1       5.765   5.719  15.701  0.00  0.00    +0.000 C 
BRANCH   5   6
ATOM      6  C   UNL     1       6.738   5.015  14.747  0.00  0.00    +0.000 C 
ATOM      7  O   UNL     1       7.785   5.508  14.338  0.00  0.00    +0.000 OA
BRANCH   6   9
ATOM      8  C   UNL     1       6.127   3.570  12.989  0.00  0.00    +0.000 C 
ATOM      9  O   UNL     1       6.267   3.784  14.396  0.00  0.00    +0.000 OA
ENDBRANCH   6   9
ENDBRANCH   5   6
BRANCH   5  10
ATOM     10  C   UNL     1       4.769   4.731  16.351  0.00  0.00    +0.000 C 
BRANCH  10  11
ATOM     11  C   UNL     1       3.997   5.238  17.554  0.00  0.00    +0.000 A 
ATOM     12  C   UNL     1       3.942   4.468  18.725  0.00  0.00    +0.000 A 
ATOM     13  C   UNL     1       3.228   4.910  19.842  0.00  0.00    +0.000 A 
ATOM     14  C   UNL     1       2.574   6.134  19.797  0.00  0.00    +0.000 A 
ATOM     15  C   UNL     1       2.643   6.927  18.660  0.00  0.00    +0.000 A 
ATOM     16  C   UNL     1       3.362   6.489  17.550  0.00  0.00    +0.000 A 
BRANCH  14  17
ATOM     17  O   UNL     1       1.855   6.597  20.857  0.00  0.00    +0.000 OA
ATOM     18  H   UNL     1       0.932   6.312  20.747  0.00  0.00    +0.000 HD
ENDBRANCH  14  17
ENDBRANCH  10  11
ENDBRANCH   5  10
ENDBRANCH   1   5
BRANCH   2  19
ATOM     19  C   UNL     1       8.093   6.958  18.468  0.00  0.00    +0.000 C 
BRANCH  19  20
ATOM     20  C   UNL     1       8.069   8.368  17.868  0.00  0.00    +0.000 C 
BRANCH  20  21
ATOM     21  C   UNL     1       8.844   9.370  18.728  0.00  0.00    +0.000 C 
BRANCH  21  22
ATOM     22  C   UNL     1       9.022  10.723  18.037  0.00  0.00    +0.000 C 
BRANCH  22  23
ATOM     23  C   UNL     1       9.492  11.765  19.028  0.00  0.00    +0.000 A 
ATOM     24  C   UNL     1       9.571  11.449  20.403  0.00  0.00    +0.000 A 
ATOM     25  C   UNL     1       9.932  12.419  21.344  0.00  0.00    +0.000 A 
ATOM     26  C   UNL     1      10.199  13.690  20.885  0.00  0.00    +0.000 A 
ATOM     27  C   UNL     1      10.131  14.006  19.547  0.00  0.00    +0.000 A 
ATOM     28  C   UNL     1       9.786  13.068  18.596  0.00  0.00    +0.000 A 
ATOM     29  O   UNL     1      10.405  15.316  19.315  0.00  0.00    +0.000 OA
ATOM     30  C   UNL     1      10.615  15.797  20.654  0.00  0.00    +0.000 C 
ATOM     31  O   UNL     1      10.517  14.762  21.656  0.00  0.00    +0.000 OA
ENDBRANCH  22  23
ENDBRANCH  21  22
ENDBRANCH  20  21
ENDBRANCH  19  20
ENDBRANCH   2  19
TORSDOF 11
ENDMDL
MODEL 2
REMARK VINA RESULT:      -8.1      4.840      8.849
REMARK  Name = 
REMARK  12 active torsions:
REMARK  status: ('A' for Active; 'I' for Inactive)
REMARK    1  A    between atoms: C_1  and  O_2
REMARK    2  A    between atoms: O_2  and  C_3
REMARK    3  A    between atoms: C_3  and  C_5
REMARK    4  A    between atoms: C_5  and  C_6
REMARK    5  A    between atoms: C_5  and  N_14
REMARK    6  A    between atoms: C_6  and  C_7
REMARK    7  A    between atoms: C_10  and  O_11
REMARK    8  A    between atoms: C_15  and  C_17
REMARK    9  A    between atoms: C_17  and  C_18
REMARK   10  A    between atoms: C_18  and  C_19
REMARK   11  A    between atoms: C_19  and  C_20
REMARK   12  A    between atoms: C_20  and  C_21
REMARK                            x       y       z     vdW  Elec       q    Type
REMARK                         _______ _______ _______ _____ _____    ______ ____
ROOT
ATOM      1  N   UNL     1       2.801   5.494  18.927  0.00  0.00    +0.000 N 
ATOM      2  C   UNL     1       2.191   6.121  19.986  0.00  0.00    +0.000 C 
ATOM      3  O   UNL     1       1.780   5.515  20.971  0.00  0.00    +0.000 OA
ATOM      4  H   UNL     1       2.970   6.001  18.062  0.00  0.00    +0.000 HD
ENDROOT
BRANCH   1   5
ATOM      5  C   UNL     1       3.073   4.053  18.920  0.00  0.00    +0.000 C 
BRANCH   5   6
ATOM      6  C   UNL     1       1.924   3.312  18.224  0.00  0.00    +0.000 C 
ATOM      7  O   UNL     1       1.478   3.608  17.120  0.00  0.00    +0.000 OA
BRANCH   6   9
ATOM      8  C   UNL     1       1.774   2.417  20.398  0.00  0.00    +0.000 C 
ATOM      9  O   UNL     1       1.452   2.302  19.010  0.00  0.00    +0.000 OA
ENDBRANCH   6   9
ENDBRANCH   5   6
BRANCH   5  10
ATOM     10  C   UNL     1       4.452   3.682  18.325  0.00  0.00    +0.000 C 
BRANCH  10  11
ATOM     11  C   UNL     1       5.384   4.835  18.007  0.00  0.00    +0.000 A 
ATOM     12  C   UNL     1       6.469   5.111  18.854  0.00  0.00    +0.000 A 
ATOM     13  C   UNL     1       7.336   6.174  18.587  0.00  0.00    +0.000 A 
ATOM     14  C   UNL     1       7.127   6.962  17.462  0.00  0.00    +0.000 A 
ATOM     15  C   UNL     1       6.080   6.686  16.594  0.00  0.00    +0.000 A 
ATOM     16  C   UNL     1       5.222   5.620  16.856  0.00  0.00    +0.000 A 
BRANCH  14  17
ATOM     17  O   UNL     1       7.939   8.016  17.172  0.00  0.00    +0.000 OA
ATOM     18  H   UNL     1       8.527   8.165  17.932  0.00  0.00    +0.000 HD
ENDBRANCH  14  17
ENDBRANCH  10  11
ENDBRANCH   5  10
ENDBRANCH   1   5
BRANCH   2  19
ATOM     19  C   UNL     1       2.061   7.625  19.831  0.00  0.00    +0.000 C 
BRANCH  19  20
ATOM     20  C   UNL     1       2.328   8.081  18.392  0.00  0.00    +0.000 C 
BRANCH  20  21
ATOM     21  C   UNL     1       1.442   9.264  17.993  0.00  0.00    +0.000 C 
BRANCH  21  22
ATOM     22  C   UNL     1       0.697   9.867  19.186  0.00  0.00    +0.000 C 
BRANCH  22  23
ATOM     23  C   UNL     1      -0.615  10.473  18.739  0.00  0.00    +0.000 A 
ATOM     24  C   UNL     1      -1.280  11.406  19.565  0.00  0.00    +0.000 A 
ATOM     25  C   UNL     1      -2.529  11.922  19.205  0.00  0.00    +0.000 A 
ATOM     26  C   UNL     1      -3.090  11.483  18.027  0.00  0.00    +0.000 A 
ATOM     27  C   UNL     1      -2.447  10.579  17.212  0.00  0.00    +0.000 A 
ATOM     28  C   UNL     1      -1.211  10.060  17.538  0.00  0.00    +0.000 A 
ATOM     29  O   UNL     1      -3.183  10.262  16.116  0.00  0.00    +0.000 OA
ATOM     30  C   UNL     1      -4.374  11.035  16.349  0.00  0.00    +0.000 C 
ATOM     31  O   UNL     1      -4.308  11.839  17.546  0.00  0.00    +0.000 OA
ENDBRANCH  22  23
ENDBRANCH  21  22
ENDBRANCH  20  21
ENDBRANCH  19  20
ENDBRANCH   2  19
TORSDOF 11
ENDMDL
MODEL 3
REMARK VINA RESULT:      -8.1      1.976      2.674
REMARK  Name = 
REMARK  12 active torsions:
REMARK  status: ('A' for Active; 'I' for Inactive)
REMARK    1  A    between atoms: C_1  and  O_2
REMARK    2  A    between atoms: O_2  and  C_3
REMARK    3  A    between atoms: C_3  and  C_5
REMARK    4  A    between atoms: C_5  and  C_6
REMARK    5  A    between atoms: C_5  and  N_14
REMARK    6  A    between atoms: C_6  and  C_7
REMARK    7  A    between atoms: C_10  and  O_11
REMARK    8  A    between atoms: C_15  and  C_17
REMARK    9  A    between atoms: C_17  and  C_18
REMARK   10  A    between atoms: C_18  and  C_19
REMARK   11  A    between atoms: C_19  and  C_20
REMARK   12  A    between atoms: C_20  and  C_21
REMARK                            x       y       z     vdW  Elec       q    Type
REMARK                         _______ _______ _______ _____ _____    ______ ____
ROOT
ATOM      1  N   UNL     1       6.110   6.616  17.963  0.00  0.00    +0.000 N 
ATOM      2  C   UNL     1       7.320   6.970  17.421  0.00  0.00    +0.000 C 
ATOM      3  O   UNL     1       7.663   6.647  16.287  0.00  0.00    +0.000 OA
ATOM      4  H   UNL     1       5.934   6.752  18.955  0.00  0.00    +0.000 HD
ENDROOT
BRANCH   1   5
ATOM      5  C   UNL     1       5.096   5.878  17.201  0.00  0.00    +0.000 C 
BRANCH   5   6
ATOM      6  C   UNL     1       5.244   4.374  17.463  0.00  0.00    +0.000 C 
ATOM      7  O   UNL     1       4.986   3.499  16.642  0.00  0.00    +0.000 OA
BRANCH   6   9
ATOM      8  C   UNL     1       5.002   3.082  19.418  0.00  0.00    +0.000 C 
ATOM      9  O   UNL     1       5.674   4.144  18.737  0.00  0.00    +0.000 OA
ENDBRANCH   6   9
ENDBRANCH   5   6
BRANCH   5  10
ATOM     10  C   UNL     1       3.651   6.373  17.445  0.00  0.00    +0.000 C 
BRANCH  10  11
ATOM     11  C   UNL     1       2.777   5.504  18.329  0.00  0.00    +0.000 A 
ATOM     12  C   UNL     1       2.715   5.750  19.709  0.00  0.00    +0.000 A 
ATOM     13  C   UNL     1       1.925   4.957  20.545  0.00  0.00    +0.000 A 
ATOM     14  C   UNL     1       1.183   3.916  20.001  0.00  0.00    +0.000 A 
ATOM     15  C   UNL     1       1.205   3.676  18.634  0.00  0.00    +0.000 A 
ATOM     16  C   UNL     1       1.986   4.474  17.801  0.00  0.00    +0.000 A 
BRANCH  14  17
ATOM     17  O   UNL     1       0.412   3.109  20.781  0.00  0.00    +0.000 OA
ATOM     18  H   UNL     1       0.956   2.790  21.520  0.00  0.00    +0.000 HD
ENDBRANCH  14  17
ENDBRANCH  10  11
ENDBRANCH   5  10
ENDBRANCH   1   5
BRANCH   2  19
ATOM     19  C   UNL     1       8.203   7.788  18.346  0.00  0.00    +0.000 C 
BRANCH  19  20
ATOM     20  C   UNL     1       8.220   9.272  17.963  0.00  0.00    +0.000 C 
BRANCH  20  21
ATOM     21  C   UNL     1       9.152  10.084  18.866  0.00  0.00    +0.000 C 
BRANCH  21  22
ATOM     22  C   UNL     1      10.129  10.953  18.071  0.00  0.00    +0.000 C 
BRANCH  22  23
ATOM     23  C   UNL     1       9.906  12.417  18.379  0.00  0.00    +0.000 A 
ATOM     24  C   UNL     1       9.114  12.794  19.486  0.00  0.00    +0.000 A 
ATOM     25  C   UNL     1       8.835  14.140  19.745  0.00  0.00    +0.000 A 
ATOM     26  C   UNL     1       9.349  15.080  18.881  0.00  0.00    +0.000 A 
ATOM     27  C   UNL     1      10.127  14.723  17.802  0.00  0.00    +0.000 A 
ATOM     28  C   UNL     1      10.426  13.405  17.528  0.00  0.00    +0.000 A 
ATOM     29  O   UNL     1      10.509  15.799  17.067  0.00  0.00    +0.000 OA
ATOM     30  C   UNL     1       9.856  16.866  17.777  0.00  0.00    +0.000 C 
ATOM     31  O   UNL     1       9.143  16.420  18.950  0.00  0.00    +0.000 OA
ENDBRANCH  22  23
ENDBRANCH  21  22
ENDBRANCH  20  21
ENDBRANCH  19  20
ENDBRANCH   2  19
TORSDOF 11
ENDMDL
MODEL 4
REMARK VINA RESULT:      -8.1      5.698      7.799
REMARK  Name = 
REMARK  12 active torsions:
REMARK  status: ('A' for Active; 'I' for Inactive)
REMARK    1  A    between atoms: C_1  and  O_2
REMARK    2  A    between atoms: O_2  and  C_3
REMARK    3  A    between atoms: C_3  and  C_5
REMARK    4  A    between atoms: C_5  and  C_6
REMARK    5  A    between atoms: C_5  and  N_14
REMARK    6  A    between atoms: C_6  and  C_7
REMARK    7  A    between atoms: C_10  and  O_11
REMARK    8  A    between atoms: C_15  and  C_17
REMARK    9  A    between atoms: C_17  and  C_18
REMARK   10  A    between atoms: C_18  and  C_19
REMARK   11  A    between atoms: C_19  and  C_20
REMARK   12  A    between atoms: C_20  and  C_21
REMARK                            x       y       z     vdW  Elec       q    Type
REMARK                         _______ _______ _______ _____ _____    ______ ____
ROOT
ATOM      1  N   UNL     1       4.525   5.698  17.388  0.00  0.00    +0.000 N 
ATOM      2  C   UNL     1       4.442   6.885  16.703  0.00  0.00    +0.000 C 
ATOM      3  O   UNL     1       5.037   7.090  15.650  0.00  0.00    +0.000 OA
ATOM      4  H   UNL     1       4.161   5.627  18.334  0.00  0.00    +0.000 HD
ENDROOT
BRANCH   1   5
ATOM      5  C   UNL     1       5.280   4.549  16.875  0.00  0.00    +0.000 C 
BRANCH   5   6
ATOM      6  C   UNL     1       6.682   4.531  17.499  0.00  0.00    +0.000 C 
ATOM      7  O   UNL     1       6.907   4.647  18.699  0.00  0.00    +0.000 OA
BRANCH   6   9
ATOM      8  C   UNL     1       7.211   4.723  15.211  0.00  0.00    +0.000 C 
ATOM      9  O   UNL     1       7.639   4.399  16.536  0.00  0.00    +0.000 OA
ENDBRANCH   6   9
ENDBRANCH   5   6
BRANCH   5  10
ATOM     10  C   UNL     1       4.549   3.197  17.046  0.00  0.00    +0.000 C 
BRANCH  10  11
ATOM     11  C   UNL     1       3.525   3.117  18.161  0.00  0.00    +0.000 A 
ATOM     12  C   UNL     1       3.939   2.838  19.473  0.00  0.00    +0.000 A 
ATOM     13  C   UNL     1       3.012   2.748  20.515  0.00  0.00    +0.000 A 
ATOM     14  C   UNL     1       1.663   2.948  20.251  0.00  0.00    +0.000 A 
ATOM     15  C   UNL     1       1.236   3.258  18.967  0.00  0.00    +0.000 A 
ATOM     16  C   UNL     1       2.162   3.356  17.931  0.00  0.00    +0.000 A 
BRANCH  14  17
ATOM     17  O   UNL     1       0.725   2.856  21.234  0.00  0.00    +0.000 OA
ATOM     18  H   UNL     1      -0.071   3.330  20.939  0.00  0.00    +0.000 HD
ENDBRANCH  14  17
ENDBRANCH  10  11
ENDBRANCH   5  10
ENDBRANCH   1   5
BRANCH   2  19
ATOM     19  C   UNL     1       3.559   7.927  17.365  0.00  0.00    +0.000 C 
BRANCH  19  20
ATOM     20  C   UNL     1       2.645   7.313  18.432  0.00  0.00    +0.000 C 
BRANCH  20  21
ATOM     21  C   UNL     1       1.699   8.352  19.040  0.00  0.00    +0.000 C 
BRANCH  21  22
ATOM     22  C   UNL     1       1.630   9.638  18.213  0.00  0.00    +0.000 C 
BRANCH  22  23
ATOM     23  C   UNL     1       0.257  10.264  18.321  0.00  0.00    +0.000 A 
ATOM     24  C   UNL     1       0.053  11.379  19.164  0.00  0.00    +0.000 A 
ATOM     25  C   UNL     1      -1.223  11.927  19.334  0.00  0.00    +0.000 A 
ATOM     26  C   UNL     1      -2.270  11.337  18.662  0.00  0.00    +0.000 A 
ATOM     27  C   UNL     1      -2.080  10.253  17.834  0.00  0.00    +0.000 A 
ATOM     28  C   UNL     1      -0.832   9.698  17.640  0.00  0.00    +0.000 A 
ATOM     29  O   UNL     1      -3.245   9.813  17.292  0.00  0.00    +0.000 OA
ATOM     30  C   UNL     1      -4.191  10.711  17.898  0.00  0.00    +0.000 C 
ATOM     31  O   UNL     1      -3.574  11.703  18.745  0.00  0.00    +0.000 OA
ENDBRANCH  22  23
ENDBRANCH  21  22
ENDBRANCH  20  21
ENDBRANCH  19  20
ENDBRANCH   2  19
TORSDOF 11
ENDMDL
MODEL 5
REMARK VINA RESULT:      -8.0      1.990      2.889
REMARK  Name = 
REMARK  12 active torsions:
REMARK  status: ('A' for Active; 'I' for Inactive)
REMARK    1  A    between atoms: C_1  and  O_2
REMARK    2  A    between atoms: O_2  and  C_3
REMARK    3  A    between atoms: C_3  and  C_5
REMARK    4  A    between atoms: C_5  and  C_6
REMARK    5  A    between atoms: C_5  and  N_14
REMARK    6  A    between atoms: C_6  and  C_7
REMARK    7  A    between atoms: C_10  and  O_11
REMARK    8  A    between atoms: C_15  and  C_17
REMARK    9  A    between atoms: C_17  and  C_18
REMARK   10  A    between atoms: C_18  and  C_19
REMARK   11  A    between atoms: C_19  and  C_20
REMARK   12  A    between atoms: C_20  and  C_21
REMARK                            x       y       z     vdW  Elec       q    Type
REMARK                         _______ _______ _______ _____ _____    ______ ____
ROOT
ATOM      1  N   UNL     1       6.657   7.644  16.942  0.00  0.00    +0.000 N 
ATOM      2  C   UNL     1       7.688   7.923  17.805  0.00  0.00    +0.000 C 
ATOM      3  O   UNL     1       8.116   7.109  18.617  0.00  0.00    +0.000 OA
ATOM      4  H   UNL     1       6.220   8.391  16.409  0.00  0.00    +0.000 HD
ENDROOT
BRANCH   1   5
ATOM      5  C   UNL     1       6.027   6.320  16.875  0.00  0.00    +0.000 C 
BRANCH   5   6
ATOM      6  C   UNL     1       6.989   5.323  16.217  0.00  0.00    +0.000 C 
ATOM      7  O   UNL     1       7.712   4.547  16.835  0.00  0.00    +0.000 OA
BRANCH   6   9
ATOM      8  C   UNL     1       6.493   4.272  14.168  0.00  0.00    +0.000 C 
ATOM      9  O   UNL     1       6.950   5.437  14.858  0.00  0.00    +0.000 OA
ENDBRANCH   6   9
ENDBRANCH   5   6
BRANCH   5  10
ATOM     10  C   UNL     1       5.501   5.812  18.238  0.00  0.00    +0.000 C 
BRANCH  10  11
ATOM     11  C   UNL     1       4.399   4.772  18.193  0.00  0.00    +0.000 A 
ATOM     12  C   UNL     1       3.125   5.123  17.720  0.00  0.00    +0.000 A 
ATOM     13  C   UNL     1       2.090   4.185  17.679  0.00  0.00    +0.000 A 
ATOM     14  C   UNL     1       2.328   2.884  18.103  0.00  0.00    +0.000 A 
ATOM     15  C   UNL     1       3.589   2.507  18.544  0.00  0.00    +0.000 A 
ATOM     16  C   UNL     1       4.622   3.441  18.575  0.00  0.00    +0.000 A 
BRANCH  14  17
ATOM     17  O   UNL     1       1.345   1.942  18.094  0.00  0.00    +0.000 OA
ATOM     18  H   UNL     1       0.915   1.942  18.967  0.00  0.00    +0.000 HD
ENDBRANCH  14  17
ENDBRANCH  10  11
ENDBRANCH   5  10
ENDBRANCH   1   5
BRANCH   2  19
ATOM     19  C   UNL     1       8.248   9.328  17.674  0.00  0.00    +0.000 C 
BRANCH  19  20
ATOM     20  C   UNL     1       8.834   9.840  18.995  0.00  0.00    +0.000 C 
BRANCH  20  21
ATOM     21  C   UNL     1      10.222  10.458  18.803  0.00  0.00    +0.000 C 
BRANCH  21  22
ATOM     22  C   UNL     1      10.432  11.706  19.663  0.00  0.00    +0.000 C 
BRANCH  22  23
ATOM     23  C   UNL     1      10.557  12.935  18.790  0.00  0.00    +0.000 A 
ATOM     24  C   UNL     1      11.431  12.927  17.680  0.00  0.00    +0.000 A 
ATOM     25  C   UNL     1      11.618  14.076  16.904  0.00  0.00    +0.000 A 
ATOM     26  C   UNL     1      10.929  15.213  17.264  0.00  0.00    +0.000 A 
ATOM     27  C   UNL     1      10.071  15.229  18.341  0.00  0.00    +0.000 A 
ATOM     28  C   UNL     1       9.861  14.108  19.118  0.00  0.00    +0.000 A 
ATOM     29  O   UNL     1       9.516  16.453  18.537  0.00  0.00    +0.000 OA
ATOM     30  C   UNL     1      10.147  17.213  17.491  0.00  0.00    +0.000 C 
ATOM     31  O   UNL     1      11.023  16.424  16.658  0.00  0.00    +0.000 OA
ENDBRANCH  22  23
ENDBRANCH  21  22
ENDBRANCH  20  21
ENDBRANCH  19  20
ENDBRANCH   2  19
TORSDOF 11
ENDMDL
MODEL 6
REMARK VINA RESULT:      -8.0      5.370      7.126
REMARK  Name = 
REMARK  12 active torsions:
REMARK  status: ('A' for Active; 'I' for Inactive)
REMARK    1  A    between atoms: C_1  and  O_2
REMARK    2  A    between atoms: O_2  and  C_3
REMARK    3  A    between atoms: C_3  and  C_5
REMARK    4  A    between atoms: C_5  and  C_6
REMARK    5  A    between atoms: C_5  and  N_14
REMARK    6  A    between atoms: C_6  and  C_7
REMARK    7  A    between atoms: C_10  and  O_11
REMARK    8  A    between atoms: C_15  and  C_17
REMARK    9  A    between atoms: C_17  and  C_18
REMARK   10  A    between atoms: C_18  and  C_19
REMARK   11  A    between atoms: C_19  and  C_20
REMARK   12  A    between atoms: C_20  and  C_21
REMARK                            x       y       z     vdW  Elec       q    Type
REMARK                         _______ _______ _______ _____ _____    ______ ____
ROOT
ATOM      1  N   UNL     1       4.578   5.523  17.334  0.00  0.00    +0.000 N 
ATOM      2  C   UNL     1       4.631   6.771  16.764  0.00  0.00    +0.000 C 
ATOM      3  O   UNL     1       5.322   7.025  15.781  0.00  0.00    +0.000 OA
ATOM      4  H   UNL     1       4.136   5.394  18.240  0.00  0.00    +0.000 HD
ENDROOT
BRANCH   1   5
ATOM      5  C   UNL     1       5.292   4.372  16.770  0.00  0.00    +0.000 C 
BRANCH   5   6
ATOM      6  C   UNL     1       6.758   4.401  17.220  0.00  0.00    +0.000 C 
ATOM      7  O   UNL     1       7.718   4.342  16.458  0.00  0.00    +0.000 OA
BRANCH   6   9
ATOM      8  C   UNL     1       7.629   5.559  19.078  0.00  0.00    +0.000 C 
ATOM      9  O   UNL     1       6.846   4.472  18.580  0.00  0.00    +0.000 OA
ENDBRANCH   6   9
ENDBRANCH   5   6
BRANCH   5  10
ATOM     10  C   UNL     1       4.617   3.013  17.069  0.00  0.00    +0.000 C 
BRANCH  10  11
ATOM     11  C   UNL     1       3.596   2.996  18.190  0.00  0.00    +0.000 A 
ATOM     12  C   UNL     1       4.002   2.705  19.501  0.00  0.00    +0.000 A 
ATOM     13  C   UNL     1       3.078   2.673  20.549  0.00  0.00    +0.000 A 
ATOM     14  C   UNL     1       1.740   2.942  20.290  0.00  0.00    +0.000 A 
ATOM     15  C   UNL     1       1.322   3.264  19.006  0.00  0.00    +0.000 A 
ATOM     16  C   UNL     1       2.246   3.305  17.964  0.00  0.00    +0.000 A 
BRANCH  14  17
ATOM     17  O   UNL     1       0.804   2.907  21.279  0.00  0.00    +0.000 OA
ATOM     18  H   UNL     1       1.005   2.156  21.862  0.00  0.00    +0.000 HD
ENDBRANCH  14  17
ENDBRANCH  10  11
ENDBRANCH   5  10
ENDBRANCH   1   5
BRANCH   2  19
ATOM     19  C   UNL     1       3.771   7.811  17.457  0.00  0.00    +0.000 C 
BRANCH  19  20
ATOM     20  C   UNL     1       2.560   7.185  18.156  0.00  0.00    +0.000 C 
BRANCH  20  21
ATOM     21  C   UNL     1       1.301   8.041  17.995  0.00  0.00    +0.000 C 
BRANCH  21  22
ATOM     22  C   UNL     1       1.583   9.535  18.161  0.00  0.00    +0.000 C 
BRANCH  22  23
ATOM     23  C   UNL     1       0.579  10.163  19.101  0.00  0.00    +0.000 A 
ATOM     24  C   UNL     1      -0.566  10.810  18.585  0.00  0.00    +0.000 A 
ATOM     25  C   UNL     1      -1.469  11.459  19.432  0.00  0.00    +0.000 A 
ATOM     26  C   UNL     1      -1.199  11.455  20.783  0.00  0.00    +0.000 A 
ATOM     27  C   UNL     1      -0.089  10.823  21.297  0.00  0.00    +0.000 A 
ATOM     28  C   UNL     1       0.813  10.167  20.485  0.00  0.00    +0.000 A 
ATOM     29  O   UNL     1       0.002  10.961  22.645  0.00  0.00    +0.000 OA
ATOM     30  C   UNL     1      -1.149  11.780  22.917  0.00  0.00    +0.000 C 
ATOM     31  O   UNL     1      -1.935  12.071  21.742  0.00  0.00    +0.000 OA
ENDBRANCH  22  23
ENDBRANCH  21  22
ENDBRANCH  20  21
ENDBRANCH  19  20
ENDBRANCH   2  19
TORSDOF 11
ENDMDL
MODEL 7
REMARK VINA RESULT:      -8.0      5.545      7.102
REMARK  Name = 
REMARK  12 active torsions:
REMARK  status: ('A' for Active; 'I' for Inactive)
REMARK    1  A    between atoms: C_1  and  O_2
REMARK    2  A    between atoms: O_2  and  C_3
REMARK    3  A    between atoms: C_3  and  C_5
REMARK    4  A    between atoms: C_5  and  C_6
REMARK    5  A    between atoms: C_5  and  N_14
REMARK    6  A    between atoms: C_6  and  C_7
REMARK    7  A    between atoms: C_10  and  O_11
REMARK    8  A    between atoms: C_15  and  C_17
REMARK    9  A    between atoms: C_17  and  C_18
REMARK   10  A    between atoms: C_18  and  C_19
REMARK   11  A    between atoms: C_19  and  C_20
REMARK   12  A    between atoms: C_20  and  C_21
REMARK                            x       y       z     vdW  Elec       q    Type
REMARK                         _______ _______ _______ _____ _____    ______ ____
ROOT
ATOM      1  N   UNL     1       4.934   5.678  17.292  0.00  0.00    +0.000 N 
ATOM      2  C   UNL     1       4.694   6.853  16.624  0.00  0.00    +0.000 C 
ATOM      3  O   UNL     1       5.038   7.039  15.460  0.00  0.00    +0.000 OA
ATOM      4  H   UNL     1       4.791   5.623  18.297  0.00  0.00    +0.000 HD
ENDROOT
BRANCH   1   5
ATOM      5  C   UNL     1       5.561   4.521  16.644  0.00  0.00    +0.000 C 
BRANCH   5   6
ATOM      6  C   UNL     1       7.079   4.564  16.864  0.00  0.00    +0.000 C 
ATOM      7  O   UNL     1       7.632   4.301  17.927  0.00  0.00    +0.000 OA
BRANCH   6   9
ATOM      8  C   UNL     1       7.080   4.582  14.508  0.00  0.00    +0.000 C 
ATOM      9  O   UNL     1       7.722   4.961  15.728  0.00  0.00    +0.000 OA
ENDBRANCH   6   9
ENDBRANCH   5   6
BRANCH   5  10
ATOM     10  C   UNL     1       4.950   3.164  17.065  0.00  0.00    +0.000 C 
BRANCH  10  11
ATOM     11  C   UNL     1       3.730   3.220  17.963  0.00  0.00    +0.000 A 
ATOM     12  C   UNL     1       3.861   2.971  19.338  0.00  0.00    +0.000 A 
ATOM     13  C   UNL     1       2.750   3.006  20.184  0.00  0.00    +0.000 A 
ATOM     14  C   UNL     1       1.498   3.303  19.659  0.00  0.00    +0.000 A 
ATOM     15  C   UNL     1       1.351   3.585  18.308  0.00  0.00    +0.000 A 
ATOM     16  C   UNL     1       2.462   3.558  17.467  0.00  0.00    +0.000 A 
BRANCH  14  17
ATOM     17  O   UNL     1       0.386   3.334  20.444  0.00  0.00    +0.000 OA
ATOM     18  H   UNL     1      -0.359   3.646  19.904  0.00  0.00    +0.000 HD
ENDBRANCH  14  17
ENDBRANCH  10  11
ENDBRANCH   5  10
ENDBRANCH   1   5
BRANCH   2  19
ATOM     19  C   UNL     1       3.976   7.905  17.448  0.00  0.00    +0.000 C 
BRANCH  19  20
ATOM     20  C   UNL     1       2.581   7.442  17.885  0.00  0.00    +0.000 C 
BRANCH  20  21
ATOM     21  C   UNL     1       1.916   8.445  18.831  0.00  0.00    +0.000 C 
BRANCH  21  22
ATOM     22  C   UNL     1       1.004   9.429  18.095  0.00  0.00    +0.000 C 
BRANCH  22  23
ATOM     23  C   UNL     1       0.152  10.198  19.080  0.00  0.00    +0.000 A 
ATOM     24  C   UNL     1      -0.646  11.276  18.634  0.00  0.00    +0.000 A 
ATOM     25  C   UNL     1      -1.384  12.046  19.538  0.00  0.00    +0.000 A 
ATOM     26  C   UNL     1      -1.298  11.725  20.875  0.00  0.00    +0.000 A 
ATOM     27  C   UNL     1      -0.529  10.673  21.319  0.00  0.00    +0.000 A 
ATOM     28  C   UNL     1       0.202   9.891  20.448  0.00  0.00    +0.000 A 
ATOM     29  O   UNL     1      -0.565  10.546  22.670  0.00  0.00    +0.000 OA
ATOM     30  C   UNL     1      -1.409  11.654  23.030  0.00  0.00    +0.000 C 
ATOM     31  O   UNL     1      -1.905  12.389  21.892  0.00  0.00    +0.000 OA
ENDBRANCH  22  23
ENDBRANCH  21  22
ENDBRANCH  20  21
ENDBRANCH  19  20
ENDBRANCH   2  19
TORSDOF 11
ENDMDL
MODEL 8
REMARK VINA RESULT:      -8.0      5.403      8.797
REMARK  Name = 
REMARK  12 active torsions:
REMARK  status: ('A' for Active; 'I' for Inactive)
REMARK    1  A    between atoms: C_1  and  O_2
REMARK    2  A    between atoms: O_2  and  C_3
REMARK    3  A    between atoms: C_3  and  C_5
REMARK    4  A    between atoms: C_5  and  C_6
REMARK    5  A    between atoms: C_5  and  N_14
REMARK    6  A    between atoms: C_6  and  C_7
REMARK    7  A    between atoms: C_10  and  O_11
REMARK    8  A    between atoms: C_15  and  C_17
REMARK    9  A    between atoms: C_17  and  C_18
REMARK   10  A    between atoms: C_18  and  C_19
REMARK   11  A    between atoms: C_19  and  C_20
REMARK   12  A    between atoms: C_20  and  C_21
REMARK                            x       y       z     vdW  Elec       q    Type
REMARK                         _______ _______ _______ _____ _____    ______ ____
ROOT
ATOM      1  N   UNL     1       2.556   5.276  19.033  0.00  0.00    +0.000 N 
ATOM      2  C   UNL     1       2.162   6.116  20.045  0.00  0.00    +0.000 C 
ATOM      3  O   UNL     1       1.829   5.711  21.155  0.00  0.00    +0.000 OA
ATOM      4  H   UNL     1       2.656   5.629  18.085  0.00  0.00    +0.000 HD
ENDROOT
BRANCH   1   5
ATOM      5  C   UNL     1       2.678   3.825  19.220  0.00  0.00    +0.000 C 
BRANCH   5   6
ATOM      6  C   UNL     1       1.314   3.159  19.001  0.00  0.00    +0.000 C 
ATOM      7  O   UNL     1       0.834   2.909  17.900  0.00  0.00    +0.000 OA
BRANCH   6   9
ATOM      8  C   UNL     1       1.582   2.574  21.268  0.00  0.00    +0.000 C 
ATOM      9  O   UNL     1       0.700   2.908  20.194  0.00  0.00    +0.000 OA
ENDBRANCH   6   9
ENDBRANCH   5   6
BRANCH   5  10
ATOM     10  C   UNL     1       3.789   3.178  18.361  0.00  0.00    +0.000 C 
BRANCH  10  11
ATOM     11  C   UNL     1       4.854   4.110  17.817  0.00  0.00    +0.000 A 
ATOM     12  C   UNL     1       4.897   4.398  16.444  0.00  0.00    +0.000 A 
ATOM     13  C   UNL     1       5.875   5.245  15.918  0.00  0.00    +0.000 A 
ATOM     14  C   UNL     1       6.814   5.819  16.767  0.00  0.00    +0.000 A 
ATOM     15  C   UNL     1       6.769   5.573  18.133  0.00  0.00    +0.000 A 
ATOM     16  C   UNL     1       5.787   4.735  18.657  0.00  0.00    +0.000 A 
BRANCH  14  17
ATOM     17  O   UNL     1       7.793   6.638  16.295  0.00  0.00    +0.000 OA
ATOM     18  H   UNL     1       8.249   7.036  17.056  0.00  0.00    +0.000 HD
ENDBRANCH  14  17
ENDBRANCH  10  11
ENDBRANCH   5  10
ENDBRANCH   1   5
BRANCH   2  19
ATOM     19  C   UNL     1       2.163   7.586  19.672  0.00  0.00    +0.000 C 
BRANCH  19  20
ATOM     20  C   UNL     1       2.438   7.802  18.180  0.00  0.00    +0.000 C 
BRANCH  20  21
ATOM     21  C   UNL     1       1.518   8.867  17.577  0.00  0.00    +0.000 C 
BRANCH  21  22
ATOM     22  C   UNL     1       1.426  10.123  18.447  0.00  0.00    +0.000 C 
BRANCH  22  23
ATOM     23  C   UNL     1       0.002  10.631  18.493  0.00  0.00    +0.000 A 
ATOM     24  C   UNL     1      -0.337  11.707  19.344  0.00  0.00    +0.000 A 
ATOM     25  C   UNL     1      -1.661  12.144  19.457  0.00  0.00    +0.000 A 
ATOM     26  C   UNL     1      -2.620  11.484  18.720  0.00  0.00    +0.000 A 
ATOM     27  C   UNL     1      -2.298  10.438  17.884  0.00  0.00    +0.000 A 
ATOM     28  C   UNL     1      -1.000   9.993  17.747  0.00  0.00    +0.000 A 
ATOM     29  O   UNL     1      -3.392   9.915  17.273  0.00  0.00    +0.000 OA
ATOM     30  C   UNL     1      -4.440  10.720  17.844  0.00  0.00    +0.000 C 
ATOM     31  O   UNL     1      -3.953  11.740  18.741  0.00  0.00    +0.000 OA
ENDBRANCH  22  23
ENDBRANCH  21  22
ENDBRANCH  20  21
ENDBRANCH  19  20
ENDBRANCH   2  19
TORSDOF 11
ENDMDL
MODEL 9
REMARK VINA RESULT:      -7.9      2.069      3.184
REMARK  Name = 
REMARK  12 active torsions:
REMARK  status: ('A' for Active; 'I' for Inactive)
REMARK    1  A    between atoms: C_1  and  O_2
REMARK    2  A    between atoms: O_2  and  C_3
REMARK    3  A    between atoms: C_3  and  C_5
REMARK    4  A    between atoms: C_5  and  C_6
REMARK    5  A    between atoms: C_5  and  N_14
REMARK    6  A    between atoms: C_6  and  C_7
REMARK    7  A    between atoms: C_10  and  O_11
REMARK    8  A    between atoms: C_15  and  C_17
REMARK    9  A    between atoms: C_17  and  C_18
REMARK   10  A    between atoms: C_18  and  C_19
REMARK   11  A    between atoms: C_19  and  C_20
REMARK   12  A    between atoms: C_20  and  C_21
REMARK                            x       y       z     vdW  Elec       q    Type
REMARK                         _______ _______ _______ _____ _____    ______ ____
ROOT
ATOM      1  N   UNL     1       5.351   6.177  17.973  0.00  0.00    +0.000 N 
ATOM      2  C   UNL     1       6.330   5.696  18.807  0.00  0.00    +0.000 C 
ATOM      3  O   UNL     1       6.126   4.812  19.633  0.00  0.00    +0.000 OA
ATOM      4  H   UNL     1       5.512   7.020  17.428  0.00  0.00    +0.000 HD
ENDROOT
BRANCH   1   5
ATOM      5  C   UNL     1       3.994   5.620  17.954  0.00  0.00    +0.000 C 
BRANCH   5   6
ATOM      6  C   UNL     1       4.058   4.109  17.694  0.00  0.00    +0.000 C 
ATOM      7  O   UNL     1       4.661   3.593  16.759  0.00  0.00    +0.000 OA
BRANCH   6   9
ATOM      8  C   UNL     1       3.202   2.024  18.379  0.00  0.00    +0.000 C 
ATOM      9  O   UNL     1       3.332   3.426  18.625  0.00  0.00    +0.000 OA
ENDBRANCH   6   9
ENDBRANCH   5   6
BRANCH   5  10
ATOM     10  C   UNL     1       3.164   5.959  19.215  0.00  0.00    +0.000 C 
BRANCH  10  11
ATOM     11  C   UNL     1       2.371   7.251  19.176  0.00  0.00    +0.000 A 
ATOM     12  C   UNL     1       1.806   7.760  20.356  0.00  0.00    +0.000 A 
ATOM     13  C   UNL     1       1.062   8.943  20.343  0.00  0.00    +0.000 A 
ATOM     14  C   UNL     1       0.888   9.631  19.148  0.00  0.00    +0.000 A 
ATOM     15  C   UNL     1       1.467   9.162  17.977  0.00  0.00    +0.000 A 
ATOM     16  C   UNL     1       2.216   7.987  17.992  0.00  0.00    +0.000 A 
BRANCH  14  17
ATOM     17  O   UNL     1       0.159  10.779  19.088  0.00  0.00    +0.000 OA
ATOM     18  H   UNL     1       0.769  11.518  18.923  0.00  0.00    +0.000 HD
ENDBRANCH  14  17
ENDBRANCH  10  11
ENDBRANCH   5  10
ENDBRANCH   1   5
BRANCH   2  19
ATOM     19  C   UNL     1       7.683   6.358  18.627  0.00  0.00    +0.000 C 
BRANCH  19  20
ATOM     20  C   UNL     1       7.762   7.166  17.326  0.00  0.00    +0.000 C 
BRANCH  20  21
ATOM     21  C   UNL     1       7.931   8.664  17.593  0.00  0.00    +0.000 C 
BRANCH  21  22
ATOM     22  C   UNL     1       8.863   8.948  18.772  0.00  0.00    +0.000 C 
BRANCH  22  23
ATOM     23  C   UNL     1       9.027  10.439  18.971  0.00  0.00    +0.000 A 
ATOM     24  C   UNL     1       8.807  11.324  17.892  0.00  0.00    +0.000 A 
ATOM     25  C   UNL     1       9.024  12.698  18.034  0.00  0.00    +0.000 A 
ATOM     26  C   UNL     1       9.468  13.155  19.254  0.00  0.00    +0.000 A 
ATOM     27  C   UNL     1       9.681  12.301  20.314  0.00  0.00    +0.000 A 
ATOM     28  C   UNL     1       9.466  10.943  20.205  0.00  0.00    +0.000 A 
ATOM     29  O   UNL     1      10.141  12.953  21.413  0.00  0.00    +0.000 OA
ATOM     30  C   UNL     1      10.231  14.301  20.919  0.00  0.00    +0.000 C 
ATOM     31  O   UNL     1       9.775  14.443  19.557  0.00  0.00    +0.000 OA
ENDBRANCH  22  23
ENDBRANCH  21  22
ENDBRANCH  20  21
ENDBRANCH  19  20
ENDBRANCH   2  19
TORSDOF 11
ENDMDL
