MODEL 1
REMARK VINA RESULT:      -8.7      0.000      0.000
REMARK  Name = 
REMARK  4 active torsions:
REMARK  status: ('A' for Active; 'I' for Inactive)
REMARK    1  A    between atoms: C_2  and  C_3
REMARK    2  A    between atoms: C_2  and  C_10
REMARK    3  A    between atoms: C_16  and  C_17
REMARK    4  A    between atoms: N_20  and  C_21
REMARK                            x       y       z     vdW  Elec       q    Type
REMARK                         _______ _______ _______ _____ _____    ______ ____
ROOT
ATOM      1  C   UNL     1       4.116   3.486  17.871  0.00  0.00    +0.000 A 
ATOM      2  C   UNL     1       3.848   2.138  18.073  0.00  0.00    +0.000 A 
ATOM      3  N   UNL     1       2.829   2.033  18.988  0.00  0.00    +0.000 N 
ATOM      4  C   UNL     1       2.449   3.275  19.407  0.00  0.00    +0.000 A 
ATOM      5  N   UNL     1       1.464   3.515  20.289  0.00  0.00    +0.000 NA
ATOM      6  C   UNL     1       1.286   4.844  20.525  0.00  0.00    +0.000 A 
ATOM      7  C   UNL     1       2.013   5.889  19.952  0.00  0.00    +0.000 A 
ATOM      8  C   UNL     1       3.023   5.558  19.044  0.00  0.00    +0.000 A 
ATOM      9  C   UNL     1       3.250   4.204  18.755  0.00  0.00    +0.000 A 
ATOM     10  H   UNL     1       2.396   1.180  19.315  0.00  0.00    +0.000 HD
ENDROOT
BRANCH   7  11
ATOM     11  C   UNL     1       1.712   7.272  20.254  0.00  0.00    +0.000 A 
ATOM     12  C   UNL     1       1.437   7.911  21.479  0.00  0.00    +0.000 A 
ATOM     13  N   UNL     1       1.178   9.209  21.331  0.00  0.00    +0.000 NA
ATOM     14  N   UNL     1       1.269   9.414  20.005  0.00  0.00    +0.000 N 
ATOM     15  C   UNL     1       1.608   8.280  19.320  0.00  0.00    +0.000 A 
BRANCH  14  16
ATOM     16  C   UNL     1       0.998  10.727  19.423  0.00  0.00    +0.000 C 
ATOM     17  C   UNL     1       0.580  11.771  20.465  0.00  0.00    +0.000 C 
ATOM     18  C   UNL     1      -0.885  11.630  20.876  0.00  0.00    +0.000 C 
ATOM     19  N   UNL     1      -1.784  11.635  19.719  0.00  0.00    +0.000 NA
ATOM     20  C   UNL     1      -1.455  10.559  18.777  0.00  0.00    +0.000 C 
ATOM     21  C   UNL     1      -0.016  10.664  18.275  0.00  0.00    +0.000 C 
ATOM     22  H   UNL     1      -1.731  12.533  19.246  0.00  0.00    +0.000 HD
ENDBRANCH  14  16
ENDBRANCH   7  11
BRANCH   1  24
ATOM     23  O   UNL     1       5.194   3.659  15.801  0.00  0.00    +0.000 OA
ATOM     24  C   UNL     1       5.076   4.090  16.943  0.00  0.00    +0.000 C 
BRANCH  24  25
ATOM     25  C   UNL     1       6.010   5.150  17.433  0.00  0.00    +0.000 A 
ATOM     26  C   UNL     1       6.925   4.836  18.458  0.00  0.00    +0.000 A 
ATOM     27  C   UNL     1       7.852   5.775  18.908  0.00  0.00    +0.000 A 
ATOM     28  C   UNL     1       7.909   7.030  18.315  0.00  0.00    +0.000 A 
ATOM     29  C   UNL     1       7.028   7.350  17.283  0.00  0.00    +0.000 A 
ATOM     30  C   UNL     1       6.072   6.422  16.844  0.00  0.00    +0.000 A 
ATOM     31 CL   UNL     1       5.000   6.963  15.601  0.00  0.00    +0.000 Cl
ENDBRANCH  24  25
ENDBRANCH   1  24
TORSDOF 4
ENDMDL
MODEL 2
REMARK VINA RESULT:      -8.6      4.050      8.854
REMARK  Name = 
REMARK  4 active torsions:
REMARK  status: ('A' for Active; 'I' for Inactive)
REMARK    1  A    between atoms: C_2  and  C_3
REMARK    2  A    between atoms: C_2  and  C_10
REMARK    3  A    between atoms: C_16  and  C_17
REMARK    4  A    between atoms: N_20  and  C_21
REMARK                            x       y       z     vdW  Elec       q    Type
REMARK                         _______ _______ _______ _____ _____    ______ ____
ROOT
ATOM      1  C   UNL     1      -1.246  11.999  20.796  0.00  0.00    +0.000 A 
ATOM      2  C   UNL     1      -1.665  12.542  22.003  0.00  0.00    +0.000 A 
ATOM      3  N   UNL     1      -1.163  11.770  23.022  0.00  0.00    +0.000 N 
ATOM      4  C   UNL     1      -0.455  10.723  22.506  0.00  0.00    +0.000 A 
ATOM      5  N   UNL     1       0.177   9.792  23.243  0.00  0.00    +0.000 NA
ATOM      6  C   UNL     1       0.814   8.865  22.477  0.00  0.00    +0.000 A 
ATOM      7  C   UNL     1       0.844   8.824  21.082  0.00  0.00    +0.000 A 
ATOM      8  C   UNL     1       0.162   9.827  20.387  0.00  0.00    +0.000 A 
ATOM      9  C   UNL     1      -0.510  10.816  21.122  0.00  0.00    +0.000 A 
ATOM     10  H   UNL     1      -1.274  11.931  24.014  0.00  0.00    +0.000 HD
ENDROOT
BRANCH   7  11
ATOM     11  C   UNL     1       1.586   7.804  20.372  0.00  0.00    +0.000 A 
ATOM     12  C   UNL     1       2.203   7.825  19.106  0.00  0.00    +0.000 A 
ATOM     13  N   UNL     1       2.769   6.660  18.795  0.00  0.00    +0.000 NA
ATOM     14  N   UNL     1       2.506   5.873  19.853  0.00  0.00    +0.000 N 
ATOM     15  C   UNL     1       1.813   6.526  20.835  0.00  0.00    +0.000 A 
BRANCH  14  16
ATOM     16  C   UNL     1       2.923   4.473  19.875  0.00  0.00    +0.000 C 
ATOM     17  C   UNL     1       3.378   3.960  18.504  0.00  0.00    +0.000 C 
ATOM     18  C   UNL     1       2.202   3.614  17.592  0.00  0.00    +0.000 C 
ATOM     19  N   UNL     1       1.265   2.685  18.230  0.00  0.00    +0.000 NA
ATOM     20  C   UNL     1       0.740   3.229  19.487  0.00  0.00    +0.000 C 
ATOM     21  C   UNL     1       1.858   3.550  20.478  0.00  0.00    +0.000 C 
ATOM     22  H   UNL     1       1.728   1.798  18.407  0.00  0.00    +0.000 HD
ENDBRANCH  14  16
ENDBRANCH   7  11
BRANCH   1  24
ATOM     23  O   UNL     1      -1.092  13.628  19.122  0.00  0.00    +0.000 OA
ATOM     24  C   UNL     1      -1.480  12.509  19.442  0.00  0.00    +0.000 C 
BRANCH  24  25
ATOM     25  C   UNL     1      -2.313  11.715  18.487  0.00  0.00    +0.000 A 
ATOM     26  C   UNL     1      -1.672  10.914  17.521  0.00  0.00    +0.000 A 
ATOM     27  C   UNL     1      -2.406  10.113  16.647  0.00  0.00    +0.000 A 
ATOM     28  C   UNL     1      -3.790  10.067  16.749  0.00  0.00    +0.000 A 
ATOM     29  C   UNL     1      -4.440  10.833  17.715  0.00  0.00    +0.000 A 
ATOM     30  C   UNL     1      -3.712  11.664  18.580  0.00  0.00    +0.000 A 
ATOM     31 CL   UNL     1      -4.641  12.609  19.690  0.00  0.00    +0.000 Cl
ENDBRANCH  24  25
ENDBRANCH   1  24
TORSDOF 4
ENDMDL
MODEL 3
REMARK VINA RESULT:      -8.6      3.669      9.112
REMARK  Name = 
REMARK  4 active torsions:
REMARK  status: ('A' for Active; 'I' for Inactive)
REMARK    1  A    between atoms: C_2  and  C_3
REMARK    2  A    between atoms: C_2  and  C_10
REMARK    3  A    between atoms: C_16  and  C_17
REMARK    4  A    between atoms: N_20  and  C_21
REMARK                            x       y       z     vdW  Elec       q    Type
REMARK                         _______ _______ _______ _____ _____    ______ ____
ROOT
ATOM      1  C   UNL     1      -1.454  11.968  20.841  0.00  0.00    +0.000 A 
ATOM      2  C   UNL     1      -1.790  12.523  22.069  0.00  0.00    +0.000 A 
ATOM      3  N   UNL     1      -1.138  11.822  23.054  0.00  0.00    +0.000 N 
ATOM      4  C   UNL     1      -0.411  10.808  22.499  0.00  0.00    +0.000 A 
ATOM      5  N   UNL     1       0.355   9.949  23.194  0.00  0.00    +0.000 NA
ATOM      6  C   UNL     1       0.979   9.041  22.395  0.00  0.00    +0.000 A 
ATOM      7  C   UNL     1       0.875   8.954  21.006  0.00  0.00    +0.000 A 
ATOM      8  C   UNL     1       0.059   9.884  20.355  0.00  0.00    +0.000 A 
ATOM      9  C   UNL     1      -0.607  10.850  21.125  0.00  0.00    +0.000 A 
ATOM     10  H   UNL     1      -1.163  12.009  24.047  0.00  0.00    +0.000 HD
ENDROOT
BRANCH   7  11
ATOM     11  C   UNL     1       1.615   7.963  20.253  0.00  0.00    +0.000 A 
ATOM     12  C   UNL     1       2.182   8.017  18.965  0.00  0.00    +0.000 A 
ATOM     13  N   UNL     1       2.764   6.871  18.616  0.00  0.00    +0.000 NA
ATOM     14  N   UNL     1       2.563   6.064  19.672  0.00  0.00    +0.000 N 
ATOM     15  C   UNL     1       1.892   6.686  20.689  0.00  0.00    +0.000 A 
BRANCH  14  16
ATOM     16  C   UNL     1       3.016   4.674  19.659  0.00  0.00    +0.000 C 
ATOM     17  C   UNL     1       3.243   4.131  18.244  0.00  0.00    +0.000 C 
ATOM     18  C   UNL     1       1.937   3.730  17.558  0.00  0.00    +0.000 C 
ATOM     19  N   UNL     1       1.150   2.800  18.372  0.00  0.00    +0.000 NA
ATOM     20  C   UNL     1       0.834   3.371  19.686  0.00  0.00    +0.000 C 
ATOM     21  C   UNL     1       2.096   3.747  20.461  0.00  0.00    +0.000 C 
ATOM     22  H   UNL     1       1.661   1.929  18.490  0.00  0.00    +0.000 HD
ENDBRANCH  14  16
ENDBRANCH   7  11
BRANCH   1  24
ATOM     23  O   UNL     1      -1.182  13.240  18.895  0.00  0.00    +0.000 OA
ATOM     24  C   UNL     1      -1.854  12.414  19.504  0.00  0.00    +0.000 C 
BRANCH  24  25
ATOM     25  C   UNL     1      -3.160  11.961  18.935  0.00  0.00    +0.000 A 
ATOM     26  C   UNL     1      -4.356  12.494  19.456  0.00  0.00    +0.000 A 
ATOM     27  C   UNL     1      -5.595  12.143  18.920  0.00  0.00    +0.000 A 
ATOM     28  C   UNL     1      -5.659  11.286  17.829  0.00  0.00    +0.000 A 
ATOM     29  C   UNL     1      -4.484  10.768  17.285  0.00  0.00    +0.000 A 
ATOM     30  C   UNL     1      -3.236  11.092  17.836  0.00  0.00    +0.000 A 
ATOM     31 CL   UNL     1      -1.862  10.335  17.108  0.00  0.00    +0.000 Cl
ENDBRANCH  24  25
ENDBRANCH   1  24
TORSDOF 4
ENDMDL
MODEL 4
REMARK VINA RESULT:      -8.5      1.135      1.538
REMARK  Name = 
REMARK  4 active torsions:
REMARK  status: ('A' for Active; 'I' for Inactive)
REMARK    1  A    between atoms: C_2  and  C_3
REMARK    2  A    between atoms: C_2  and  C_10
REMARK    3  A    between atoms: C_16  and  C_17
REMARK    4  A    between atoms: N_20  and  C_21
REMARK                            x       y       z     vdW  Elec       q    Type
REMARK                         _______ _______ _______ _____ _____    ______ ____
ROOT
ATOM      1  C   UNL     1       4.407   4.002  18.763  0.00  0.00    +0.000 A 
ATOM      2  C   UNL     1       4.191   2.796  19.417  0.00  0.00    +0.000 A 
ATOM      3  N   UNL     1       3.125   2.952  20.269  0.00  0.00    +0.000 N 
ATOM      4  C   UNL     1       2.662   4.234  20.206  0.00  0.00    +0.000 A 
ATOM      5  N   UNL     1       1.615   4.703  20.906  0.00  0.00    +0.000 NA
ATOM      6  C   UNL     1       1.360   6.015  20.650  0.00  0.00    +0.000 A 
ATOM      7  C   UNL     1       2.070   6.839  19.774  0.00  0.00    +0.000 A 
ATOM      8  C   UNL     1       3.147   6.277  19.082  0.00  0.00    +0.000 A 
ATOM      9  C   UNL     1       3.455   4.926  19.300  0.00  0.00    +0.000 A 
ATOM     10  H   UNL     1       2.714   2.241  20.859  0.00  0.00    +0.000 HD
ENDROOT
BRANCH   7  11
ATOM     11  C   UNL     1       1.686   8.217  19.555  0.00  0.00    +0.000 A 
ATOM     12  C   UNL     1       1.812   9.040  18.418  0.00  0.00    +0.000 A 
ATOM     13  N   UNL     1       1.357  10.274  18.630  0.00  0.00    +0.000 NA
ATOM     14  N   UNL     1       0.949  10.260  19.911  0.00  0.00    +0.000 N 
ATOM     15  C   UNL     1       1.110   9.037  20.501  0.00  0.00    +0.000 A 
BRANCH  14  16
ATOM     16  C   UNL     1       0.423  11.465  20.549  0.00  0.00    +0.000 C 
ATOM     17  C   UNL     1      -1.101  11.445  20.706  0.00  0.00    +0.000 C 
ATOM     18  C   UNL     1      -1.825  11.795  19.406  0.00  0.00    +0.000 C 
ATOM     19  N   UNL     1      -1.360  13.064  18.842  0.00  0.00    +0.000 NA
ATOM     20  C   UNL     1       0.084  13.040  18.583  0.00  0.00    +0.000 C 
ATOM     21  C   UNL     1       0.884  12.750  19.851  0.00  0.00    +0.000 C 
ATOM     22  H   UNL     1      -1.581  13.825  19.477  0.00  0.00    +0.000 HD
ENDBRANCH  14  16
ENDBRANCH   7  11
BRANCH   1  24
ATOM     23  O   UNL     1       5.565   3.530  16.784  0.00  0.00    +0.000 OA
ATOM     24  C   UNL     1       5.391   4.304  17.720  0.00  0.00    +0.000 C 
BRANCH  24  25
ATOM     25  C   UNL     1       6.281   5.496  17.868  0.00  0.00    +0.000 A 
ATOM     26  C   UNL     1       7.296   5.475  18.845  0.00  0.00    +0.000 A 
ATOM     27  C   UNL     1       8.186   6.541  18.983  0.00  0.00    +0.000 A 
ATOM     28  C   UNL     1       8.103   7.626  18.120  0.00  0.00    +0.000 A 
ATOM     29  C   UNL     1       7.121   7.652  17.131  0.00  0.00    +0.000 A 
ATOM     30  C   UNL     1       6.204   6.599  17.004  0.00  0.00    +0.000 A 
ATOM     31 CL   UNL     1       4.998   6.782  15.779  0.00  0.00    +0.000 Cl
ENDBRANCH  24  25
ENDBRANCH   1  24
TORSDOF 4
ENDMDL
MODEL 5
REMARK VINA RESULT:      -8.5      3.568      8.758
REMARK  Name = 
REMARK  4 active torsions:
REMARK  status: ('A' for Active; 'I' for Inactive)
REMARK    1  A    between atoms: C_2  and  C_3
REMARK    2  A    between atoms: C_2  and  C_10
REMARK    3  A    between atoms: C_16  and  C_17
REMARK    4  A    between atoms: N_20  and  C_21
REMARK                            x       y       z     vdW  Elec       q    Type
REMARK                         _______ _______ _______ _____ _____    ______ ____
ROOT
ATOM      1  C   UNL     1      -0.860  11.928  20.405  0.00  0.00    +0.000 A 
ATOM      2  C   UNL     1      -1.181  12.627  21.562  0.00  0.00    +0.000 A 
ATOM      3  N   UNL     1      -0.688  11.930  22.639  0.00  0.00    +0.000 N 
ATOM      4  C   UNL     1      -0.082  10.784  22.212  0.00  0.00    +0.000 A 
ATOM      5  N   UNL     1       0.517   9.891  23.020  0.00  0.00    +0.000 NA
ATOM      6  C   UNL     1       1.049   8.842  22.335  0.00  0.00    +0.000 A 
ATOM      7  C   UNL     1       1.009   8.652  20.953  0.00  0.00    +0.000 A 
ATOM      8  C   UNL     1       0.368   9.625  20.180  0.00  0.00    +0.000 A 
ATOM      9  C   UNL     1      -0.196  10.734  20.829  0.00  0.00    +0.000 A 
ATOM     10  H   UNL     1      -0.740  12.203  23.610  0.00  0.00    +0.000 HD
ENDROOT
BRANCH   7  11
ATOM     11  C   UNL     1       1.642   7.509  20.329  0.00  0.00    +0.000 A 
ATOM     12  C   UNL     1       1.728   6.164  20.739  0.00  0.00    +0.000 A 
ATOM     13  N   UNL     1       2.431   5.416  19.890  0.00  0.00    +0.000 NA
ATOM     14  N   UNL     1       2.818   6.279  18.934  0.00  0.00    +0.000 N 
ATOM     15  C   UNL     1       2.349   7.545  19.147  0.00  0.00    +0.000 A 
BRANCH  14  16
ATOM     16  C   UNL     1       3.668   5.846  17.826  0.00  0.00    +0.000 C 
ATOM     17  C   UNL     1       3.523   4.355  17.505  0.00  0.00    +0.000 C 
ATOM     18  C   UNL     1       4.306   3.471  18.475  0.00  0.00    +0.000 C 
ATOM     19  N   UNL     1       5.713   3.867  18.567  0.00  0.00    +0.000 NA
ATOM     20  C   UNL     1       5.853   5.265  18.989  0.00  0.00    +0.000 C 
ATOM     21  C   UNL     1       5.140   6.221  18.034  0.00  0.00    +0.000 C 
ATOM     22  H   UNL     1       6.168   3.733  17.667  0.00  0.00    +0.000 HD
ENDBRANCH  14  16
ENDBRANCH   7  11
BRANCH   1  24
ATOM     23  O   UNL     1      -0.633  13.333  18.547  0.00  0.00    +0.000 OA
ATOM     24  C   UNL     1      -1.121  12.309  19.014  0.00  0.00    +0.000 C 
BRANCH  24  25
ATOM     25  C   UNL     1      -2.095  11.517  18.202  0.00  0.00    +0.000 A 
ATOM     26  C   UNL     1      -1.607  10.637  17.216  0.00  0.00    +0.000 A 
ATOM     27  C   UNL     1      -2.474   9.836  16.473  0.00  0.00    +0.000 A 
ATOM     28  C   UNL     1      -3.838   9.870  16.730  0.00  0.00    +0.000 A 
ATOM     29  C   UNL     1      -4.336  10.716  17.719  0.00  0.00    +0.000 A 
ATOM     30  C   UNL     1      -3.475  11.547  18.452  0.00  0.00    +0.000 A 
ATOM     31 CL   UNL     1      -4.225  12.594  19.605  0.00  0.00    +0.000 Cl
ENDBRANCH  24  25
ENDBRANCH   1  24
TORSDOF 4
ENDMDL
MODEL 6
REMARK VINA RESULT:      -8.4      3.286      9.001
REMARK  Name = 
REMARK  4 active torsions:
REMARK  status: ('A' for Active; 'I' for Inactive)
REMARK    1  A    between atoms: C_2  and  C_3
REMARK    2  A    between atoms: C_2  and  C_10
REMARK    3  A    between atoms: C_16  and  C_17
REMARK    4  A    between atoms: N_20  and  C_21
REMARK                            x       y       z     vdW  Elec       q    Type
REMARK                         _______ _______ _______ _____ _____    ______ ____
ROOT
ATOM      1  C   UNL     1      -1.124  11.745  20.471  0.00  0.00    +0.000 A 
ATOM      2  C   UNL     1      -1.361  12.482  21.624  0.00  0.00    +0.000 A 
ATOM      3  N   UNL     1      -0.713  11.869  22.669  0.00  0.00    +0.000 N 
ATOM      4  C   UNL     1      -0.085  10.740  22.229  0.00  0.00    +0.000 A 
ATOM      5  N   UNL     1       0.651   9.925  23.004  0.00  0.00    +0.000 NA
ATOM      6  C   UNL     1       1.171   8.875  22.312  0.00  0.00    +0.000 A 
ATOM      7  C   UNL     1       0.995   8.613  20.952  0.00  0.00    +0.000 A 
ATOM      8  C   UNL     1       0.215   9.508  20.213  0.00  0.00    +0.000 A 
ATOM      9  C   UNL     1      -0.344  10.614  20.871  0.00  0.00    +0.000 A 
ATOM     10  H   UNL     1      -0.677  12.187  23.628  0.00  0.00    +0.000 HD
ENDROOT
BRANCH   7  11
ATOM     11  C   UNL     1       1.627   7.479  20.313  0.00  0.00    +0.000 A 
ATOM     12  C   UNL     1       1.694   6.124  20.693  0.00  0.00    +0.000 A 
ATOM     13  N   UNL     1       2.404   5.389  19.839  0.00  0.00    +0.000 NA
ATOM     14  N   UNL     1       2.814   6.268  18.909  0.00  0.00    +0.000 N 
ATOM     15  C   UNL     1       2.353   7.534  19.143  0.00  0.00    +0.000 A 
BRANCH  14  16
ATOM     16  C   UNL     1       3.678   5.853  17.805  0.00  0.00    +0.000 C 
ATOM     17  C   UNL     1       3.555   4.361  17.476  0.00  0.00    +0.000 C 
ATOM     18  C   UNL     1       4.342   3.483  18.447  0.00  0.00    +0.000 C 
ATOM     19  N   UNL     1       5.744   3.897  18.551  0.00  0.00    +0.000 NA
ATOM     20  C   UNL     1       5.861   5.294  18.981  0.00  0.00    +0.000 C 
ATOM     21  C   UNL     1       5.143   6.245  18.025  0.00  0.00    +0.000 C 
ATOM     22  H   UNL     1       6.206   3.774  17.654  0.00  0.00    +0.000 HD
ENDBRANCH  14  16
ENDBRANCH   7  11
BRANCH   1  24
ATOM     23  O   UNL     1      -0.831  12.674  18.342  0.00  0.00    +0.000 OA
ATOM     24  C   UNL     1      -1.556  12.040  19.102  0.00  0.00    +0.000 C 
BRANCH  24  25
ATOM     25  C   UNL     1      -2.943  11.682  18.673  0.00  0.00    +0.000 A 
ATOM     26  C   UNL     1      -4.037  12.331  19.281  0.00  0.00    +0.000 A 
ATOM     27  C   UNL     1      -5.345  12.071  18.874  0.00  0.00    +0.000 A 
ATOM     28  C   UNL     1      -5.582  11.189  17.828  0.00  0.00    +0.000 A 
ATOM     29  C   UNL     1      -4.511  10.557  17.198  0.00  0.00    +0.000 A 
ATOM     30  C   UNL     1      -3.193  10.790  17.619  0.00  0.00    +0.000 A 
ATOM     31 CL   UNL     1      -1.962   9.897  16.799  0.00  0.00    +0.000 Cl
ENDBRANCH  24  25
ENDBRANCH   1  24
TORSDOF 4
ENDMDL
MODEL 7
REMARK VINA RESULT:      -8.4      3.757      8.887
REMARK  Name = 
REMARK  4 active torsions:
REMARK  status: ('A' for Active; 'I' for Inactive)
REMARK    1  A    between atoms: C_2  and  C_3
REMARK    2  A    between atoms: C_2  and  C_10
REMARK    3  A    between atoms: C_16  and  C_17
REMARK    4  A    between atoms: N_20  and  C_21
REMARK                            x       y       z     vdW  Elec       q    Type
REMARK                         _______ _______ _______ _____ _____    ______ ____
ROOT
ATOM      1  C   UNL     1      -0.948  11.547  20.594  0.00  0.00    +0.000 A 
ATOM      2  C   UNL     1      -1.341  11.727  21.914  0.00  0.00    +0.000 A 
ATOM      3  N   UNL     1      -0.727  10.769  22.683  0.00  0.00    +0.000 N 
ATOM      4  C   UNL     1       0.032   9.955  21.893  0.00  0.00    +0.000 A 
ATOM      5  N   UNL     1       0.773   8.928  22.344  0.00  0.00    +0.000 NA
ATOM      6  C   UNL     1       1.438   8.285  21.346  0.00  0.00    +0.000 A 
ATOM      7  C   UNL     1       1.395   8.602  19.987  0.00  0.00    +0.000 A 
ATOM      8  C   UNL     1       0.601   9.684  19.596  0.00  0.00    +0.000 A 
ATOM      9  C   UNL     1      -0.105  10.390  20.582  0.00  0.00    +0.000 A 
ATOM     10  H   UNL     1      -0.796  10.663  23.686  0.00  0.00    +0.000 HD
ENDROOT
BRANCH   7  11
ATOM     11  C   UNL     1       2.174   7.865  19.015  0.00  0.00    +0.000 A 
ATOM     12  C   UNL     1       2.897   8.304  17.889  0.00  0.00    +0.000 A 
ATOM     13  N   UNL     1       3.464   7.299  17.223  0.00  0.00    +0.000 NA
ATOM     14  N   UNL     1       3.096   6.202  17.907  0.00  0.00    +0.000 N 
ATOM     15  C   UNL     1       2.336   6.497  19.005  0.00  0.00    +0.000 A 
BRANCH  14  16
ATOM     16  C   UNL     1       3.483   4.866  17.457  0.00  0.00    +0.000 C 
ATOM     17  C   UNL     1       3.509   3.834  18.590  0.00  0.00    +0.000 C 
ATOM     18  C   UNL     1       4.775   3.934  19.440  0.00  0.00    +0.000 C 
ATOM     19  N   UNL     1       5.991   3.869  18.626  0.00  0.00    +0.000 NA
ATOM     20  C   UNL     1       6.019   4.932  17.616  0.00  0.00    +0.000 C 
ATOM     21  C   UNL     1       4.808   4.866  16.686  0.00  0.00    +0.000 C 
ATOM     22  H   UNL     1       6.052   2.962  18.172  0.00  0.00    +0.000 HD
ENDBRANCH  14  16
ENDBRANCH   7  11
BRANCH   1  24
ATOM     23  O   UNL     1      -0.843  13.495  19.301  0.00  0.00    +0.000 OA
ATOM     24  C   UNL     1      -1.294  12.361  19.425  0.00  0.00    +0.000 C 
BRANCH  24  25
ATOM     25  C   UNL     1      -2.307  11.856  18.449  0.00  0.00    +0.000 A 
ATOM     26  C   UNL     1      -1.865  11.223  17.270  0.00  0.00    +0.000 A 
ATOM     27  C   UNL     1      -2.772  10.686  16.356  0.00  0.00    +0.000 A 
ATOM     28  C   UNL     1      -4.135  10.738  16.624  0.00  0.00    +0.000 A 
ATOM     29  C   UNL     1      -4.588  11.338  17.797  0.00  0.00    +0.000 A 
ATOM     30  C   UNL     1      -3.685  11.906  18.708  0.00  0.00    +0.000 A 
ATOM     31 CL   UNL     1      -4.379  12.675  20.091  0.00  0.00    +0.000 Cl
ENDBRANCH  24  25
ENDBRANCH   1  24
TORSDOF 4
ENDMDL
MODEL 8
REMARK VINA RESULT:      -8.3      3.407      9.006
REMARK  Name = 
REMARK  4 active torsions:
REMARK  status: ('A' for Active; 'I' for Inactive)
REMARK    1  A    between atoms: C_2  and  C_3
REMARK    2  A    between atoms: C_2  and  C_10
REMARK    3  A    between atoms: C_16  and  C_17
REMARK    4  A    between atoms: N_20  and  C_21
REMARK                            x       y       z     vdW  Elec       q    Type
REMARK                         _______ _______ _______ _____ _____    ______ ____
ROOT
ATOM      1  C   UNL     1      -1.093  11.433  20.679  0.00  0.00    +0.000 A 
ATOM      2  C   UNL     1      -1.397  11.685  22.010  0.00  0.00    +0.000 A 
ATOM      3  N   UNL     1      -0.665  10.824  22.791  0.00  0.00    +0.000 N 
ATOM      4  C   UNL     1       0.084  10.002  22.000  0.00  0.00    +0.000 A 
ATOM      5  N   UNL     1       0.923   9.057  22.460  0.00  0.00    +0.000 NA
ATOM      6  C   UNL     1       1.552   8.385  21.457  0.00  0.00    +0.000 A 
ATOM      7  C   UNL     1       1.387   8.599  20.088  0.00  0.00    +0.000 A 
ATOM      8  C   UNL     1       0.495   9.600  19.689  0.00  0.00    +0.000 A 
ATOM      9  C   UNL     1      -0.179  10.332  20.678  0.00  0.00    +0.000 A 
ATOM     10  H   UNL     1      -0.651  10.788  23.801  0.00  0.00    +0.000 HD
ENDROOT
BRANCH   7  11
ATOM     11  C   UNL     1       2.137   7.842  19.109  0.00  0.00    +0.000 A 
ATOM     12  C   UNL     1       2.859   8.262  17.974  0.00  0.00    +0.000 A 
ATOM     13  N   UNL     1       3.394   7.242  17.304  0.00  0.00    +0.000 NA
ATOM     14  N   UNL     1       3.006   6.155  17.994  0.00  0.00    +0.000 N 
ATOM     15  C   UNL     1       2.265   6.471  19.099  0.00  0.00    +0.000 A 
BRANCH  14  16
ATOM     16  C   UNL     1       3.355   4.810  17.542  0.00  0.00    +0.000 C 
ATOM     17  C   UNL     1       3.182   3.746  18.632  0.00  0.00    +0.000 C 
ATOM     18  C   UNL     1       4.346   3.734  19.623  0.00  0.00    +0.000 C 
ATOM     19  N   UNL     1       5.641   3.609  18.951  0.00  0.00    +0.000 NA
ATOM     20  C   UNL     1       5.855   4.697  17.990  0.00  0.00    +0.000 C 
ATOM     21  C   UNL     1       4.758   4.741  16.927  0.00  0.00    +0.000 C 
ATOM     22  H   UNL     1       5.696   2.714  18.473  0.00  0.00    +0.000 HD
ENDBRANCH  14  16
ENDBRANCH   7  11
BRANCH   1  24
ATOM     23  O   UNL     1      -0.925  13.051  18.996  0.00  0.00    +0.000 OA
ATOM     24  C   UNL     1      -1.578  12.138  19.489  0.00  0.00    +0.000 C 
BRANCH  24  25
ATOM     25  C   UNL     1      -2.940  11.831  18.954  0.00  0.00    +0.000 A 
ATOM     26  C   UNL     1      -4.062  12.448  19.543  0.00  0.00    +0.000 A 
ATOM     27  C   UNL     1      -5.347  12.235  19.042  0.00  0.00    +0.000 A 
ATOM     28  C   UNL     1      -5.528  11.436  17.921  0.00  0.00    +0.000 A 
ATOM     29  C   UNL     1      -4.427  10.838  17.310  0.00  0.00    +0.000 A 
ATOM     30  C   UNL     1      -3.135  11.022  17.824  0.00  0.00    +0.000 A 
ATOM     31 CL   UNL     1      -1.865  10.176  17.013  0.00  0.00    +0.000 Cl
ENDBRANCH  24  25
ENDBRANCH   1  24
TORSDOF 4
ENDMDL
MODEL 9
REMARK VINA RESULT:      -8.1      2.606      4.218
REMARK  Name = 
REMARK  4 active torsions:
REMARK  status: ('A' for Active; 'I' for Inactive)
REMARK    1  A    between atoms: C_2  and  C_3
REMARK    2  A    between atoms: C_2  and  C_10
REMARK    3  A    between atoms: C_16  and  C_17
REMARK    4  A    between atoms: N_20  and  C_21
REMARK                            x       y       z     vdW  Elec       q    Type
REMARK                         _______ _______ _______ _____ _____    ______ ____
ROOT
ATOM      1  C   UNL     1       4.358   3.522  17.132  0.00  0.00    +0.000 A 
ATOM      2  C   UNL     1       5.397   3.400  16.219  0.00  0.00    +0.000 A 
ATOM      3  N   UNL     1       5.791   4.661  15.843  0.00  0.00    +0.000 N 
ATOM      4  C   UNL     1       5.016   5.596  16.465  0.00  0.00    +0.000 A 
ATOM      5  N   UNL     1       5.160   6.925  16.321  0.00  0.00    +0.000 NA
ATOM      6  C   UNL     1       4.262   7.631  17.061  0.00  0.00    +0.000 A 
ATOM      7  C   UNL     1       3.275   7.097  17.892  0.00  0.00    +0.000 A 
ATOM      8  C   UNL     1       3.189   5.705  17.989  0.00  0.00    +0.000 A 
ATOM      9  C   UNL     1       4.093   4.923  17.253  0.00  0.00    +0.000 A 
ATOM     10  H   UNL     1       6.545   4.895  15.211  0.00  0.00    +0.000 HD
ENDROOT
BRANCH   7  11
ATOM     11  C   UNL     1       2.393   7.949  18.661  0.00  0.00    +0.000 A 
ATOM     12  C   UNL     1       1.876   7.807  19.963  0.00  0.00    +0.000 A 
ATOM     13  N   UNL     1       1.064   8.807  20.303  0.00  0.00    +0.000 NA
ATOM     14  N   UNL     1       1.039   9.595  19.213  0.00  0.00    +0.000 N 
ATOM     15  C   UNL     1       1.840   9.128  18.208  0.00  0.00    +0.000 A 
BRANCH  14  16
ATOM     16  C   UNL     1       0.205  10.794  19.168  0.00  0.00    +0.000 C 
ATOM     17  C   UNL     1       1.016  12.082  18.985  0.00  0.00    +0.000 C 
ATOM     18  C   UNL     1       1.658  12.557  20.287  0.00  0.00    +0.000 C 
ATOM     19  N   UNL     1       0.679  12.687  21.369  0.00  0.00    +0.000 NA
ATOM     20  C   UNL     1      -0.014  11.419  21.622  0.00  0.00    +0.000 C 
ATOM     21  C   UNL     1      -0.732  10.905  20.376  0.00  0.00    +0.000 C 
ATOM     22  H   UNL     1       0.001  13.407  21.135  0.00  0.00    +0.000 HD
ENDBRANCH  14  16
ENDBRANCH   7  11
BRANCH   1  24
ATOM     23  O   UNL     1       3.620   1.318  17.404  0.00  0.00    +0.000 OA
ATOM     24  C   UNL     1       3.656   2.458  17.856  0.00  0.00    +0.000 C 
BRANCH  24  25
ATOM     25  C   UNL     1       2.870   2.793  19.082  0.00  0.00    +0.000 A 
ATOM     26  C   UNL     1       1.557   3.284  18.940  0.00  0.00    +0.000 A 
ATOM     27  C   UNL     1       0.765   3.558  20.055  0.00  0.00    +0.000 A 
ATOM     28  C   UNL     1       1.256   3.307  21.330  0.00  0.00    +0.000 A 
ATOM     29  C   UNL     1       2.544   2.797  21.489  0.00  0.00    +0.000 A 
ATOM     30  C   UNL     1       3.358   2.547  20.374  0.00  0.00    +0.000 A 
ATOM     31 CL   UNL     1       4.955   1.975  20.709  0.00  0.00    +0.000 Cl
ENDBRANCH  24  25
ENDBRANCH   1  24
TORSDOF 4
ENDMDL
