MODEL 1
REMARK VINA RESULT:      -7.7      0.000      0.000
REMARK  Name = 
REMARK  4 active torsions:
REMARK  status: ('A' for Active; 'I' for Inactive)
REMARK    1  A    between atoms: C_4  and  N_5
REMARK    2  A    between atoms: N_5  and  C_6
REMARK    3  A    between atoms: C_6  and  C_7
REMARK    4  A    between atoms: C_7  and  C_8
REMARK                            x       y       z     vdW  Elec       q    Type
REMARK                         _______ _______ _______ _____ _____    ______ ____
ROOT
ATOM      1  N   UNL     1       5.183   3.778  17.124  0.00  0.00    +0.000 N 
ATOM      2  H   UNL     1       5.171   3.656  16.113  0.00  0.00    +0.000 HD
ENDROOT
BRANCH   1   6
ATOM      3  O   UNL     1       7.710   7.771  16.801  0.00  0.00    +0.000 OA
ATOM      4  C   UNL     1       7.369   6.787  17.448  0.00  0.00    +0.000 A 
ATOM      5  C   UNL     1       6.410   5.809  16.894  0.00  0.00    +0.000 A 
ATOM      6  C   UNL     1       6.062   4.725  17.607  0.00  0.00    +0.000 A 
ATOM      7  N   UNL     1       6.617   4.577  18.848  0.00  0.00    +0.000 N 
ATOM      8  C   UNL     1       7.496   5.436  19.435  0.00  0.00    +0.000 A 
ATOM      9  O   UNL     1       7.945   5.233  20.558  0.00  0.00    +0.000 OA
ATOM     10  N   UNL     1       7.842   6.525  18.699  0.00  0.00    +0.000 N 
ATOM     11  H   UNL     1       6.366   3.776  19.408  0.00  0.00    +0.000 HD
ATOM     12  H   UNL     1       8.497   7.172  19.106  0.00  0.00    +0.000 HD
ENDBRANCH   1   6
BRANCH   1  13
ATOM     13  C   UNL     1       4.098   3.172  17.882  0.00  0.00    +0.000 C 
BRANCH  13  14
ATOM     14  C   UNL     1       2.739   3.803  17.575  0.00  0.00    +0.000 C 
BRANCH  14  15
ATOM     15  C   UNL     1       2.443   4.936  18.540  0.00  0.00    +0.000 A 
ATOM     16  C   UNL     1       2.696   6.257  18.130  0.00  0.00    +0.000 A 
ATOM     17  C   UNL     1       2.396   7.335  18.967  0.00  0.00    +0.000 A 
ATOM     18  C   UNL     1       1.840   7.104  20.221  0.00  0.00    +0.000 A 
ATOM     19 CL   UNL     1       1.472   8.433  21.251  0.00  0.00    +0.000 Cl
ATOM     20  C   UNL     1       1.573   5.806  20.645  0.00  0.00    +0.000 A 
ATOM     21  C   UNL     1       1.870   4.727  19.807  0.00  0.00    +0.000 A 
ATOM     22 CL   UNL     1       1.483   3.144  20.381  0.00  0.00    +0.000 Cl
ENDBRANCH  14  15
ENDBRANCH  13  14
ENDBRANCH   1  13
TORSDOF 4
ENDMDL
MODEL 2
REMARK VINA RESULT:      -7.5      1.332      1.415
REMARK  Name = 
REMARK  4 active torsions:
REMARK  status: ('A' for Active; 'I' for Inactive)
REMARK    1  A    between atoms: C_4  and  N_5
REMARK    2  A    between atoms: N_5  and  C_6
REMARK    3  A    between atoms: C_6  and  C_7
REMARK    4  A    between atoms: C_7  and  C_8
REMARK                            x       y       z     vdW  Elec       q    Type
REMARK                         _______ _______ _______ _____ _____    ______ ____
ROOT
ATOM      1  N   UNL     1       4.458   2.786  17.009  0.00  0.00    +0.000 N 
ATOM      2  H   UNL     1       4.126   2.372  16.141  0.00  0.00    +0.000 HD
ENDROOT
BRANCH   1   6
ATOM      3  O   UNL     1       7.510   5.460  14.565  0.00  0.00    +0.000 OA
ATOM      4  C   UNL     1       7.113   5.025  15.642  0.00  0.00    +0.000 A 
ATOM      5  C   UNL     1       5.945   4.125  15.713  0.00  0.00    +0.000 A 
ATOM      6  C   UNL     1       5.534   3.642  16.897  0.00  0.00    +0.000 A 
ATOM      7  N   UNL     1       6.229   4.022  18.012  0.00  0.00    +0.000 N 
ATOM      8  C   UNL     1       7.307   4.855  18.034  0.00  0.00    +0.000 A 
ATOM      9  O   UNL     1       7.872   5.152  19.080  0.00  0.00    +0.000 OA
ATOM     10  N   UNL     1       7.711   5.332  16.827  0.00  0.00    +0.000 N 
ATOM     11  H   UNL     1       5.937   3.680  18.915  0.00  0.00    +0.000 HD
ATOM     12  H   UNL     1       8.511   5.943  16.813  0.00  0.00    +0.000 HD
ENDBRANCH   1   6
BRANCH   1  13
ATOM     13  C   UNL     1       3.601   2.661  18.180  0.00  0.00    +0.000 C 
BRANCH  13  14
ATOM     14  C   UNL     1       2.232   3.312  17.981  0.00  0.00    +0.000 C 
BRANCH  14  15
ATOM     15  C   UNL     1       2.123   4.591  18.789  0.00  0.00    +0.000 A 
ATOM     16  C   UNL     1       2.483   5.808  18.183  0.00  0.00    +0.000 A 
ATOM     17  C   UNL     1       2.356   7.016  18.873  0.00  0.00    +0.000 A 
ATOM     18  C   UNL     1       1.867   7.021  20.176  0.00  0.00    +0.000 A 
ATOM     19 CL   UNL     1       1.711   8.510  21.024  0.00  0.00    +0.000 Cl
ATOM     20  C   UNL     1       1.495   5.831  20.793  0.00  0.00    +0.000 A 
ATOM     21  C   UNL     1       1.619   4.622  20.102  0.00  0.00    +0.000 A 
ATOM     22 CL   UNL     1       1.111   3.185  20.916  0.00  0.00    +0.000 Cl
ENDBRANCH  14  15
ENDBRANCH  13  14
ENDBRANCH   1  13
TORSDOF 4
ENDMDL
MODEL 3
REMARK VINA RESULT:      -7.4      1.369      2.008
REMARK  Name = 
REMARK  4 active torsions:
REMARK  status: ('A' for Active; 'I' for Inactive)
REMARK    1  A    between atoms: C_4  and  N_5
REMARK    2  A    between atoms: N_5  and  C_6
REMARK    3  A    between atoms: C_6  and  C_7
REMARK    4  A    between atoms: C_7  and  C_8
REMARK                            x       y       z     vdW  Elec       q    Type
REMARK                         _______ _______ _______ _____ _____    ______ ____
ROOT
ATOM      1  N   UNL     1       4.947   3.625  18.460  0.00  0.00    +0.000 N 
ATOM      2  H   UNL     1       5.258   3.464  19.415  0.00  0.00    +0.000 HD
ENDROOT
BRANCH   1   6
ATOM      3  O   UNL     1       7.747   7.362  17.666  0.00  0.00    +0.000 OA
ATOM      4  C   UNL     1       7.225   6.329  17.261  0.00  0.00    +0.000 A 
ATOM      5  C   UNL     1       6.358   5.521  18.142  0.00  0.00    +0.000 A 
ATOM      6  C   UNL     1       5.777   4.402  17.678  0.00  0.00    +0.000 A 
ATOM      7  N   UNL     1       6.028   4.049  16.381  0.00  0.00    +0.000 N 
ATOM      8  C   UNL     1       6.823   4.730  15.509  0.00  0.00    +0.000 A 
ATOM      9  O   UNL     1       7.002   4.342  14.360  0.00  0.00    +0.000 OA
ATOM     10  N   UNL     1       7.399   5.862  15.994  0.00  0.00    +0.000 N 
ATOM     11  H   UNL     1       5.611   3.209  16.009  0.00  0.00    +0.000 HD
ATOM     12  H   UNL     1       7.984   6.390  15.367  0.00  0.00    +0.000 HD
ENDBRANCH   1   6
BRANCH   1  13
ATOM     13  C   UNL     1       3.855   2.799  17.965  0.00  0.00    +0.000 C 
BRANCH  13  14
ATOM     14  C   UNL     1       2.639   3.624  17.539  0.00  0.00    +0.000 C 
BRANCH  14  15
ATOM     15  C   UNL     1       2.382   4.749  18.524  0.00  0.00    +0.000 A 
ATOM     16  C   UNL     1       2.686   6.067  18.139  0.00  0.00    +0.000 A 
ATOM     17  C   UNL     1       2.424   7.140  18.994  0.00  0.00    +0.000 A 
ATOM     18  C   UNL     1       1.855   6.908  20.243  0.00  0.00    +0.000 A 
ATOM     19 CL   UNL     1       1.534   8.231  21.295  0.00  0.00    +0.000 Cl
ATOM     20  C   UNL     1       1.537   5.613  20.642  0.00  0.00    +0.000 A 
ATOM     21  C   UNL     1       1.796   4.539  19.785  0.00  0.00    +0.000 A 
ATOM     22 CL   UNL     1       1.348   2.962  20.329  0.00  0.00    +0.000 Cl
ENDBRANCH  14  15
ENDBRANCH  13  14
ENDBRANCH   1  13
TORSDOF 4
ENDMDL
MODEL 4
REMARK VINA RESULT:      -7.4      1.861      3.285
REMARK  Name = 
REMARK  4 active torsions:
REMARK  status: ('A' for Active; 'I' for Inactive)
REMARK    1  A    between atoms: C_4  and  N_5
REMARK    2  A    between atoms: N_5  and  C_6
REMARK    3  A    between atoms: C_6  and  C_7
REMARK    4  A    between atoms: C_7  and  C_8
REMARK                            x       y       z     vdW  Elec       q    Type
REMARK                         _______ _______ _______ _____ _____    ______ ____
ROOT
ATOM      1  N   UNL     1       6.353   5.164  15.986  0.00  0.00    +0.000 N 
ATOM      2  H   UNL     1       6.218   5.748  15.164  0.00  0.00    +0.000 HD
ENDROOT
BRANCH   1   6
ATOM      3  O   UNL     1       8.098   5.228  20.389  0.00  0.00    +0.000 OA
ATOM      4  C   UNL     1       7.887   5.806  19.328  0.00  0.00    +0.000 A 
ATOM      5  C   UNL     1       7.225   5.114  18.205  0.00  0.00    +0.000 A 
ATOM      6  C   UNL     1       6.983   5.766  17.056  0.00  0.00    +0.000 A 
ATOM      7  N   UNL     1       7.378   7.073  16.974  0.00  0.00    +0.000 N 
ATOM      8  C   UNL     1       8.003   7.780  17.956  0.00  0.00    +0.000 A 
ATOM      9  O   UNL     1       8.331   8.951  17.801  0.00  0.00    +0.000 OA
ATOM     10  N   UNL     1       8.237   7.105  19.113  0.00  0.00    +0.000 N 
ATOM     11  H   UNL     1       7.215   7.584  16.120  0.00  0.00    +0.000 HD
ATOM     12  H   UNL     1       8.689   7.607  19.860  0.00  0.00    +0.000 HD
ENDBRANCH   1   6
BRANCH   1  13
ATOM     13  C   UNL     1       5.625   3.904  16.038  0.00  0.00    +0.000 C 
BRANCH  13  14
ATOM     14  C   UNL     1       4.109   4.100  16.089  0.00  0.00    +0.000 C 
BRANCH  14  15
ATOM     15  C   UNL     1       3.583   3.852  17.490  0.00  0.00    +0.000 A 
ATOM     16  C   UNL     1       3.410   2.524  17.923  0.00  0.00    +0.000 A 
ATOM     17  C   UNL     1       2.972   2.247  19.219  0.00  0.00    +0.000 A 
ATOM     18  C   UNL     1       2.702   3.291  20.098  0.00  0.00    +0.000 A 
ATOM     19 CL   UNL     1       2.162   2.947  21.695  0.00  0.00    +0.000 Cl
ATOM     20  C   UNL     1       2.875   4.612  19.696  0.00  0.00    +0.000 A 
ATOM     21  C   UNL     1       3.317   4.891  18.399  0.00  0.00    +0.000 A 
ATOM     22 CL   UNL     1       3.541   6.550  17.975  0.00  0.00    +0.000 Cl
ENDBRANCH  14  15
ENDBRANCH  13  14
ENDBRANCH   1  13
TORSDOF 4
ENDMDL
MODEL 5
REMARK VINA RESULT:      -7.3      1.847      2.621
REMARK  Name = 
REMARK  4 active torsions:
REMARK  status: ('A' for Active; 'I' for Inactive)
REMARK    1  A    between atoms: C_4  and  N_5
REMARK    2  A    between atoms: N_5  and  C_6
REMARK    3  A    between atoms: C_6  and  C_7
REMARK    4  A    between atoms: C_7  and  C_8
REMARK                            x       y       z     vdW  Elec       q    Type
REMARK                         _______ _______ _______ _____ _____    ______ ____
ROOT
ATOM      1  N   UNL     1       5.638   3.493  18.850  0.00  0.00    +0.000 N 
ATOM      2  H   UNL     1       6.243   2.754  19.205  0.00  0.00    +0.000 HD
ENDROOT
BRANCH   1   6
ATOM      3  O   UNL     1       7.690   7.635  17.815  0.00  0.00    +0.000 OA
ATOM      4  C   UNL     1       7.291   6.533  17.451  0.00  0.00    +0.000 A 
ATOM      5  C   UNL     1       6.680   5.592  18.410  0.00  0.00    +0.000 A 
ATOM      6  C   UNL     1       6.230   4.398  17.993  0.00  0.00    +0.000 A 
ATOM      7  N   UNL     1       6.370   4.096  16.666  0.00  0.00    +0.000 N 
ATOM      8  C   UNL     1       6.931   4.900  15.721  0.00  0.00    +0.000 A 
ATOM      9  O   UNL     1       7.025   4.552  14.549  0.00  0.00    +0.000 OA
ATOM     10  N   UNL     1       7.378   6.107  16.160  0.00  0.00    +0.000 N 
ATOM     11  H   UNL     1       6.048   3.202  16.327  0.00  0.00    +0.000 HD
ATOM     12  H   UNL     1       7.789   6.725  15.480  0.00  0.00    +0.000 HD
ENDBRANCH   1   6
BRANCH   1  13
ATOM     13  C   UNL     1       4.204   3.335  19.049  0.00  0.00    +0.000 C 
BRANCH  13  14
ATOM     14  C   UNL     1       3.380   4.251  18.142  0.00  0.00    +0.000 C 
BRANCH  14  15
ATOM     15  C   UNL     1       2.737   5.365  18.946  0.00  0.00    +0.000 A 
ATOM     16  C   UNL     1       2.036   5.035  20.120  0.00  0.00    +0.000 A 
ATOM     17  C   UNL     1       1.466   6.031  20.916  0.00  0.00    +0.000 A 
ATOM     18  C   UNL     1       1.593   7.368  20.550  0.00  0.00    +0.000 A 
ATOM     19 CL   UNL     1       0.891   8.594  21.532  0.00  0.00    +0.000 Cl
ATOM     20  C   UNL     1       2.291   7.719  19.398  0.00  0.00    +0.000 A 
ATOM     21  C   UNL     1       2.863   6.723  18.602  0.00  0.00    +0.000 A 
ATOM     22 CL   UNL     1       3.742   7.230  17.204  0.00  0.00    +0.000 Cl
ENDBRANCH  14  15
ENDBRANCH  13  14
ENDBRANCH   1  13
TORSDOF 4
ENDMDL
MODEL 6
REMARK VINA RESULT:      -7.3      1.614      2.175
REMARK  Name = 
REMARK  4 active torsions:
REMARK  status: ('A' for Active; 'I' for Inactive)
REMARK    1  A    between atoms: C_4  and  N_5
REMARK    2  A    between atoms: N_5  and  C_6
REMARK    3  A    between atoms: C_6  and  C_7
REMARK    4  A    between atoms: C_7  and  C_8
REMARK                            x       y       z     vdW  Elec       q    Type
REMARK                         _______ _______ _______ _____ _____    ______ ____
ROOT
ATOM      1  N   UNL     1       5.841   3.709  18.973  0.00  0.00    +0.000 N 
ATOM      2  H   UNL     1       6.463   2.973  19.300  0.00  0.00    +0.000 HD
ENDROOT
BRANCH   1   6
ATOM      3  O   UNL     1       7.627   7.708  17.168  0.00  0.00    +0.000 OA
ATOM      4  C   UNL     1       7.246   6.553  17.005  0.00  0.00    +0.000 A 
ATOM      5  C   UNL     1       6.755   5.748  18.142  0.00  0.00    +0.000 A 
ATOM      6  C   UNL     1       6.323   4.492  17.944  0.00  0.00    +0.000 A 
ATOM      7  N   UNL     1       6.365   4.000  16.669  0.00  0.00    +0.000 N 
ATOM      8  C   UNL     1       6.812   4.671  15.570  0.00  0.00    +0.000 A 
ATOM      9  O   UNL     1       6.823   4.155  14.458  0.00  0.00    +0.000 OA
ATOM     10  N   UNL     1       7.243   5.942  15.788  0.00  0.00    +0.000 N 
ATOM     11  H   UNL     1       6.053   3.057  16.493  0.00  0.00    +0.000 HD
ATOM     12  H   UNL     1       7.570   6.464  14.992  0.00  0.00    +0.000 HD
ENDBRANCH   1   6
BRANCH   1  13
ATOM     13  C   UNL     1       4.454   3.655  19.412  0.00  0.00    +0.000 C 
BRANCH  13  14
ATOM     14  C   UNL     1       3.486   4.241  18.382  0.00  0.00    +0.000 C 
BRANCH  14  15
ATOM     15  C   UNL     1       2.906   5.552  18.876  0.00  0.00    +0.000 A 
ATOM     16  C   UNL     1       3.028   6.694  18.063  0.00  0.00    +0.000 A 
ATOM     17  C   UNL     1       2.470   7.913  18.455  0.00  0.00    +0.000 A 
ATOM     18  C   UNL     1       1.782   8.005  19.661  0.00  0.00    +0.000 A 
ATOM     19 CL   UNL     1       1.094   9.507  20.142  0.00  0.00    +0.000 Cl
ATOM     20  C   UNL     1       1.640   6.886  20.477  0.00  0.00    +0.000 A 
ATOM     21  C   UNL     1       2.196   5.665  20.085  0.00  0.00    +0.000 A 
ATOM     22 CL   UNL     1       1.955   4.310  21.128  0.00  0.00    +0.000 Cl
ENDBRANCH  14  15
ENDBRANCH  13  14
ENDBRANCH   1  13
TORSDOF 4
ENDMDL
MODEL 7
REMARK VINA RESULT:      -7.3      1.115      1.281
REMARK  Name = 
REMARK  4 active torsions:
REMARK  status: ('A' for Active; 'I' for Inactive)
REMARK    1  A    between atoms: C_4  and  N_5
REMARK    2  A    between atoms: N_5  and  C_6
REMARK    3  A    between atoms: C_6  and  C_7
REMARK    4  A    between atoms: C_7  and  C_8
REMARK                            x       y       z     vdW  Elec       q    Type
REMARK                         _______ _______ _______ _____ _____    ______ ____
ROOT
ATOM      1  N   UNL     1       6.491   4.465  16.250  0.00  0.00    +0.000 N 
ATOM      2  H   UNL     1       7.138   4.011  15.608  0.00  0.00    +0.000 HD
ENDROOT
BRANCH   1   6
ATOM      3  O   UNL     1       8.119   8.691  17.637  0.00  0.00    +0.000 OA
ATOM      4  C   UNL     1       7.896   7.511  17.887  0.00  0.00    +0.000 A 
ATOM      5  C   UNL     1       7.274   6.626  16.882  0.00  0.00    +0.000 A 
ATOM      6  C   UNL     1       7.055   5.332  17.163  0.00  0.00    +0.000 A 
ATOM      7  N   UNL     1       7.418   4.882  18.402  0.00  0.00    +0.000 N 
ATOM      8  C   UNL     1       7.985   5.632  19.388  0.00  0.00    +0.000 A 
ATOM      9  O   UNL     1       8.277   5.153  20.478  0.00  0.00    +0.000 OA
ATOM     10  N   UNL     1       8.203   6.940  19.085  0.00  0.00    +0.000 N 
ATOM     11  H   UNL     1       7.257   3.916  18.643  0.00  0.00    +0.000 HD
ATOM     12  H   UNL     1       8.630   7.515  19.792  0.00  0.00    +0.000 HD
ENDBRANCH   1   6
BRANCH   1  13
ATOM     13  C   UNL     1       5.070   4.374  15.941  0.00  0.00    +0.000 C 
BRANCH  13  14
ATOM     14  C   UNL     1       4.273   3.668  17.039  0.00  0.00    +0.000 C 
BRANCH  14  15
ATOM     15  C   UNL     1       3.635   4.679  17.973  0.00  0.00    +0.000 A 
ATOM     16  C   UNL     1       3.560   6.024  17.566  0.00  0.00    +0.000 A 
ATOM     17  C   UNL     1       2.942   6.981  18.373  0.00  0.00    +0.000 A 
ATOM     18  C   UNL     1       2.389   6.607  19.594  0.00  0.00    +0.000 A 
ATOM     19 CL   UNL     1       1.627   7.787  20.586  0.00  0.00    +0.000 Cl
ATOM     20  C   UNL     1       2.442   5.280  20.013  0.00  0.00    +0.000 A 
ATOM     21  C   UNL     1       3.059   4.321  19.205  0.00  0.00    +0.000 A 
ATOM     22 CL   UNL     1       3.061   2.688  19.770  0.00  0.00    +0.000 Cl
ENDBRANCH  14  15
ENDBRANCH  13  14
ENDBRANCH   1  13
TORSDOF 4
ENDMDL
MODEL 8
REMARK VINA RESULT:      -7.2      1.143      2.127
REMARK  Name = 
REMARK  4 active torsions:
REMARK  status: ('A' for Active; 'I' for Inactive)
REMARK    1  A    between atoms: C_4  and  N_5
REMARK    2  A    between atoms: N_5  and  C_6
REMARK    3  A    between atoms: C_6  and  C_7
REMARK    4  A    between atoms: C_7  and  C_8
REMARK                            x       y       z     vdW  Elec       q    Type
REMARK                         _______ _______ _______ _____ _____    ______ ____
ROOT
ATOM      1  N   UNL     1       6.194   4.514  16.147  0.00  0.00    +0.000 N 
ATOM      2  H   UNL     1       6.778   4.149  15.397  0.00  0.00    +0.000 HD
ENDROOT
BRANCH   1   6
ATOM      3  O   UNL     1       8.163   5.296  20.383  0.00  0.00    +0.000 OA
ATOM      4  C   UNL     1       7.854   5.708  19.270  0.00  0.00    +0.000 A 
ATOM      5  C   UNL     1       7.185   4.826  18.293  0.00  0.00    +0.000 A 
ATOM      6  C   UNL     1       6.834   5.297  17.085  0.00  0.00    +0.000 A 
ATOM      7  N   UNL     1       7.128   6.603  16.804  0.00  0.00    +0.000 N 
ATOM      8  C   UNL     1       7.752   7.477  17.642  0.00  0.00    +0.000 A 
ATOM      9  O   UNL     1       7.985   8.635  17.311  0.00  0.00    +0.000 OA
ATOM     10  N   UNL     1       8.096   6.985  18.862  0.00  0.00    +0.000 N 
ATOM     11  H   UNL     1       6.883   6.980  15.901  0.00  0.00    +0.000 HD
ATOM     12  H   UNL     1       8.550   7.613  19.504  0.00  0.00    +0.000 HD
ENDBRANCH   1   6
BRANCH   1  13
ATOM     13  C   UNL     1       4.751   4.414  15.977  0.00  0.00    +0.000 C 
BRANCH  13  14
ATOM     14  C   UNL     1       4.068   3.702  17.146  0.00  0.00    +0.000 C 
BRANCH  14  15
ATOM     15  C   UNL     1       3.454   4.707  18.103  0.00  0.00    +0.000 A 
ATOM     16  C   UNL     1       3.324   6.045  17.687  0.00  0.00    +0.000 A 
ATOM     17  C   UNL     1       2.725   6.996  18.515  0.00  0.00    +0.000 A 
ATOM     18  C   UNL     1       2.246   6.621  19.767  0.00  0.00    +0.000 A 
ATOM     19 CL   UNL     1       1.507   7.794  20.786  0.00  0.00    +0.000 Cl
ATOM     20  C   UNL     1       2.355   5.302  20.197  0.00  0.00    +0.000 A 
ATOM     21  C   UNL     1       2.953   4.349  19.367  0.00  0.00    +0.000 A 
ATOM     22 CL   UNL     1       3.027   2.724  19.948  0.00  0.00    +0.000 Cl
ENDBRANCH  14  15
ENDBRANCH  13  14
ENDBRANCH   1  13
TORSDOF 4
ENDMDL
MODEL 9
REMARK VINA RESULT:      -7.2      1.408      2.543
REMARK  Name = 
REMARK  4 active torsions:
REMARK  status: ('A' for Active; 'I' for Inactive)
REMARK    1  A    between atoms: C_4  and  N_5
REMARK    2  A    between atoms: N_5  and  C_6
REMARK    3  A    between atoms: C_6  and  C_7
REMARK    4  A    between atoms: C_7  and  C_8
REMARK                            x       y       z     vdW  Elec       q    Type
REMARK                         _______ _______ _______ _____ _____    ______ ____
ROOT
ATOM      1  N   UNL     1       6.172   3.688  16.713  0.00  0.00    +0.000 N 
ATOM      2  H   UNL     1       6.810   3.006  16.307  0.00  0.00    +0.000 HD
ENDROOT
BRANCH   1   6
ATOM      3  O   UNL     1       7.897   8.075  17.171  0.00  0.00    +0.000 OA
ATOM      4  C   UNL     1       7.651   6.980  17.665  0.00  0.00    +0.000 A 
ATOM      5  C   UNL     1       7.004   5.916  16.871  0.00  0.00    +0.000 A 
ATOM      6  C   UNL     1       6.760   4.716  17.421  0.00  0.00    +0.000 A 
ATOM      7  N   UNL     1       7.122   4.530  18.726  0.00  0.00    +0.000 N 
ATOM      8  C   UNL     1       7.711   5.460  19.530  0.00  0.00    +0.000 A 
ATOM      9  O   UNL     1       8.000   5.216  20.696  0.00  0.00    +0.000 OA
ATOM     10  N   UNL     1       7.954   6.669  18.957  0.00  0.00    +0.000 N 
ATOM     11  H   UNL     1       6.943   3.641  19.167  0.00  0.00    +0.000 HD
ATOM     12  H   UNL     1       8.397   7.371  19.525  0.00  0.00    +0.000 HD
ENDBRANCH   1   6
BRANCH   1  13
ATOM     13  C   UNL     1       4.788   3.660  16.261  0.00  0.00    +0.000 C 
BRANCH  13  14
ATOM     14  C   UNL     1       3.928   4.731  16.933  0.00  0.00    +0.000 C 
BRANCH  14  15
ATOM     15  C   UNL     1       3.281   4.188  18.193  0.00  0.00    +0.000 A 
ATOM     16  C   UNL     1       3.056   2.803  18.296  0.00  0.00    +0.000 A 
ATOM     17  C   UNL     1       2.505   2.253  19.455  0.00  0.00    +0.000 A 
ATOM     18  C   UNL     1       2.175   3.078  20.525  0.00  0.00    +0.000 A 
ATOM     19 CL   UNL     1       1.497   2.398  21.953  0.00  0.00    +0.000 Cl
ATOM     20  C   UNL     1       2.398   4.450  20.451  0.00  0.00    +0.000 A 
ATOM     21  C   UNL     1       2.952   5.002  19.292  0.00  0.00    +0.000 A 
ATOM     22 CL   UNL     1       3.231   6.706  19.278  0.00  0.00    +0.000 Cl
ENDBRANCH  14  15
ENDBRANCH  13  14
ENDBRANCH   1  13
TORSDOF 4
ENDMDL
