MODEL 1
REMARK VINA RESULT:      -7.6      0.000      0.000
REMARK  Name = 
REMARK  9 active torsions:
REMARK  status: ('A' for Active; 'I' for Inactive)
REMARK    1  A    between atoms: C_1  and  C_2
REMARK    2  A    between atoms: C_2  and  C_3
REMARK    3  A    between atoms: C_4  and  C_5
REMARK    4  A    between atoms: C_5  and  C_6
REMARK    5  A    between atoms: C_7  and  C_8
REMARK    6  A    between atoms: C_16  and  C_17
REMARK    7  A    between atoms: C_19  and  C_20
REMARK    8  A    between atoms: C_21  and  C_22
REMARK    9  A    between atoms: C_28  and  O_29
REMARK                            x       y       z     vdW  Elec       q    Type
REMARK                         _______ _______ _______ _____ _____    ______ ____
ROOT
ATOM      1  C   UNL     1       2.875   5.951  18.591  0.00  0.00    +0.000 A 
ATOM      2  C   UNL     1       2.353   5.098  19.589  0.00  0.00    +0.000 A 
ATOM      3  C   UNL     1       2.570   3.606  19.594  0.00  0.00    +0.000 C 
ATOM      4  C   UNL     1       1.562   5.644  20.624  0.00  0.00    +0.000 A 
ATOM      5  C   UNL     1       1.295   7.015  20.683  0.00  0.00    +0.000 A 
ATOM      6  O   UNL     1       0.476   7.453  21.695  0.00  0.00    +0.000 OA
ATOM      7  C   UNL     1       0.219   8.801  21.795  0.00  0.00    +0.000 A 
ATOM      8  C   UNL     1      -0.613   9.189  22.848  0.00  0.00    +0.000 A 
ATOM      9  C   UNL     1      -0.923  10.536  23.033  0.00  0.00    +0.000 A 
ATOM     10  C   UNL     1      -0.367  11.506  22.196  0.00  0.00    +0.000 A 
ATOM     11  C   UNL     1       0.510  11.146  21.159  0.00  0.00    +0.000 A 
ATOM     12  C   UNL     1       0.748   9.771  20.936  0.00  0.00    +0.000 A 
ATOM     13  C   UNL     1       1.560   9.284  19.806  0.00  0.00    +0.000 A 
ATOM     14  O   UNL     1       1.994  10.013  18.923  0.00  0.00    +0.000 OA
ATOM     15  C   UNL     1       1.844   7.850  19.727  0.00  0.00    +0.000 A 
ATOM     16  C   UNL     1       2.638   7.332  18.697  0.00  0.00    +0.000 A 
ENDROOT
BRANCH  11  17
ATOM     17  C   UNL     1       1.217  12.207  20.348  0.00  0.00    +0.000 C 
ATOM     18  O   UNL     1       0.363  12.805  19.374  0.00  0.00    +0.000 OA
ATOM     19  C   UNL     1       1.071  13.989  18.993  0.00  0.00    +0.000 C 
ATOM     20  C   UNL     1       1.987  13.666  17.812  0.00  0.00    +0.000 C 
ATOM     21  C   UNL     1       1.834  14.388  20.259  0.00  0.00    +0.000 C 
ATOM     22  C   UNL     1       1.223  15.582  20.970  0.00  0.00    +0.000 C 
ATOM     23  O   UNL     1       1.754  13.264  21.150  0.00  0.00    +0.000 OA
ENDBRANCH  11  17
BRANCH  16  24
ATOM     24  O   UNL     1       3.211   8.148  17.752  0.00  0.00    +0.000 OA
ATOM     25  H   UNL     1       3.216   9.067  18.104  0.00  0.00    +0.000 HD
ENDBRANCH  16  24
BRANCH   1  26
ATOM     26  C   UNL     1       3.667   5.445  17.402  0.00  0.00    +0.000 C 
BRANCH  26  30
ATOM     27  C   UNL     1       7.471   4.604  17.241  0.00  0.00    +0.000 C 
ATOM     28  C   UNL     1       6.020   4.689  16.859  0.00  0.00    +0.000 C 
ATOM     29  C   UNL     1       5.625   4.167  15.506  0.00  0.00    +0.000 C 
ATOM     30  C   UNL     1       5.131   5.264  17.692  0.00  0.00    +0.000 C 
ENDBRANCH  26  30
ENDBRANCH   1  26
TORSDOF 4
ENDMDL
MODEL 2
REMARK VINA RESULT:      -7.5      1.187      1.349
REMARK  Name = 
REMARK  9 active torsions:
REMARK  status: ('A' for Active; 'I' for Inactive)
REMARK    1  A    between atoms: C_1  and  C_2
REMARK    2  A    between atoms: C_2  and  C_3
REMARK    3  A    between atoms: C_4  and  C_5
REMARK    4  A    between atoms: C_5  and  C_6
REMARK    5  A    between atoms: C_7  and  C_8
REMARK    6  A    between atoms: C_16  and  C_17
REMARK    7  A    between atoms: C_19  and  C_20
REMARK    8  A    between atoms: C_21  and  C_22
REMARK    9  A    between atoms: C_28  and  O_29
REMARK                            x       y       z     vdW  Elec       q    Type
REMARK                         _______ _______ _______ _____ _____    ______ ____
ROOT
ATOM      1  C   UNL     1       2.651   7.210  18.488  0.00  0.00    +0.000 A 
ATOM      2  C   UNL     1       2.392   6.311  19.546  0.00  0.00    +0.000 A 
ATOM      3  C   UNL     1       2.849   4.874  19.536  0.00  0.00    +0.000 C 
ATOM      4  C   UNL     1       1.647   6.749  20.664  0.00  0.00    +0.000 A 
ATOM      5  C   UNL     1       1.170   8.060  20.744  0.00  0.00    +0.000 A 
ATOM      6  O   UNL     1       0.412   8.387  21.842  0.00  0.00    +0.000 OA
ATOM      7  C   UNL     1      -0.047   9.679  21.963  0.00  0.00    +0.000 A 
ATOM      8  C   UNL     1      -0.804   9.955  23.103  0.00  0.00    +0.000 A 
ATOM      9  C   UNL     1      -1.306  11.239  23.315  0.00  0.00    +0.000 A 
ATOM     10  C   UNL     1      -1.016  12.264  22.412  0.00  0.00    +0.000 A 
ATOM     11  C   UNL     1      -0.216  12.023  21.280  0.00  0.00    +0.000 A 
ATOM     12  C   UNL     1       0.215  10.699  21.041  0.00  0.00    +0.000 A 
ATOM     13  C   UNL     1       0.960  10.319  19.826  0.00  0.00    +0.000 A 
ATOM     14  O   UNL     1       1.165  11.085  18.894  0.00  0.00    +0.000 OA
ATOM     15  C   UNL     1       1.463   8.948  19.724  0.00  0.00    +0.000 A 
ATOM     16  C   UNL     1       2.206   8.538  18.612  0.00  0.00    +0.000 A 
ENDROOT
BRANCH  11  17
ATOM     17  C   UNL     1       0.210  13.162  20.385  0.00  0.00    +0.000 C 
ATOM     18  O   UNL     1      -0.653  14.293  20.496  0.00  0.00    +0.000 OA
ATOM     19  C   UNL     1       0.102  15.348  19.892  0.00  0.00    +0.000 C 
ATOM     20  C   UNL     1      -0.220  15.402  18.398  0.00  0.00    +0.000 C 
ATOM     21  C   UNL     1       1.559  14.976  20.183  0.00  0.00    +0.000 C 
ATOM     22  C   UNL     1       2.183  15.826  21.275  0.00  0.00    +0.000 C 
ATOM     23  O   UNL     1       1.543  13.616  20.647  0.00  0.00    +0.000 OA
ENDBRANCH  11  17
BRANCH  16  24
ATOM     24  O   UNL     1       2.526   9.411  17.600  0.00  0.00    +0.000 OA
ATOM     25  H   UNL     1       1.706   9.599  17.088  0.00  0.00    +0.000 HD
ENDBRANCH  16  24
BRANCH   1  26
ATOM     26  C   UNL     1       3.372   6.808  17.218  0.00  0.00    +0.000 C 
BRANCH  26  30
ATOM     27  C   UNL     1       7.217   6.163  17.125  0.00  0.00    +0.000 C 
ATOM     28  C   UNL     1       5.736   5.925  17.024  0.00  0.00    +0.000 C 
ATOM     29  C   UNL     1       5.279   4.582  16.530  0.00  0.00    +0.000 C 
ATOM     30  C   UNL     1       4.869   6.913  17.321  0.00  0.00    +0.000 C 
ENDBRANCH  26  30
ENDBRANCH   1  26
TORSDOF 4
ENDMDL
MODEL 3
REMARK VINA RESULT:      -7.4      1.507      7.525
REMARK  Name = 
REMARK  9 active torsions:
REMARK  status: ('A' for Active; 'I' for Inactive)
REMARK    1  A    between atoms: C_1  and  C_2
REMARK    2  A    between atoms: C_2  and  C_3
REMARK    3  A    between atoms: C_4  and  C_5
REMARK    4  A    between atoms: C_5  and  C_6
REMARK    5  A    between atoms: C_7  and  C_8
REMARK    6  A    between atoms: C_16  and  C_17
REMARK    7  A    between atoms: C_19  and  C_20
REMARK    8  A    between atoms: C_21  and  C_22
REMARK    9  A    between atoms: C_28  and  O_29
REMARK                            x       y       z     vdW  Elec       q    Type
REMARK                         _______ _______ _______ _____ _____    ______ ____
ROOT
ATOM      1  C   UNL     1       0.631  10.524  20.016  0.00  0.00    +0.000 A 
ATOM      2  C   UNL     1      -0.035  10.042  21.165  0.00  0.00    +0.000 A 
ATOM      3  C   UNL     1      -0.934  10.902  22.017  0.00  0.00    +0.000 C 
ATOM      4  C   UNL     1       0.160   8.703  21.569  0.00  0.00    +0.000 A 
ATOM      5  C   UNL     1       0.993   7.845  20.847  0.00  0.00    +0.000 A 
ATOM      6  O   UNL     1       1.165   6.573  21.339  0.00  0.00    +0.000 OA
ATOM      7  C   UNL     1       1.957   5.697  20.633  0.00  0.00    +0.000 A 
ATOM      8  C   UNL     1       2.088   4.417  21.177  0.00  0.00    +0.000 A 
ATOM      9  C   UNL     1       2.864   3.458  20.527  0.00  0.00    +0.000 A 
ATOM     10  C   UNL     1       3.476   3.758  19.307  0.00  0.00    +0.000 A 
ATOM     11  C   UNL     1       3.321   5.024  18.716  0.00  0.00    +0.000 A 
ATOM     12  C   UNL     1       2.598   6.007  19.428  0.00  0.00    +0.000 A 
ATOM     13  C   UNL     1       2.473   7.396  18.950  0.00  0.00    +0.000 A 
ATOM     14  O   UNL     1       3.067   7.828  17.971  0.00  0.00    +0.000 OA
ATOM     15  C   UNL     1       1.608   8.310  19.699  0.00  0.00    +0.000 A 
ATOM     16  C   UNL     1       1.423   9.630  19.274  0.00  0.00    +0.000 A 
ENDROOT
BRANCH  11  17
ATOM     17  C   UNL     1       3.866   5.297  17.334  0.00  0.00    +0.000 C 
ATOM     18  O   UNL     1       5.116   5.984  17.368  0.00  0.00    +0.000 OA
ATOM     19  C   UNL     1       5.625   5.815  16.042  0.00  0.00    +0.000 C 
ATOM     20  C   UNL     1       5.149   6.979  15.171  0.00  0.00    +0.000 C 
ATOM     21  C   UNL     1       5.065   4.461  15.598  0.00  0.00    +0.000 C 
ATOM     22  C   UNL     1       6.106   3.356  15.604  0.00  0.00    +0.000 C 
ATOM     23  O   UNL     1       4.054   4.109  16.557  0.00  0.00    +0.000 OA
ENDBRANCH  11  17
BRANCH  16  24
ATOM     24  O   UNL     1       2.007  10.105  18.125  0.00  0.00    +0.000 OA
ATOM     25  H   UNL     1       2.810  10.616  18.379  0.00  0.00    +0.000 HD
ENDBRANCH  16  24
BRANCH   1  26
ATOM     26  C   UNL     1       0.544  11.964  19.552  0.00  0.00    +0.000 C 
BRANCH  26  30
ATOM     27  C   UNL     1       3.373  14.487  20.467  0.00  0.00    +0.000 C 
ATOM     28  C   UNL     1       2.500  13.567  19.662  0.00  0.00    +0.000 C 
ATOM     29  C   UNL     1       2.743  13.496  18.181  0.00  0.00    +0.000 C 
ATOM     30  C   UNL     1       1.506  12.879  20.258  0.00  0.00    +0.000 C 
ENDBRANCH  26  30
ENDBRANCH   1  26
TORSDOF 4
ENDMDL
MODEL 4
REMARK VINA RESULT:      -7.2      2.152      8.773
REMARK  Name = 
REMARK  9 active torsions:
REMARK  status: ('A' for Active; 'I' for Inactive)
REMARK    1  A    between atoms: C_1  and  C_2
REMARK    2  A    between atoms: C_2  and  C_3
REMARK    3  A    between atoms: C_4  and  C_5
REMARK    4  A    between atoms: C_5  and  C_6
REMARK    5  A    between atoms: C_7  and  C_8
REMARK    6  A    between atoms: C_16  and  C_17
REMARK    7  A    between atoms: C_19  and  C_20
REMARK    8  A    between atoms: C_21  and  C_22
REMARK    9  A    between atoms: C_28  and  O_29
REMARK                            x       y       z     vdW  Elec       q    Type
REMARK                         _______ _______ _______ _____ _____    ______ ____
ROOT
ATOM      1  C   UNL     1       0.504  10.101  20.071  0.00  0.00    +0.000 A 
ATOM      2  C   UNL     1       0.978  10.930  19.029  0.00  0.00    +0.000 A 
ATOM      3  C   UNL     1       0.532  12.358  18.845  0.00  0.00    +0.000 C 
ATOM      4  C   UNL     1       1.890  10.405  18.087  0.00  0.00    +0.000 A 
ATOM      5  C   UNL     1       2.339   9.084  18.173  0.00  0.00    +0.000 A 
ATOM      6  O   UNL     1       3.187   8.643  17.186  0.00  0.00    +0.000 OA
ATOM      7  C   UNL     1       3.668   7.355  17.262  0.00  0.00    +0.000 A 
ATOM      8  C   UNL     1       4.532   6.965  16.236  0.00  0.00    +0.000 A 
ATOM      9  C   UNL     1       5.076   5.681  16.233  0.00  0.00    +0.000 A 
ATOM     10  C   UNL     1       4.796   4.796  17.277  0.00  0.00    +0.000 A 
ATOM     11  C   UNL     1       3.967   5.182  18.345  0.00  0.00    +0.000 A 
ATOM     12  C   UNL     1       3.361   6.457  18.290  0.00  0.00    +0.000 A 
ATOM     13  C   UNL     1       2.388   6.913  19.300  0.00  0.00    +0.000 A 
ATOM     14  O   UNL     1       1.953   6.194  20.190  0.00  0.00    +0.000 OA
ATOM     15  C   UNL     1       1.905   8.292  19.221  0.00  0.00    +0.000 A 
ATOM     16  C   UNL     1       1.008   8.793  20.171  0.00  0.00    +0.000 A 
ENDROOT
BRANCH  11  17
ATOM     17  C   UNL     1       3.782   4.275  19.538  0.00  0.00    +0.000 C 
ATOM     18  O   UNL     1       2.616   3.459  19.426  0.00  0.00    +0.000 OA
ATOM     19  C   UNL     1       2.818   2.451  20.421  0.00  0.00    +0.000 C 
ATOM     20  C   UNL     1       2.210   2.923  21.742  0.00  0.00    +0.000 C 
ATOM     21  C   UNL     1       4.339   2.287  20.480  0.00  0.00    +0.000 C 
ATOM     22  C   UNL     1       4.827   1.017  19.806  0.00  0.00    +0.000 C 
ATOM     23  O   UNL     1       4.894   3.400  19.760  0.00  0.00    +0.000 OA
ENDBRANCH  11  17
BRANCH  16  24
ATOM     24  O   UNL     1       0.582   8.029  21.230  0.00  0.00    +0.000 OA
ATOM     25  H   UNL     1      -0.270   8.402  21.553  0.00  0.00    +0.000 HD
ENDBRANCH  16  24
BRANCH   1  26
ATOM     26  C   UNL     1      -0.533  10.552  21.080  0.00  0.00    +0.000 C 
BRANCH  26  30
ATOM     27  C   UNL     1      -0.701  13.945  22.994  0.00  0.00    +0.000 C 
ATOM     28  C   UNL     1      -1.077  12.579  22.495  0.00  0.00    +0.000 C 
ATOM     29  C   UNL     1      -2.322  11.951  23.057  0.00  0.00    +0.000 C 
ATOM     30  C   UNL     1      -0.285  11.935  21.616  0.00  0.00    +0.000 C 
ENDBRANCH  26  30
ENDBRANCH   1  26
TORSDOF 4
ENDMDL
MODEL 5
REMARK VINA RESULT:      -7.1      2.247      4.752
REMARK  Name = 
REMARK  9 active torsions:
REMARK  status: ('A' for Active; 'I' for Inactive)
REMARK    1  A    between atoms: C_1  and  C_2
REMARK    2  A    between atoms: C_2  and  C_3
REMARK    3  A    between atoms: C_4  and  C_5
REMARK    4  A    between atoms: C_5  and  C_6
REMARK    5  A    between atoms: C_7  and  C_8
REMARK    6  A    between atoms: C_16  and  C_17
REMARK    7  A    between atoms: C_19  and  C_20
REMARK    8  A    between atoms: C_21  and  C_22
REMARK    9  A    between atoms: C_28  and  O_29
REMARK                            x       y       z     vdW  Elec       q    Type
REMARK                         _______ _______ _______ _____ _____    ______ ____
ROOT
ATOM      1  C   UNL     1       1.846   7.149  19.861  0.00  0.00    +0.000 A 
ATOM      2  C   UNL     1       2.661   7.492  18.759  0.00  0.00    +0.000 A 
ATOM      3  C   UNL     1       3.616   6.524  18.108  0.00  0.00    +0.000 C 
ATOM      4  C   UNL     1       2.617   8.808  18.247  0.00  0.00    +0.000 A 
ATOM      5  C   UNL     1       1.774   9.773  18.806  0.00  0.00    +0.000 A 
ATOM      6  O   UNL     1       1.831  11.040  18.277  0.00  0.00    +0.000 OA
ATOM      7  C   UNL     1       0.991  12.003  18.788  0.00  0.00    +0.000 A 
ATOM      8  C   UNL     1       1.088  13.269  18.206  0.00  0.00    +0.000 A 
ATOM      9  C   UNL     1       0.271  14.307  18.653  0.00  0.00    +0.000 A 
ATOM     10  C   UNL     1      -0.678  14.074  19.651  0.00  0.00    +0.000 A 
ATOM     11  C   UNL     1      -0.827  12.797  20.220  0.00  0.00    +0.000 A 
ATOM     12  C   UNL     1       0.064  11.779  19.811  0.00  0.00    +0.000 A 
ATOM     13  C   UNL     1       0.066  10.439  20.426  0.00  0.00    +0.000 A 
ATOM     14  O   UNL     1      -0.618  10.141  21.397  0.00  0.00    +0.000 OA
ATOM     15  C   UNL     1       0.947   9.418  19.856  0.00  0.00    +0.000 A 
ATOM     16  C   UNL     1       0.967   8.119  20.374  0.00  0.00    +0.000 A 
ENDROOT
BRANCH  11  17
ATOM     17  C   UNL     1      -1.946  12.517  21.194  0.00  0.00    +0.000 C 
ATOM     18  O   UNL     1      -2.046  13.515  22.209  0.00  0.00    +0.000 OA
ATOM     19  C   UNL     1      -3.340  13.286  22.776  0.00  0.00    +0.000 C 
ATOM     20  C   UNL     1      -3.210  12.296  23.934  0.00  0.00    +0.000 C 
ATOM     21  C   UNL     1      -4.166  12.743  21.607  0.00  0.00    +0.000 C 
ATOM     22  C   UNL     1      -5.141  13.762  21.045  0.00  0.00    +0.000 C 
ATOM     23  O   UNL     1      -3.230  12.419  20.567  0.00  0.00    +0.000 OA
ENDBRANCH  11  17
BRANCH  16  24
ATOM     24  O   UNL     1       0.138   7.741  21.403  0.00  0.00    +0.000 OA
ATOM     25  H   UNL     1      -0.661   8.317  21.377  0.00  0.00    +0.000 HD
ENDBRANCH  16  24
BRANCH   1  26
ATOM     26  C   UNL     1       1.883   5.787  20.526  0.00  0.00    +0.000 C 
BRANCH  26  30
ATOM     27  C   UNL     1       0.740   2.369  19.037  0.00  0.00    +0.000 C 
ATOM     28  C   UNL     1       1.253   3.390  20.013  0.00  0.00    +0.000 C 
ATOM     29  C   UNL     1       1.510   2.938  21.422  0.00  0.00    +0.000 C 
ATOM     30  C   UNL     1       1.419   4.671  19.630  0.00  0.00    +0.000 C 
ENDBRANCH  26  30
ENDBRANCH   1  26
TORSDOF 4
ENDMDL
MODEL 6
REMARK VINA RESULT:      -7.0      1.688      2.496
REMARK  Name = 
REMARK  9 active torsions:
REMARK  status: ('A' for Active; 'I' for Inactive)
REMARK    1  A    between atoms: C_1  and  C_2
REMARK    2  A    between atoms: C_2  and  C_3
REMARK    3  A    between atoms: C_4  and  C_5
REMARK    4  A    between atoms: C_5  and  C_6
REMARK    5  A    between atoms: C_7  and  C_8
REMARK    6  A    between atoms: C_16  and  C_17
REMARK    7  A    between atoms: C_19  and  C_20
REMARK    8  A    between atoms: C_21  and  C_22
REMARK    9  A    between atoms: C_28  and  O_29
REMARK                            x       y       z     vdW  Elec       q    Type
REMARK                         _______ _______ _______ _____ _____    ______ ____
ROOT
ATOM      1  C   UNL     1       2.077   8.266  18.685  0.00  0.00    +0.000 A 
ATOM      2  C   UNL     1       1.802   7.476  19.823  0.00  0.00    +0.000 A 
ATOM      3  C   UNL     1       2.194   6.024  19.931  0.00  0.00    +0.000 C 
ATOM      4  C   UNL     1       1.102   8.044  20.911  0.00  0.00    +0.000 A 
ATOM      5  C   UNL     1       0.685   9.377  20.883  0.00  0.00    +0.000 A 
ATOM      6  O   UNL     1      -0.033   9.834  21.962  0.00  0.00    +0.000 OA
ATOM      7  C   UNL     1      -0.432  11.151  21.976  0.00  0.00    +0.000 A 
ATOM      8  C   UNL     1      -1.151  11.560  23.102  0.00  0.00    +0.000 A 
ATOM      9  C   UNL     1      -1.590  12.879  23.208  0.00  0.00    +0.000 A 
ATOM     10  C   UNL     1      -1.275  13.807  22.212  0.00  0.00    +0.000 A 
ATOM     11  C   UNL     1      -0.513  13.431  21.092  0.00  0.00    +0.000 A 
ATOM     12  C   UNL     1      -0.146  12.073  20.963  0.00  0.00    +0.000 A 
ATOM     13  C   UNL     1       0.555  11.555  19.774  0.00  0.00    +0.000 A 
ATOM     14  O   UNL     1       0.773  12.226  18.773  0.00  0.00    +0.000 OA
ATOM     15  C   UNL     1       0.994  10.158  19.784  0.00  0.00    +0.000 A 
ATOM     16  C   UNL     1       1.694   9.619  18.699  0.00  0.00    +0.000 A 
ENDROOT
BRANCH  11  17
ATOM     17  C   UNL     1      -0.056  14.467  20.093  0.00  0.00    +0.000 C 
ATOM     18  O   UNL     1      -0.810  15.675  20.179  0.00  0.00    +0.000 OA
ATOM     19  C   UNL     1      -0.013  16.617  19.453  0.00  0.00    +0.000 C 
ATOM     20  C   UNL     1      -0.436  16.603  17.984  0.00  0.00    +0.000 C 
ATOM     21  C   UNL     1       1.424  16.136  19.673  0.00  0.00    +0.000 C 
ATOM     22  C   UNL     1       2.195  16.996  20.659  0.00  0.00    +0.000 C 
ATOM     23  O   UNL     1       1.326  14.816  20.233  0.00  0.00    +0.000 OA
ENDBRANCH  11  17
BRANCH  16  24
ATOM     24  O   UNL     1       2.030  10.384  17.608  0.00  0.00    +0.000 OA
ATOM     25  H   UNL     1       2.202   9.778  16.852  0.00  0.00    +0.000 HD
ENDBRANCH  16  24
BRANCH   1  26
ATOM     26  C   UNL     1       2.751   7.722  17.442  0.00  0.00    +0.000 C 
BRANCH  26  30
ATOM     27  C   UNL     1       6.491   6.617  17.431  0.00  0.00    +0.000 C 
ATOM     28  C   UNL     1       4.993   6.553  17.328  0.00  0.00    +0.000 C 
ATOM     29  C   UNL     1       4.380   5.247  16.908  0.00  0.00    +0.000 C 
ATOM     30  C   UNL     1       4.249   7.653  17.557  0.00  0.00    +0.000 C 
ENDBRANCH  26  30
ENDBRANCH   1  26
TORSDOF 4
ENDMDL
MODEL 7
REMARK VINA RESULT:      -7.0      1.953      7.731
REMARK  Name = 
REMARK  9 active torsions:
REMARK  status: ('A' for Active; 'I' for Inactive)
REMARK    1  A    between atoms: C_1  and  C_2
REMARK    2  A    between atoms: C_2  and  C_3
REMARK    3  A    between atoms: C_4  and  C_5
REMARK    4  A    between atoms: C_5  and  C_6
REMARK    5  A    between atoms: C_7  and  C_8
REMARK    6  A    between atoms: C_16  and  C_17
REMARK    7  A    between atoms: C_19  and  C_20
REMARK    8  A    between atoms: C_21  and  C_22
REMARK    9  A    between atoms: C_28  and  O_29
REMARK                            x       y       z     vdW  Elec       q    Type
REMARK                         _______ _______ _______ _____ _____    ______ ____
ROOT
ATOM      1  C   UNL     1       0.582  10.169  20.169  0.00  0.00    +0.000 A 
ATOM      2  C   UNL     1      -0.010   9.624  21.330  0.00  0.00    +0.000 A 
ATOM      3  C   UNL     1      -0.919  10.411  22.238  0.00  0.00    +0.000 C 
ATOM      4  C   UNL     1       0.274   8.288  21.692  0.00  0.00    +0.000 A 
ATOM      5  C   UNL     1       1.123   7.494  20.916  0.00  0.00    +0.000 A 
ATOM      6  O   UNL     1       1.384   6.223  21.368  0.00  0.00    +0.000 OA
ATOM      7  C   UNL     1       2.193   5.409  20.609  0.00  0.00    +0.000 A 
ATOM      8  C   UNL     1       2.415   4.126  21.114  0.00  0.00    +0.000 A 
ATOM      9  C   UNL     1       3.216   3.228  20.410  0.00  0.00    +0.000 A 
ATOM     10  C   UNL     1       3.762   3.590  19.176  0.00  0.00    +0.000 A 
ATOM     11  C   UNL     1       3.514   4.859  18.624  0.00  0.00    +0.000 A 
ATOM     12  C   UNL     1       2.767   5.783  19.389  0.00  0.00    +0.000 A 
ATOM     13  C   UNL     1       2.548   7.175  18.952  0.00  0.00    +0.000 A 
ATOM     14  O   UNL     1       3.078   7.662  17.962  0.00  0.00    +0.000 OA
ATOM     15  C   UNL     1       1.665   8.021  19.757  0.00  0.00    +0.000 A 
ATOM     16  C   UNL     1       1.391   9.338  19.375  0.00  0.00    +0.000 A 
ENDROOT
BRANCH  11  17
ATOM     17  C   UNL     1       3.987   5.195  17.230  0.00  0.00    +0.000 C 
ATOM     18  O   UNL     1       5.196   5.953  17.234  0.00  0.00    +0.000 OA
ATOM     19  C   UNL     1       5.662   5.845  15.885  0.00  0.00    +0.000 C 
ATOM     20  C   UNL     1       5.085   6.998  15.062  0.00  0.00    +0.000 C 
ATOM     21  C   UNL     1       5.164   4.470  15.430  0.00  0.00    +0.000 C 
ATOM     22  C   UNL     1       6.267   3.429  15.368  0.00  0.00    +0.000 C 
ATOM     23  O   UNL     1       4.213   4.038  16.417  0.00  0.00    +0.000 OA
ENDBRANCH  11  17
BRANCH  16  24
ATOM     24  O   UNL     1       1.902   9.872  18.216  0.00  0.00    +0.000 OA
ATOM     25  H   UNL     1       1.149  10.075  17.615  0.00  0.00    +0.000 HD
ENDBRANCH  16  24
BRANCH   1  26
ATOM     26  C   UNL     1       0.398  11.613  19.747  0.00  0.00    +0.000 C 
BRANCH  26  30
ATOM     27  C   UNL     1      -3.363  11.999  18.791  0.00  0.00    +0.000 C 
ATOM     28  C   UNL     1      -1.933  11.538  18.763  0.00  0.00    +0.000 C 
ATOM     29  C   UNL     1      -1.562  10.482  17.761  0.00  0.00    +0.000 C 
ATOM     30  C   UNL     1      -1.044  12.028  19.649  0.00  0.00    +0.000 C 
ENDBRANCH  26  30
ENDBRANCH   1  26
TORSDOF 4
ENDMDL
MODEL 8
REMARK VINA RESULT:      -6.6      5.647     10.078
REMARK  Name = 
REMARK  9 active torsions:
REMARK  status: ('A' for Active; 'I' for Inactive)
REMARK    1  A    between atoms: C_1  and  C_2
REMARK    2  A    between atoms: C_2  and  C_3
REMARK    3  A    between atoms: C_4  and  C_5
REMARK    4  A    between atoms: C_5  and  C_6
REMARK    5  A    between atoms: C_7  and  C_8
REMARK    6  A    between atoms: C_16  and  C_17
REMARK    7  A    between atoms: C_19  and  C_20
REMARK    8  A    between atoms: C_21  and  C_22
REMARK    9  A    between atoms: C_28  and  O_29
REMARK                            x       y       z     vdW  Elec       q    Type
REMARK                         _______ _______ _______ _____ _____    ______ ____
ROOT
ATOM      1  C   UNL     1      -2.559  14.554  23.403  0.00  0.00    +0.000 A 
ATOM      2  C   UNL     1      -3.788  15.142  23.775  0.00  0.00    +0.000 A 
ATOM      3  C   UNL     1      -3.947  16.016  24.994  0.00  0.00    +0.000 C 
ATOM      4  C   UNL     1      -4.941  14.889  23.001  0.00  0.00    +0.000 A 
ATOM      5  C   UNL     1      -4.885  14.074  21.866  0.00  0.00    +0.000 A 
ATOM      6  O   UNL     1      -6.064  13.841  21.200  0.00  0.00    +0.000 OA
ATOM      7  C   UNL     1      -6.034  13.065  20.063  0.00  0.00    +0.000 A 
ATOM      8  C   UNL     1      -7.260  12.870  19.424  0.00  0.00    +0.000 A 
ATOM      9  C   UNL     1      -7.327  12.105  18.260  0.00  0.00    +0.000 A 
ATOM     10  C   UNL     1      -6.163  11.570  17.704  0.00  0.00    +0.000 A 
ATOM     11  C   UNL     1      -4.910  11.791  18.302  0.00  0.00    +0.000 A 
ATOM     12  C   UNL     1      -4.873  12.501  19.524  0.00  0.00    +0.000 A 
ATOM     13  C   UNL     1      -3.627  12.689  20.289  0.00  0.00    +0.000 A 
ATOM     14  O   UNL     1      -2.564  12.161  19.988  0.00  0.00    +0.000 OA
ATOM     15  C   UNL     1      -3.670  13.536  21.483  0.00  0.00    +0.000 A 
ATOM     16  C   UNL     1      -2.513  13.780  22.230  0.00  0.00    +0.000 A 
ENDROOT
BRANCH  11  17
ATOM     17  C   UNL     1      -3.643  11.331  17.622  0.00  0.00    +0.000 C 
ATOM     18  O   UNL     1      -3.419   9.931  17.779  0.00  0.00    +0.000 OA
ATOM     19  C   UNL     1      -2.427   9.639  16.791  0.00  0.00    +0.000 C 
ATOM     20  C   UNL     1      -1.039   9.805  17.410  0.00  0.00    +0.000 C 
ATOM     21  C   UNL     1      -2.713  10.643  15.670  0.00  0.00    +0.000 C 
ATOM     22  C   UNL     1      -3.385  10.012  14.464  0.00  0.00    +0.000 C 
ATOM     23  O   UNL     1      -3.622  11.610  16.218  0.00  0.00    +0.000 OA
ENDBRANCH  11  17
BRANCH  16  24
ATOM     24  O   UNL     1      -1.293  13.273  21.853  0.00  0.00    +0.000 OA
ATOM     25  H   UNL     1      -0.663  14.025  21.764  0.00  0.00    +0.000 HD
ENDBRANCH  16  24
BRANCH   1  26
ATOM     26  C   UNL     1      -1.289  14.705  24.216  0.00  0.00    +0.000 C 
BRANCH  26  30
ATOM     27  C   UNL     1       0.424  18.170  24.733  0.00  0.00    +0.000 C 
ATOM     28  C   UNL     1      -0.284  16.880  25.034  0.00  0.00    +0.000 C 
ATOM     29  C   UNL     1      -0.544  16.549  26.477  0.00  0.00    +0.000 C 
ATOM     30  C   UNL     1      -0.618  16.040  24.035  0.00  0.00    +0.000 C 
ENDBRANCH  26  30
ENDBRANCH   1  26
TORSDOF 4
ENDMDL
MODEL 9
REMARK VINA RESULT:      -6.6      5.117      7.772
REMARK  Name = 
REMARK  9 active torsions:
REMARK  status: ('A' for Active; 'I' for Inactive)
REMARK    1  A    between atoms: C_1  and  C_2
REMARK    2  A    between atoms: C_2  and  C_3
REMARK    3  A    between atoms: C_4  and  C_5
REMARK    4  A    between atoms: C_5  and  C_6
REMARK    5  A    between atoms: C_7  and  C_8
REMARK    6  A    between atoms: C_16  and  C_17
REMARK    7  A    between atoms: C_19  and  C_20
REMARK    8  A    between atoms: C_21  and  C_22
REMARK    9  A    between atoms: C_28  and  O_29
REMARK                            x       y       z     vdW  Elec       q    Type
REMARK                         _______ _______ _______ _____ _____    ______ ____
ROOT
ATOM      1  C   UNL     1       0.054  11.479  19.411  0.00  0.00    +0.000 A 
ATOM      2  C   UNL     1      -0.225  10.460  18.474  0.00  0.00    +0.000 A 
ATOM      3  C   UNL     1       0.843   9.595  17.855  0.00  0.00    +0.000 C 
ATOM      4  C   UNL     1      -1.559  10.243  18.061  0.00  0.00    +0.000 A 
ATOM      5  C   UNL     1      -2.607  11.014  18.571  0.00  0.00    +0.000 A 
ATOM      6  O   UNL     1      -3.866  10.769  18.078  0.00  0.00    +0.000 OA
ATOM      7  C   UNL     1      -4.922  11.493  18.582  0.00  0.00    +0.000 A 
ATOM      8  C   UNL     1      -6.178  11.194  18.050  0.00  0.00    +0.000 A 
ATOM      9  C   UNL     1      -7.308  11.871  18.505  0.00  0.00    +0.000 A 
ATOM     10  C   UNL     1      -7.197  12.817  19.528  0.00  0.00    +0.000 A 
ATOM     11  C   UNL     1      -5.951  13.101  20.113  0.00  0.00    +0.000 A 
ATOM     12  C   UNL     1      -4.806  12.464  19.583  0.00  0.00    +0.000 A 
ATOM     13  C   UNL     1      -3.442  12.777  20.049  0.00  0.00    +0.000 A 
ATOM     14  O   UNL     1      -3.189  13.676  20.841  0.00  0.00    +0.000 OA
ATOM     15  C   UNL     1      -2.332  11.982  19.520  0.00  0.00    +0.000 A 
ATOM     16  C   UNL     1      -1.020  12.208  19.950  0.00  0.00    +0.000 A 
ENDROOT
BRANCH  11  17
ATOM     17  C   UNL     1      -5.856  14.017  21.310  0.00  0.00    +0.000 C 
ATOM     18  O   UNL     1      -6.804  15.082  21.256  0.00  0.00    +0.000 OA
ATOM     19  C   UNL     1      -6.814  15.588  22.594  0.00  0.00    +0.000 C 
ATOM     20  C   UNL     1      -5.764  16.692  22.720  0.00  0.00    +0.000 C 
ATOM     21  C   UNL     1      -6.507  14.361  23.457  0.00  0.00    +0.000 C 
ATOM     22  C   UNL     1      -7.727  13.822  24.181  0.00  0.00    +0.000 C 
ATOM     23  O   UNL     1      -6.050  13.339  22.556  0.00  0.00    +0.000 OA
ENDBRANCH  11  17
BRANCH  16  24
ATOM     24  O   UNL     1      -0.730  13.149  20.908  0.00  0.00    +0.000 OA
ATOM     25  H   UNL     1      -1.331  13.002  21.674  0.00  0.00    +0.000 HD
ENDBRANCH  16  24
BRANCH   1  26
ATOM     26  C   UNL     1       1.459  11.835  19.853  0.00  0.00    +0.000 C 
BRANCH  26  30
ATOM     27  C   UNL     1       3.391  14.752  18.130  0.00  0.00    +0.000 C 
ATOM     28  C   UNL     1       2.644  13.965  19.170  0.00  0.00    +0.000 C 
ATOM     29  C   UNL     1       2.493  14.580  20.532  0.00  0.00    +0.000 C 
ATOM     30  C   UNL     1       2.181  12.732  18.885  0.00  0.00    +0.000 C 
ENDBRANCH  26  30
ENDBRANCH   1  26
TORSDOF 4
ENDMDL
