MODEL 1
REMARK VINA RESULT:      -6.8      0.000      0.000
REMARK  Name = 
REMARK  13 active torsions:
REMARK  status: ('A' for Active; 'I' for Inactive)
REMARK    1  A    between atoms: C_1  and  C_2
REMARK    2  A    between atoms: C_2  and  C_3
REMARK    3  A    between atoms: C_3  and  C_4
REMARK    4  A    between atoms: C_4  and  N_5
REMARK    5  A    between atoms: C_6  and  C_8
REMARK    6  A    between atoms: C_8  and  C_9
REMARK    7  A    between atoms: C_9  and  C_10
REMARK    8  A    between atoms: C_10  and  C_11
REMARK    9  A    between atoms: C_10  and  C_12
REMARK   10  A    between atoms: C_20  and  C_21
REMARK   11  A    between atoms: C_22  and  C_23
REMARK   12  A    between atoms: C_26  and  O_27
REMARK   13  A    between atoms: C_31  and  O_32
REMARK                            x       y       z     vdW  Elec       q    Type
REMARK                         _______ _______ _______ _____ _____    ______ ____
ROOT
ATOM      1  C   UNL     1       0.066   9.906  20.221  0.00  0.00    +0.000 C 
ATOM      2  C   UNL     1       0.200   9.288  21.648  0.00  0.00    +0.000 C 
ATOM      3  C   UNL     1      -0.329  10.324  22.648  0.00  0.00    +0.000 C 
ATOM      4  C   UNL     1      -1.083  11.309  21.772  0.00  0.00    +0.000 C 
ATOM      5  C   UNL     1      -1.425  12.684  22.365  0.00  0.00    +0.000 C 
ATOM      6  C   UNL     1      -2.199  13.526  21.302  0.00  0.00    +0.000 C 
ATOM      7  C   UNL     1      -1.541  13.497  19.897  0.00  0.00    +0.000 C 
ATOM      8  C   UNL     1      -1.071  12.109  19.442  0.00  0.00    +0.000 C 
ATOM      9  C   UNL     1      -0.200  11.415  20.501  0.00  0.00    +0.000 C 
ATOM     10  C   UNL     1       1.116  12.196  20.748  0.00  0.00    +0.000 C 
ATOM     11  C   UNL     1      -2.486  14.980  21.834  0.00  0.00    +0.000 C 
ATOM     12  C   UNL     1      -1.161  15.749  22.100  0.00  0.00    +0.000 C 
ATOM     13  C   UNL     1      -3.276  15.846  20.807  0.00  0.00    +0.000 C 
ATOM     14  C   UNL     1      -4.722  15.412  20.610  0.00  0.00    +0.000 C 
ATOM     15  C   UNL     1      -5.463  15.406  21.940  0.00  0.00    +0.000 C 
ATOM     16  C   UNL     1      -4.773  14.486  22.943  0.00  0.00    +0.000 C 
ATOM     17  C   UNL     1      -3.300  14.884  23.167  0.00  0.00    +0.000 C 
ATOM     18  C   UNL     1      -2.633  13.969  24.215  0.00  0.00    +0.000 C 
ATOM     19  C   UNL     1      -2.186  12.597  23.702  0.00  0.00    +0.000 C 
ENDROOT
BRANCH   1  20
ATOM     20  C   UNL     1       1.228   9.475  19.269  0.00  0.00    +0.000 C 
ATOM     21  C   UNL     1       0.832   9.512  17.788  0.00  0.00    +0.000 C 
BRANCH  20  22
ATOM     22  C   UNL     1       1.686   8.047  19.663  0.00  0.00    +0.000 C 
BRANCH  22  23
ATOM     23  C   UNL     1       2.680   7.363  18.719  0.00  0.00    +0.000 C 
BRANCH  23  25
ATOM     24  N   UNL     1       1.932   5.048  18.691  0.00  0.00    +0.000 N 
ATOM     25  C   UNL     1       2.895   5.919  19.153  0.00  0.00    +0.000 C 
ATOM     26  O   UNL     1       3.840   5.555  19.846  0.00  0.00    +0.000 OA
ATOM     27  H   UNL     1       1.104   5.415  18.242  0.00  0.00    +0.000 HD
BRANCH  24  28
ATOM     28  C   UNL     1       1.964   3.645  19.051  0.00  0.00    +0.000 C 
BRANCH  28  29
ATOM     29  C   UNL     1       0.803   3.279  19.975  0.00  0.00    +0.000 C 
BRANCH  29  31
ATOM     30  C   UNL     1       2.804   2.656  21.372  0.00  0.00    +0.000 C 
ATOM     31  C   UNL     1       1.304   2.905  21.369  0.00  0.00    +0.000 C 
ENDBRANCH  29  31
ENDBRANCH  28  29
ENDBRANCH  24  28
ENDBRANCH  23  25
ENDBRANCH  22  23
ENDBRANCH  20  22
ENDBRANCH   1  20
BRANCH  15  32
ATOM     32  O   UNL     1      -6.807  14.982  21.739  0.00  0.00    +0.000 OA
ATOM     33  H   UNL     1      -7.360  15.396  22.417  0.00  0.00    +0.000 HD
ENDBRANCH  15  32
BRANCH  19  34
ATOM     34  O   UNL     1      -3.303  11.713  23.648  0.00  0.00    +0.000 OA
ATOM     35  H   UNL     1      -3.682  11.620  24.534  0.00  0.00    +0.000 HD
ENDBRANCH  19  34
TORSDOF 9
ENDMDL
MODEL 2
REMARK VINA RESULT:      -6.8      1.525      1.888
REMARK  Name = 
REMARK  13 active torsions:
REMARK  status: ('A' for Active; 'I' for Inactive)
REMARK    1  A    between atoms: C_1  and  C_2
REMARK    2  A    between atoms: C_2  and  C_3
REMARK    3  A    between atoms: C_3  and  C_4
REMARK    4  A    between atoms: C_4  and  N_5
REMARK    5  A    between atoms: C_6  and  C_8
REMARK    6  A    between atoms: C_8  and  C_9
REMARK    7  A    between atoms: C_9  and  C_10
REMARK    8  A    between atoms: C_10  and  C_11
REMARK    9  A    between atoms: C_10  and  C_12
REMARK   10  A    between atoms: C_20  and  C_21
REMARK   11  A    between atoms: C_22  and  C_23
REMARK   12  A    between atoms: C_26  and  O_27
REMARK   13  A    between atoms: C_31  and  O_32
REMARK                            x       y       z     vdW  Elec       q    Type
REMARK                         _______ _______ _______ _____ _____    ______ ____
ROOT
ATOM      1  C   UNL     1       1.087   8.687  19.910  0.00  0.00    +0.000 C 
ATOM      2  C   UNL     1       1.681   8.592  21.350  0.00  0.00    +0.000 C 
ATOM      3  C   UNL     1       1.056   9.722  22.180  0.00  0.00    +0.000 C 
ATOM      4  C   UNL     1      -0.124  10.171  21.333  0.00  0.00    +0.000 C 
ATOM      5  C   UNL     1      -0.760  11.532  21.651  0.00  0.00    +0.000 C 
ATOM      6  C   UNL     1      -1.949  11.786  20.671  0.00  0.00    +0.000 C 
ATOM      7  C   UNL     1      -1.598  11.488  19.189  0.00  0.00    +0.000 C 
ATOM      8  C   UNL     1      -0.812  10.190  18.969  0.00  0.00    +0.000 C 
ATOM      9  C   UNL     1       0.420  10.093  19.882  0.00  0.00    +0.000 C 
ATOM     10  C   UNL     1       1.444  11.213  19.566  0.00  0.00    +0.000 C 
ATOM     11  C   UNL     1      -2.570  13.215  20.896  0.00  0.00    +0.000 C 
ATOM     12  C   UNL     1      -1.530  14.331  20.598  0.00  0.00    +0.000 C 
ATOM     13  C   UNL     1      -3.774  13.498  19.949  0.00  0.00    +0.000 C 
ATOM     14  C   UNL     1      -5.021  12.682  20.265  0.00  0.00    +0.000 C 
ATOM     15  C   UNL     1      -5.451  12.904  21.709  0.00  0.00    +0.000 C 
ATOM     16  C   UNL     1      -4.328  12.538  22.674  0.00  0.00    +0.000 C 
ATOM     17  C   UNL     1      -3.041  13.337  22.384  0.00  0.00    +0.000 C 
ATOM     18  C   UNL     1      -1.931  12.984  23.397  0.00  0.00    +0.000 C 
ATOM     19  C   UNL     1      -1.182  11.677  23.126  0.00  0.00    +0.000 C 
ENDROOT
BRANCH   1  20
ATOM     20  C   UNL     1       2.121   8.284  18.809  0.00  0.00    +0.000 C 
ATOM     21  C   UNL     1       1.604   8.534  17.386  0.00  0.00    +0.000 C 
BRANCH  20  22
ATOM     22  C   UNL     1       2.479   6.787  18.991  0.00  0.00    +0.000 C 
BRANCH  22  23
ATOM     23  C   UNL     1       3.761   6.303  18.305  0.00  0.00    +0.000 C 
BRANCH  23  25
ATOM     24  N   UNL     1       2.603   4.251  17.699  0.00  0.00    +0.000 N 
ATOM     25  C   UNL     1       3.761   4.782  18.223  0.00  0.00    +0.000 C 
ATOM     26  O   UNL     1       4.705   4.086  18.583  0.00  0.00    +0.000 OA
ATOM     27  H   UNL     1       1.805   4.853  17.546  0.00  0.00    +0.000 HD
BRANCH  24  28
ATOM     28  C   UNL     1       2.422   2.817  17.595  0.00  0.00    +0.000 C 
BRANCH  28  29
ATOM     29  C   UNL     1       2.010   2.208  18.934  0.00  0.00    +0.000 C 
BRANCH  29  31
ATOM     30  C   UNL     1       1.233   3.658  20.841  0.00  0.00    +0.000 C 
ATOM     31  C   UNL     1       0.834   2.967  19.547  0.00  0.00    +0.000 C 
ENDBRANCH  29  31
ENDBRANCH  28  29
ENDBRANCH  24  28
ENDBRANCH  23  25
ENDBRANCH  22  23
ENDBRANCH  20  22
ENDBRANCH   1  20
BRANCH  15  32
ATOM     32  O   UNL     1      -6.606  12.120  21.990  0.00  0.00    +0.000 OA
ATOM     33  H   UNL     1      -7.142  12.070  21.186  0.00  0.00    +0.000 HD
ENDBRANCH  15  32
BRANCH  19  34
ATOM     34  O   UNL     1      -1.953  10.572  23.592  0.00  0.00    +0.000 OA
ATOM     35  H   UNL     1      -1.551  10.218  24.399  0.00  0.00    +0.000 HD
ENDBRANCH  19  34
TORSDOF 9
ENDMDL
MODEL 3
REMARK VINA RESULT:      -6.7      2.135      3.164
REMARK  Name = 
REMARK  13 active torsions:
REMARK  status: ('A' for Active; 'I' for Inactive)
REMARK    1  A    between atoms: C_1  and  C_2
REMARK    2  A    between atoms: C_2  and  C_3
REMARK    3  A    between atoms: C_3  and  C_4
REMARK    4  A    between atoms: C_4  and  N_5
REMARK    5  A    between atoms: C_6  and  C_8
REMARK    6  A    between atoms: C_8  and  C_9
REMARK    7  A    between atoms: C_9  and  C_10
REMARK    8  A    between atoms: C_10  and  C_11
REMARK    9  A    between atoms: C_10  and  C_12
REMARK   10  A    between atoms: C_20  and  C_21
REMARK   11  A    between atoms: C_22  and  C_23
REMARK   12  A    between atoms: C_26  and  O_27
REMARK   13  A    between atoms: C_31  and  O_32
REMARK                            x       y       z     vdW  Elec       q    Type
REMARK                         _______ _______ _______ _____ _____    ______ ____
ROOT
ATOM      1  C   UNL     1      -0.195  10.790  18.204  0.00  0.00    +0.000 C 
ATOM      2  C   UNL     1      -1.103   9.769  17.450  0.00  0.00    +0.000 C 
ATOM      3  C   UNL     1      -2.548  10.018  17.904  0.00  0.00    +0.000 C 
ATOM      4  C   UNL     1      -2.477  11.377  18.580  0.00  0.00    +0.000 C 
ATOM      5  C   UNL     1      -3.642  11.786  19.494  0.00  0.00    +0.000 C 
ATOM      6  C   UNL     1      -3.365  13.210  20.074  0.00  0.00    +0.000 C 
ATOM      7  C   UNL     1      -1.926  13.377  20.630  0.00  0.00    +0.000 C 
ATOM      8  C   UNL     1      -0.825  12.791  19.737  0.00  0.00    +0.000 C 
ATOM      9  C   UNL     1      -1.119  11.338  19.330  0.00  0.00    +0.000 C 
ATOM     10  C   UNL     1      -1.143  10.401  20.565  0.00  0.00    +0.000 C 
ATOM     11  C   UNL     1      -4.488  13.631  21.094  0.00  0.00    +0.000 C 
ATOM     12  C   UNL     1      -4.519  12.673  22.319  0.00  0.00    +0.000 C 
ATOM     13  C   UNL     1      -4.258  15.055  21.680  0.00  0.00    +0.000 C 
ATOM     14  C   UNL     1      -4.461  16.182  20.676  0.00  0.00    +0.000 C 
ATOM     15  C   UNL     1      -5.854  16.107  20.066  0.00  0.00    +0.000 C 
ATOM     16  C   UNL     1      -6.080  14.758  19.391  0.00  0.00    +0.000 C 
ATOM     17  C   UNL     1      -5.876  13.585  20.372  0.00  0.00    +0.000 C 
ATOM     18  C   UNL     1      -6.151  12.232  19.682  0.00  0.00    +0.000 C 
ATOM     19  C   UNL     1      -5.016  11.698  18.803  0.00  0.00    +0.000 C 
ENDROOT
BRANCH   1  20
ATOM     20  C   UNL     1       1.208  10.197  18.556  0.00  0.00    +0.000 C 
ATOM     21  C   UNL     1       2.366  11.053  18.028  0.00  0.00    +0.000 C 
BRANCH  20  22
ATOM     22  C   UNL     1       1.298   8.762  17.976  0.00  0.00    +0.000 C 
BRANCH  22  23
ATOM     23  C   UNL     1       2.692   8.127  17.937  0.00  0.00    +0.000 C 
BRANCH  23  25
ATOM     24  N   UNL     1       2.469   6.678  19.878  0.00  0.00    +0.000 N 
ATOM     25  C   UNL     1       2.635   6.717  18.511  0.00  0.00    +0.000 C 
ATOM     26  O   UNL     1       2.722   5.704  17.824  0.00  0.00    +0.000 OA
ATOM     27  H   UNL     1       2.540   7.533  20.412  0.00  0.00    +0.000 HD
BRANCH  24  28
ATOM     28  C   UNL     1       2.441   5.414  20.587  0.00  0.00    +0.000 C 
BRANCH  28  29
ATOM     29  C   UNL     1       1.083   4.727  20.450  0.00  0.00    +0.000 C 
BRANCH  29  31
ATOM     30  C   UNL     1       0.710   2.708  18.991  0.00  0.00    +0.000 C 
ATOM     31  C   UNL     1       1.242   3.213  20.323  0.00  0.00    +0.000 C 
ENDBRANCH  29  31
ENDBRANCH  28  29
ENDBRANCH  24  28
ENDBRANCH  23  25
ENDBRANCH  22  23
ENDBRANCH  20  22
ENDBRANCH   1  20
BRANCH  15  32
ATOM     32  O   UNL     1      -6.020  17.156  19.118  0.00  0.00    +0.000 OA
ATOM     33  H   UNL     1      -5.977  16.773  18.231  0.00  0.00    +0.000 HD
ENDBRANCH  15  32
BRANCH  19  34
ATOM     34  O   UNL     1      -5.041  12.346  17.534  0.00  0.00    +0.000 OA
ATOM     35  H   UNL     1      -4.133  12.470  17.220  0.00  0.00    +0.000 HD
ENDBRANCH  19  34
TORSDOF 9
ENDMDL
MODEL 4
REMARK VINA RESULT:      -6.6      1.983      3.212
REMARK  Name = 
REMARK  13 active torsions:
REMARK  status: ('A' for Active; 'I' for Inactive)
REMARK    1  A    between atoms: C_1  and  C_2
REMARK    2  A    between atoms: C_2  and  C_3
REMARK    3  A    between atoms: C_3  and  C_4
REMARK    4  A    between atoms: C_4  and  N_5
REMARK    5  A    between atoms: C_6  and  C_8
REMARK    6  A    between atoms: C_8  and  C_9
REMARK    7  A    between atoms: C_9  and  C_10
REMARK    8  A    between atoms: C_10  and  C_11
REMARK    9  A    between atoms: C_10  and  C_12
REMARK   10  A    between atoms: C_20  and  C_21
REMARK   11  A    between atoms: C_22  and  C_23
REMARK   12  A    between atoms: C_26  and  O_27
REMARK   13  A    between atoms: C_31  and  O_32
REMARK                            x       y       z     vdW  Elec       q    Type
REMARK                         _______ _______ _______ _____ _____    ______ ____
ROOT
ATOM      1  C   UNL     1      -0.143  12.465  19.382  0.00  0.00    +0.000 C 
ATOM      2  C   UNL     1      -1.211  11.966  18.359  0.00  0.00    +0.000 C 
ATOM      3  C   UNL     1      -2.576  12.019  19.057  0.00  0.00    +0.000 C 
ATOM      4  C   UNL     1      -2.314  12.882  20.280  0.00  0.00    +0.000 C 
ATOM      5  C   UNL     1      -3.343  12.845  21.419  0.00  0.00    +0.000 C 
ATOM      6  C   UNL     1      -2.880  13.803  22.563  0.00  0.00    +0.000 C 
ATOM      7  C   UNL     1      -1.386  13.630  22.943  0.00  0.00    +0.000 C 
ATOM      8  C   UNL     1      -0.435  13.504  21.746  0.00  0.00    +0.000 C 
ATOM      9  C   UNL     1      -0.901  12.438  20.742  0.00  0.00    +0.000 C 
ATOM     10  C   UNL     1      -0.895  11.025  21.378  0.00  0.00    +0.000 C 
ATOM     11  C   UNL     1      -3.857  13.723  23.796  0.00  0.00    +0.000 C 
ATOM     12  C   UNL     1      -3.862  12.297  24.414  0.00  0.00    +0.000 C 
ATOM     13  C   UNL     1      -3.440  14.682  24.950  0.00  0.00    +0.000 C 
ATOM     14  C   UNL     1      -3.631  16.159  24.633  0.00  0.00    +0.000 C 
ATOM     15  C   UNL     1      -5.077  16.438  24.245  0.00  0.00    +0.000 C 
ATOM     16  C   UNL     1      -5.491  15.588  23.048  0.00  0.00    +0.000 C 
ATOM     17  C   UNL     1      -5.305  14.082  23.322  0.00  0.00    +0.000 C 
ATOM     18  C   UNL     1      -5.770  13.238  22.116  0.00  0.00    +0.000 C 
ATOM     19  C   UNL     1      -4.779  13.150  20.952  0.00  0.00    +0.000 C 
ENDROOT
BRANCH   1  20
ATOM     20  C   UNL     1       1.225  11.725  19.229  0.00  0.00    +0.000 C 
ATOM     21  C   UNL     1       2.292  12.581  18.537  0.00  0.00    +0.000 C 
BRANCH  20  22
ATOM     22  C   UNL     1       0.993  10.416  18.432  0.00  0.00    +0.000 C 
BRANCH  22  23
ATOM     23  C   UNL     1       1.337   9.107  19.150  0.00  0.00    +0.000 C 
BRANCH  23  25
ATOM     24  N   UNL     1       2.486   6.995  18.778  0.00  0.00    +0.000 N 
ATOM     25  C   UNL     1       2.217   8.242  18.257  0.00  0.00    +0.000 C 
ATOM     26  O   UNL     1       2.646   8.613  17.169  0.00  0.00    +0.000 OA
ATOM     27  H   UNL     1       2.226   6.788  19.733  0.00  0.00    +0.000 HD
BRANCH  24  28
ATOM     28  C   UNL     1       3.347   6.065  18.075  0.00  0.00    +0.000 C 
BRANCH  28  29
ATOM     29  C   UNL     1       3.125   4.630  18.549  0.00  0.00    +0.000 C 
BRANCH  29  31
ATOM     30  C   UNL     1       1.438   2.766  18.401  0.00  0.00    +0.000 C 
ATOM     31  C   UNL     1       1.641   4.267  18.529  0.00  0.00    +0.000 C 
ENDBRANCH  29  31
ENDBRANCH  28  29
ENDBRANCH  24  28
ENDBRANCH  23  25
ENDBRANCH  22  23
ENDBRANCH  20  22
ENDBRANCH   1  20
BRANCH  15  32
ATOM     32  O   UNL     1      -5.232  17.819  23.936  0.00  0.00    +0.000 OA
ATOM     33  H   UNL     1      -5.098  17.933  22.984  0.00  0.00    +0.000 HD
ENDBRANCH  15  32
BRANCH  19  34
ATOM     34  O   UNL     1      -4.863  14.329  20.155  0.00  0.00    +0.000 OA
ATOM     35  H   UNL     1      -4.067  14.404  19.608  0.00  0.00    +0.000 HD
ENDBRANCH  19  34
TORSDOF 9
ENDMDL
MODEL 5
REMARK VINA RESULT:      -6.6      2.089      3.250
REMARK  Name = 
REMARK  13 active torsions:
REMARK  status: ('A' for Active; 'I' for Inactive)
REMARK    1  A    between atoms: C_1  and  C_2
REMARK    2  A    between atoms: C_2  and  C_3
REMARK    3  A    between atoms: C_3  and  C_4
REMARK    4  A    between atoms: C_4  and  N_5
REMARK    5  A    between atoms: C_6  and  C_8
REMARK    6  A    between atoms: C_8  and  C_9
REMARK    7  A    between atoms: C_9  and  C_10
REMARK    8  A    between atoms: C_10  and  C_11
REMARK    9  A    between atoms: C_10  and  C_12
REMARK   10  A    between atoms: C_20  and  C_21
REMARK   11  A    between atoms: C_22  and  C_23
REMARK   12  A    between atoms: C_26  and  O_27
REMARK   13  A    between atoms: C_31  and  O_32
REMARK                            x       y       z     vdW  Elec       q    Type
REMARK                         _______ _______ _______ _____ _____    ______ ____
ROOT
ATOM      1  C   UNL     1      -0.140  12.213  19.284  0.00  0.00    +0.000 C 
ATOM      2  C   UNL     1      -1.256  11.797  18.276  0.00  0.00    +0.000 C 
ATOM      3  C   UNL     1      -2.603  11.938  18.999  0.00  0.00    +0.000 C 
ATOM      4  C   UNL     1      -2.261  12.771  20.223  0.00  0.00    +0.000 C 
ATOM      5  C   UNL     1      -3.271  12.795  21.380  0.00  0.00    +0.000 C 
ATOM      6  C   UNL     1      -2.724  13.709  22.522  0.00  0.00    +0.000 C 
ATOM      7  C   UNL     1      -1.239  13.430  22.875  0.00  0.00    +0.000 C 
ATOM      8  C   UNL     1      -0.319  13.250  21.660  0.00  0.00    +0.000 C 
ATOM      9  C   UNL     1      -0.874  12.227  20.657  0.00  0.00    +0.000 C 
ATOM     10  C   UNL     1      -0.955  10.811  21.283  0.00  0.00    +0.000 C 
ATOM     11  C   UNL     1      -3.683  13.686  23.771  0.00  0.00    +0.000 C 
ATOM     12  C   UNL     1      -3.775  12.258  24.380  0.00  0.00    +0.000 C 
ATOM     13  C   UNL     1      -3.181  14.603  24.925  0.00  0.00    +0.000 C 
ATOM     14  C   UNL     1      -3.275  16.093  24.623  0.00  0.00    +0.000 C 
ATOM     15  C   UNL     1      -4.705  16.474  24.262  0.00  0.00    +0.000 C 
ATOM     16  C   UNL     1      -5.197  15.665  23.066  0.00  0.00    +0.000 C 
ATOM     17  C   UNL     1      -5.111  14.147  23.326  0.00  0.00    +0.000 C 
ATOM     18  C   UNL     1      -5.653  13.347  22.122  0.00  0.00    +0.000 C 
ATOM     19  C   UNL     1      -4.690  13.202  20.940  0.00  0.00    +0.000 C 
ENDROOT
BRANCH   1  20
ATOM     20  C   UNL     1       1.171  11.382  19.102  0.00  0.00    +0.000 C 
ATOM     21  C   UNL     1       2.276  12.161  18.377  0.00  0.00    +0.000 C 
BRANCH  20  22
ATOM     22  C   UNL     1       0.832  10.087  18.320  0.00  0.00    +0.000 C 
BRANCH  22  23
ATOM     23  C   UNL     1       2.015   9.199  17.919  0.00  0.00    +0.000 C 
BRANCH  23  25
ATOM     24  N   UNL     1       2.836   6.963  18.412  0.00  0.00    +0.000 N 
ATOM     25  C   UNL     1       2.165   8.057  18.914  0.00  0.00    +0.000 C 
ATOM     26  O   UNL     1       1.735   8.100  20.063  0.00  0.00    +0.000 OA
ATOM     27  H   UNL     1       3.049   6.921  17.425  0.00  0.00    +0.000 HD
BRANCH  24  28
ATOM     28  C   UNL     1       3.024   5.772  19.215  0.00  0.00    +0.000 C 
BRANCH  28  29
ATOM     29  C   UNL     1       4.495   5.364  19.273  0.00  0.00    +0.000 C 
BRANCH  29  31
ATOM     30  C   UNL     1       4.365   3.733  17.358  0.00  0.00    +0.000 C 
ATOM     31  C   UNL     1       4.682   3.913  18.834  0.00  0.00    +0.000 C 
ENDBRANCH  29  31
ENDBRANCH  28  29
ENDBRANCH  24  28
ENDBRANCH  23  25
ENDBRANCH  22  23
ENDBRANCH  20  22
ENDBRANCH   1  20
BRANCH  15  32
ATOM     32  O   UNL     1      -4.771  17.864  23.965  0.00  0.00    +0.000 OA
ATOM     33  H   UNL     1      -5.311  17.980  23.171  0.00  0.00    +0.000 HD
ENDBRANCH  15  32
BRANCH  19  34
ATOM     34  O   UNL     1      -4.707  14.390  20.154  0.00  0.00    +0.000 OA
ATOM     35  H   UNL     1      -4.808  15.158  20.735  0.00  0.00    +0.000 HD
ENDBRANCH  19  34
TORSDOF 9
ENDMDL
MODEL 6
REMARK VINA RESULT:      -6.6      2.227      2.894
REMARK  Name = 
REMARK  13 active torsions:
REMARK  status: ('A' for Active; 'I' for Inactive)
REMARK    1  A    between atoms: C_1  and  C_2
REMARK    2  A    between atoms: C_2  and  C_3
REMARK    3  A    between atoms: C_3  and  C_4
REMARK    4  A    between atoms: C_4  and  N_5
REMARK    5  A    between atoms: C_6  and  C_8
REMARK    6  A    between atoms: C_8  and  C_9
REMARK    7  A    between atoms: C_9  and  C_10
REMARK    8  A    between atoms: C_10  and  C_11
REMARK    9  A    between atoms: C_10  and  C_12
REMARK   10  A    between atoms: C_20  and  C_21
REMARK   11  A    between atoms: C_22  and  C_23
REMARK   12  A    between atoms: C_26  and  O_27
REMARK   13  A    between atoms: C_31  and  O_32
REMARK                            x       y       z     vdW  Elec       q    Type
REMARK                         _______ _______ _______ _____ _____    ______ ____
ROOT
ATOM      1  C   UNL     1       1.087   8.730  19.997  0.00  0.00    +0.000 C 
ATOM      2  C   UNL     1       1.654   8.662  21.449  0.00  0.00    +0.000 C 
ATOM      3  C   UNL     1       0.998   9.794  22.252  0.00  0.00    +0.000 C 
ATOM      4  C   UNL     1      -0.171  10.216  21.377  0.00  0.00    +0.000 C 
ATOM      5  C   UNL     1      -0.831  11.572  21.665  0.00  0.00    +0.000 C 
ATOM      6  C   UNL     1      -2.004  11.798  20.659  0.00  0.00    +0.000 C 
ATOM      7  C   UNL     1      -1.621  11.486  19.188  0.00  0.00    +0.000 C 
ATOM      8  C   UNL     1      -0.814  10.195  19.000  0.00  0.00    +0.000 C 
ATOM      9  C   UNL     1       0.402  10.127  19.938  0.00  0.00    +0.000 C 
ATOM     10  C   UNL     1       1.417  11.255  19.627  0.00  0.00    +0.000 C 
ATOM     11  C   UNL     1      -2.648  13.222  20.854  0.00  0.00    +0.000 C 
ATOM     12  C   UNL     1      -1.617  14.347  20.561  0.00  0.00    +0.000 C 
ATOM     13  C   UNL     1      -3.837  13.477  19.881  0.00  0.00    +0.000 C 
ATOM     14  C   UNL     1      -5.079  12.648  20.183  0.00  0.00    +0.000 C 
ATOM     15  C   UNL     1      -5.540  12.882  21.615  0.00  0.00    +0.000 C 
ATOM     16  C   UNL     1      -4.430  12.544  22.606  0.00  0.00    +0.000 C 
ATOM     17  C   UNL     1      -3.149  13.356  22.331  0.00  0.00    +0.000 C 
ATOM     18  C   UNL     1      -2.054  13.032  23.369  0.00  0.00    +0.000 C 
ATOM     19  C   UNL     1      -1.283  11.730  23.129  0.00  0.00    +0.000 C 
ENDROOT
BRANCH   1  20
ATOM     20  C   UNL     1       2.146   8.327  18.921  0.00  0.00    +0.000 C 
ATOM     21  C   UNL     1       1.612   8.436  17.488  0.00  0.00    +0.000 C 
BRANCH  20  22
ATOM     22  C   UNL     1       2.614   6.877  19.207  0.00  0.00    +0.000 C 
BRANCH  22  23
ATOM     23  C   UNL     1       2.481   5.875  18.055  0.00  0.00    +0.000 C 
BRANCH  23  25
ATOM     24  N   UNL     1       4.343   4.939  16.800  0.00  0.00    +0.000 N 
ATOM     25  C   UNL     1       3.700   4.964  18.018  0.00  0.00    +0.000 C 
ATOM     26  O   UNL     1       4.085   4.311  18.983  0.00  0.00    +0.000 OA
ATOM     27  H   UNL     1       3.911   5.384  16.001  0.00  0.00    +0.000 HD
BRANCH  24  28
ATOM     28  C   UNL     1       5.495   4.086  16.583  0.00  0.00    +0.000 C 
BRANCH  28  29
ATOM     29  C   UNL     1       6.786   4.899  16.513  0.00  0.00    +0.000 C 
BRANCH  29  31
ATOM     30  C   UNL     1       7.500   5.783  18.760  0.00  0.00    +0.000 C 
ATOM     31  C   UNL     1       7.655   4.661  17.746  0.00  0.00    +0.000 C 
ENDBRANCH  29  31
ENDBRANCH  28  29
ENDBRANCH  24  28
ENDBRANCH  23  25
ENDBRANCH  22  23
ENDBRANCH  20  22
ENDBRANCH   1  20
BRANCH  15  32
ATOM     32  O   UNL     1      -6.689  12.087  21.885  0.00  0.00    +0.000 OA
ATOM     33  H   UNL     1      -6.854  11.522  21.117  0.00  0.00    +0.000 HD
ENDBRANCH  15  32
BRANCH  19  34
ATOM     34  O   UNL     1      -2.048  10.622  23.595  0.00  0.00    +0.000 OA
ATOM     35  H   UNL     1      -1.745  10.372  24.481  0.00  0.00    +0.000 HD
ENDBRANCH  19  34
TORSDOF 9
ENDMDL
MODEL 7
REMARK VINA RESULT:      -6.5      1.637      2.516
REMARK  Name = 
REMARK  13 active torsions:
REMARK  status: ('A' for Active; 'I' for Inactive)
REMARK    1  A    between atoms: C_1  and  C_2
REMARK    2  A    between atoms: C_2  and  C_3
REMARK    3  A    between atoms: C_3  and  C_4
REMARK    4  A    between atoms: C_4  and  N_5
REMARK    5  A    between atoms: C_6  and  C_8
REMARK    6  A    between atoms: C_8  and  C_9
REMARK    7  A    between atoms: C_9  and  C_10
REMARK    8  A    between atoms: C_10  and  C_11
REMARK    9  A    between atoms: C_10  and  C_12
REMARK   10  A    between atoms: C_20  and  C_21
REMARK   11  A    between atoms: C_22  and  C_23
REMARK   12  A    between atoms: C_26  and  O_27
REMARK   13  A    between atoms: C_31  and  O_32
REMARK                            x       y       z     vdW  Elec       q    Type
REMARK                         _______ _______ _______ _____ _____    ______ ____
ROOT
ATOM      1  C   UNL     1       0.266   9.758  20.171  0.00  0.00    +0.000 C 
ATOM      2  C   UNL     1       0.422   9.161  21.604  0.00  0.00    +0.000 C 
ATOM      3  C   UNL     1      -0.102  10.208  22.597  0.00  0.00    +0.000 C 
ATOM      4  C   UNL     1      -0.873  11.176  21.715  0.00  0.00    +0.000 C 
ATOM      5  C   UNL     1      -1.217  12.556  22.293  0.00  0.00    +0.000 C 
ATOM      6  C   UNL     1      -2.009  13.378  21.227  0.00  0.00    +0.000 C 
ATOM      7  C   UNL     1      -1.368  13.333  19.815  0.00  0.00    +0.000 C 
ATOM      8  C   UNL     1      -0.894  11.942  19.375  0.00  0.00    +0.000 C 
ATOM      9  C   UNL     1      -0.006  11.268  20.432  0.00  0.00    +0.000 C 
ATOM     10  C   UNL     1       1.307  12.062  20.653  0.00  0.00    +0.000 C 
ATOM     11  C   UNL     1      -2.299  14.838  21.742  0.00  0.00    +0.000 C 
ATOM     12  C   UNL     1      -0.976  15.619  21.981  0.00  0.00    +0.000 C 
ATOM     13  C   UNL     1      -3.107  15.683  20.713  0.00  0.00    +0.000 C 
ATOM     14  C   UNL     1      -4.553  15.238  20.539  0.00  0.00    +0.000 C 
ATOM     15  C   UNL     1      -5.277  15.246  21.878  0.00  0.00    +0.000 C 
ATOM     16  C   UNL     1      -4.569  14.345  22.885  0.00  0.00    +0.000 C 
ATOM     17  C   UNL     1      -3.096  14.756  23.086  0.00  0.00    +0.000 C 
ATOM     18  C   UNL     1      -2.410  13.860  24.139  0.00  0.00    +0.000 C 
ATOM     19  C   UNL     1      -1.961  12.484  23.641  0.00  0.00    +0.000 C 
ENDROOT
BRANCH   1  20
ATOM     20  C   UNL     1       1.420   9.320  19.211  0.00  0.00    +0.000 C 
ATOM     21  C   UNL     1       1.005   9.332  17.735  0.00  0.00    +0.000 C 
BRANCH  20  22
ATOM     22  C   UNL     1       1.892   7.901  19.621  0.00  0.00    +0.000 C 
BRANCH  22  23
ATOM     23  C   UNL     1       2.348   6.978  18.486  0.00  0.00    +0.000 C 
BRANCH  23  25
ATOM     24  N   UNL     1       4.505   5.914  18.116  0.00  0.00    +0.000 N 
ATOM     25  C   UNL     1       3.444   6.046  18.986  0.00  0.00    +0.000 C 
ATOM     26  O   UNL     1       3.396   5.465  20.065  0.00  0.00    +0.000 OA
ATOM     27  H   UNL     1       4.435   6.302  17.185  0.00  0.00    +0.000 HD
BRANCH  24  28
ATOM     28  C   UNL     1       5.610   5.028  18.420  0.00  0.00    +0.000 C 
BRANCH  28  29
ATOM     29  C   UNL     1       6.894   5.810  18.692  0.00  0.00    +0.000 C 
BRANCH  29  31
ATOM     30  C   UNL     1       7.759   7.962  17.710  0.00  0.00    +0.000 C 
ATOM     31  C   UNL     1       7.388   6.515  17.429  0.00  0.00    +0.000 C 
ENDBRANCH  29  31
ENDBRANCH  28  29
ENDBRANCH  24  28
ENDBRANCH  23  25
ENDBRANCH  22  23
ENDBRANCH  20  22
ENDBRANCH   1  20
BRANCH  15  32
ATOM     32  O   UNL     1      -6.621  14.811  21.699  0.00  0.00    +0.000 OA
ATOM     33  H   UNL     1      -6.798  14.758  20.749  0.00  0.00    +0.000 HD
ENDBRANCH  15  32
BRANCH  19  34
ATOM     34  O   UNL     1      -3.072  11.592  23.612  0.00  0.00    +0.000 OA
ATOM     35  H   UNL     1      -3.889  12.093  23.759  0.00  0.00    +0.000 HD
ENDBRANCH  19  34
TORSDOF 9
ENDMDL
MODEL 8
REMARK VINA RESULT:      -6.5      1.284      1.746
REMARK  Name = 
REMARK  13 active torsions:
REMARK  status: ('A' for Active; 'I' for Inactive)
REMARK    1  A    between atoms: C_1  and  C_2
REMARK    2  A    between atoms: C_2  and  C_3
REMARK    3  A    between atoms: C_3  and  C_4
REMARK    4  A    between atoms: C_4  and  N_5
REMARK    5  A    between atoms: C_6  and  C_8
REMARK    6  A    between atoms: C_8  and  C_9
REMARK    7  A    between atoms: C_9  and  C_10
REMARK    8  A    between atoms: C_10  and  C_11
REMARK    9  A    between atoms: C_10  and  C_12
REMARK   10  A    between atoms: C_20  and  C_21
REMARK   11  A    between atoms: C_22  and  C_23
REMARK   12  A    between atoms: C_26  and  O_27
REMARK   13  A    between atoms: C_31  and  O_32
REMARK                            x       y       z     vdW  Elec       q    Type
REMARK                         _______ _______ _______ _____ _____    ______ ____
ROOT
ATOM      1  C   UNL     1      -0.250  10.004  20.707  0.00  0.00    +0.000 C 
ATOM      2  C   UNL     1      -0.160   9.464  22.169  0.00  0.00    +0.000 C 
ATOM      3  C   UNL     1      -0.778  10.526  23.088  0.00  0.00    +0.000 C 
ATOM      4  C   UNL     1      -1.528  11.433  22.127  0.00  0.00    +0.000 C 
ATOM      5  C   UNL     1      -1.953  12.820  22.631  0.00  0.00    +0.000 C 
ATOM      6  C   UNL     1      -2.708  13.574  21.491  0.00  0.00    +0.000 C 
ATOM      7  C   UNL     1      -1.981  13.502  20.122  0.00  0.00    +0.000 C 
ATOM      8  C   UNL     1      -1.435  12.114  19.762  0.00  0.00    +0.000 C 
ATOM      9  C   UNL     1      -0.589  11.511  20.895  0.00  0.00    +0.000 C 
ATOM     10  C   UNL     1       0.681  12.360  21.162  0.00  0.00    +0.000 C 
ATOM     11  C   UNL     1      -3.077  15.040  21.932  0.00  0.00    +0.000 C 
ATOM     12  C   UNL     1      -1.799  15.877  22.219  0.00  0.00    +0.000 C 
ATOM     13  C   UNL     1      -3.851  15.818  20.826  0.00  0.00    +0.000 C 
ATOM     14  C   UNL     1      -5.267  15.314  20.585  0.00  0.00    +0.000 C 
ATOM     15  C   UNL     1      -6.071  15.343  21.878  0.00  0.00    +0.000 C 
ATOM     16  C   UNL     1      -5.394  14.505  22.958  0.00  0.00    +0.000 C 
ATOM     17  C   UNL     1      -3.951  14.976  23.229  0.00  0.00    +0.000 C 
ATOM     18  C   UNL     1      -3.299  14.144  24.354  0.00  0.00    +0.000 C 
ATOM     19  C   UNL     1      -2.773  12.768  23.935  0.00  0.00    +0.000 C 
ENDROOT
BRANCH   1  20
ATOM     20  C   UNL     1       0.974   9.575  19.834  0.00  0.00    +0.000 C 
ATOM     21  C   UNL     1       0.691   9.656  18.329  0.00  0.00    +0.000 C 
BRANCH  20  22
ATOM     22  C   UNL     1       1.376   8.129  20.223  0.00  0.00    +0.000 C 
BRANCH  22  23
ATOM     23  C   UNL     1       2.501   7.488  19.403  0.00  0.00    +0.000 C 
BRANCH  23  25
ATOM     24  N   UNL     1       2.307   5.485  18.036  0.00  0.00    +0.000 N 
ATOM     25  C   UNL     1       2.287   5.982  19.321  0.00  0.00    +0.000 C 
ATOM     26  O   UNL     1       2.118   5.268  20.304  0.00  0.00    +0.000 OA
ATOM     27  H   UNL     1       2.312   6.127  17.255  0.00  0.00    +0.000 HD
BRANCH  24  28
ATOM     28  C   UNL     1       2.073   4.078  17.778  0.00  0.00    +0.000 C 
BRANCH  28  29
ATOM     29  C   UNL     1       3.365   3.359  17.396  0.00  0.00    +0.000 C 
BRANCH  29  31
ATOM     30  C   UNL     1       5.147   4.149  15.801  0.00  0.00    +0.000 C 
ATOM     31  C   UNL     1       4.502   4.352  17.163  0.00  0.00    +0.000 C 
ENDBRANCH  29  31
ENDBRANCH  28  29
ENDBRANCH  24  28
ENDBRANCH  23  25
ENDBRANCH  22  23
ENDBRANCH  20  22
ENDBRANCH   1  20
BRANCH  15  32
ATOM     32  O   UNL     1      -7.385  14.853  21.637  0.00  0.00    +0.000 OA
ATOM     33  H   UNL     1      -7.412  14.485  20.742  0.00  0.00    +0.000 HD
ENDBRANCH  15  32
BRANCH  19  34
ATOM     34  O   UNL     1      -3.850  11.837  23.875  0.00  0.00    +0.000 OA
ATOM     35  H   UNL     1      -4.530  12.091  24.516  0.00  0.00    +0.000 HD
ENDBRANCH  19  34
TORSDOF 9
ENDMDL
MODEL 9
REMARK VINA RESULT:      -6.4      2.339      2.986
REMARK  Name = 
REMARK  13 active torsions:
REMARK  status: ('A' for Active; 'I' for Inactive)
REMARK    1  A    between atoms: C_1  and  C_2
REMARK    2  A    between atoms: C_2  and  C_3
REMARK    3  A    between atoms: C_3  and  C_4
REMARK    4  A    between atoms: C_4  and  N_5
REMARK    5  A    between atoms: C_6  and  C_8
REMARK    6  A    between atoms: C_8  and  C_9
REMARK    7  A    between atoms: C_9  and  C_10
REMARK    8  A    between atoms: C_10  and  C_11
REMARK    9  A    between atoms: C_10  and  C_12
REMARK   10  A    between atoms: C_20  and  C_21
REMARK   11  A    between atoms: C_22  and  C_23
REMARK   12  A    between atoms: C_26  and  O_27
REMARK   13  A    between atoms: C_31  and  O_32
REMARK                            x       y       z     vdW  Elec       q    Type
REMARK                         _______ _______ _______ _____ _____    ______ ____
ROOT
ATOM      1  C   UNL     1       0.951   8.961  20.050  0.00  0.00    +0.000 C 
ATOM      2  C   UNL     1       1.539   8.933  21.495  0.00  0.00    +0.000 C 
ATOM      3  C   UNL     1       0.869  10.065  22.285  0.00  0.00    +0.000 C 
ATOM      4  C   UNL     1      -0.322  10.444  21.420  0.00  0.00    +0.000 C 
ATOM      5  C   UNL     1      -1.008  11.791  21.691  0.00  0.00    +0.000 C 
ATOM      6  C   UNL     1      -2.199  11.971  20.697  0.00  0.00    +0.000 C 
ATOM      7  C   UNL     1      -1.829  11.640  19.227  0.00  0.00    +0.000 C 
ATOM      8  C   UNL     1      -0.996  10.364  19.052  0.00  0.00    +0.000 C 
ATOM      9  C   UNL     1       0.233  10.341  19.974  0.00  0.00    +0.000 C 
ATOM     10  C   UNL     1       1.219  11.486  19.628  0.00  0.00    +0.000 C 
ATOM     11  C   UNL     1      -2.873  13.383  20.874  0.00  0.00    +0.000 C 
ATOM     12  C   UNL     1      -1.871  14.526  20.546  0.00  0.00    +0.000 C 
ATOM     13  C   UNL     1      -4.080  13.593  19.913  0.00  0.00    +0.000 C 
ATOM     14  C   UNL     1      -5.299  12.742  20.248  0.00  0.00    +0.000 C 
ATOM     15  C   UNL     1      -5.745  12.994  21.682  0.00  0.00    +0.000 C 
ATOM     16  C   UNL     1      -4.616  12.700  22.664  0.00  0.00    +0.000 C 
ATOM     17  C   UNL     1      -3.356  13.535  22.355  0.00  0.00    +0.000 C 
ATOM     18  C   UNL     1      -2.241  13.255  23.384  0.00  0.00    +0.000 C 
ATOM     19  C   UNL     1      -1.444  11.967  23.158  0.00  0.00    +0.000 C 
ENDROOT
BRANCH   1  20
ATOM     20  C   UNL     1       2.004   8.561  18.967  0.00  0.00    +0.000 C 
ATOM     21  C   UNL     1       1.456   8.654  17.538  0.00  0.00    +0.000 C 
BRANCH  20  22
ATOM     22  C   UNL     1       2.490   7.118  19.258  0.00  0.00    +0.000 C 
BRANCH  22  23
ATOM     23  C   UNL     1       2.881   6.269  18.044  0.00  0.00    +0.000 C 
BRANCH  23  25
ATOM     24  N   UNL     1       5.231   5.756  17.679  0.00  0.00    +0.000 N 
ATOM     25  C   UNL     1       4.095   5.414  18.380  0.00  0.00    +0.000 C 
ATOM     26  O   UNL     1       4.074   4.504  19.203  0.00  0.00    +0.000 OA
ATOM     27  H   UNL     1       5.165   6.417  16.917  0.00  0.00    +0.000 HD
BRANCH  24  28
ATOM     28  C   UNL     1       6.462   5.010  17.847  0.00  0.00    +0.000 C 
BRANCH  28  29
ATOM     29  C   UNL     1       7.026   4.553  16.503  0.00  0.00    +0.000 C 
BRANCH  29  31
ATOM     30  C   UNL     1       6.049   4.188  14.210  0.00  0.00    +0.000 C 
ATOM     31  C   UNL     1       5.969   3.817  15.683  0.00  0.00    +0.000 C 
ENDBRANCH  29  31
ENDBRANCH  28  29
ENDBRANCH  24  28
ENDBRANCH  23  25
ENDBRANCH  22  23
ENDBRANCH  20  22
ENDBRANCH   1  20
BRANCH  15  32
ATOM     32  O   UNL     1      -6.873  12.179  21.983  0.00  0.00    +0.000 OA
ATOM     33  H   UNL     1      -6.701  11.718  22.817  0.00  0.00    +0.000 HD
ENDBRANCH  15  32
BRANCH  19  34
ATOM     34  O   UNL     1      -2.178  10.851  23.655  0.00  0.00    +0.000 OA
ATOM     35  H   UNL     1      -2.912  11.167  24.202  0.00  0.00    +0.000 HD
ENDBRANCH  19  34
TORSDOF 9
ENDMDL
