MODEL 1
REMARK VINA RESULT:      -9.2      0.000      0.000
REMARK  Name = 
REMARK  6 active torsions:
REMARK  status: ('A' for Active; 'I' for Inactive)
REMARK    1  A    between atoms: C_1  and  N_2
REMARK    2  A    between atoms: C_4  and  C_5
REMARK    3  A    between atoms: C_5  and  C_7
REMARK    4  A    between atoms: C_12  and  N_13
REMARK    5  A    between atoms: N_13  and  C_14
REMARK    6  A    between atoms: C_14  and  C_15
REMARK                            x       y       z     vdW  Elec       q    Type
REMARK                         _______ _______ _______ _____ _____    ______ ____
ROOT
ATOM      1  C   UNL     1       3.242   3.269  19.554  0.00  0.00    +0.000 A 
ATOM      2  C   UNL     1       2.582   2.098  19.104  0.00  0.00    +0.000 A 
ATOM      3  C   UNL     1       1.207   2.073  18.895  0.00  0.00    +0.000 A 
ATOM      4  C   UNL     1       0.465   3.214  19.144  0.00  0.00    +0.000 A 
ATOM      5  C   UNL     1       1.100   4.376  19.588  0.00  0.00    +0.000 A 
ATOM      6  C   UNL     1       2.495   4.449  19.802  0.00  0.00    +0.000 A 
ENDROOT
BRANCH   1   7
ATOM      7  C   UNL     1       4.727   3.142  19.640  0.00  0.00    +0.000 C 
ATOM      8  O   UNL     1       5.184   2.239  20.347  0.00  0.00    +0.000 OA
BRANCH   7  12
ATOM      9  C   UNL     1       7.844   6.683  18.732  0.00  0.00    +0.000 C 
ATOM     10  N   UNL     1       6.993   5.558  18.430  0.00  0.00    +0.000 N 
ATOM     11  N   UNL     1       6.594   4.752  19.430  0.00  0.00    +0.000 NA
ATOM     12  C   UNL     1       5.606   4.025  18.879  0.00  0.00    +0.000 A 
ATOM     13  C   UNL     1       5.548   4.226  17.467  0.00  0.00    +0.000 A 
ATOM     14  C   UNL     1       4.790   3.692  16.406  0.00  0.00    +0.000 A 
ATOM     15  C   UNL     1       4.944   4.225  15.123  0.00  0.00    +0.000 A 
ATOM     16  C   UNL     1       5.835   5.272  14.894  0.00  0.00    +0.000 A 
ATOM     17  C   UNL     1       6.607   5.808  15.931  0.00  0.00    +0.000 A 
ATOM     18  C   UNL     1       6.442   5.258  17.209  0.00  0.00    +0.000 A 
ENDBRANCH   7  12
ENDBRANCH   1   7
BRANCH   6  19
ATOM     19  N   UNL     1       3.118   5.702  20.064  0.00  0.00    +0.000 N 
ATOM     20  H   UNL     1       4.088   5.533  20.318  0.00  0.00    +0.000 HD
BRANCH  19  21
ATOM     21  C   UNL     1       3.026   6.705  18.999  0.00  0.00    +0.000 C 
BRANCH  21  22
ATOM     22  C   UNL     1       2.138   7.903  19.288  0.00  0.00    +0.000 A 
ATOM     23  C   UNL     1       1.590   7.974  20.589  0.00  0.00    +0.000 A 
ATOM     24  C   UNL     1       0.634   8.935  20.943  0.00  0.00    +0.000 A 
ATOM     25  C   UNL     1       0.214   9.842  19.964  0.00  0.00    +0.000 A 
ATOM     26  C   UNL     1      -0.737  10.882  19.884  0.00  0.00    +0.000 A 
ATOM     27  N   UNL     1      -0.766  11.465  18.684  0.00  0.00    +0.000 NA
ATOM     28  N   UNL     1       0.167  10.787  17.988  0.00  0.00    +0.000 N 
ATOM     29  C   UNL     1       0.786   9.791  18.695  0.00  0.00    +0.000 A 
ATOM     30  C   UNL     1       1.761   8.851  18.329  0.00  0.00    +0.000 A 
ATOM     31  H   UNL     1       0.323  11.041  17.019  0.00  0.00    +0.000 HD
ENDBRANCH  21  22
ENDBRANCH  19  21
ENDBRANCH   6  19
TORSDOF 5
ENDMDL
MODEL 2
REMARK VINA RESULT:      -9.1      1.338      1.634
REMARK  Name = 
REMARK  6 active torsions:
REMARK  status: ('A' for Active; 'I' for Inactive)
REMARK    1  A    between atoms: C_1  and  N_2
REMARK    2  A    between atoms: C_4  and  C_5
REMARK    3  A    between atoms: C_5  and  C_7
REMARK    4  A    between atoms: C_12  and  N_13
REMARK    5  A    between atoms: N_13  and  C_14
REMARK    6  A    between atoms: C_14  and  C_15
REMARK                            x       y       z     vdW  Elec       q    Type
REMARK                         _______ _______ _______ _____ _____    ______ ____
ROOT
ATOM      1  C   UNL     1       3.253   3.318  19.497  0.00  0.00    +0.000 A 
ATOM      2  C   UNL     1       2.600   2.153  19.021  0.00  0.00    +0.000 A 
ATOM      3  C   UNL     1       1.230   2.133  18.786  0.00  0.00    +0.000 A 
ATOM      4  C   UNL     1       0.484   3.272  19.034  0.00  0.00    +0.000 A 
ATOM      5  C   UNL     1       1.113   4.428  19.503  0.00  0.00    +0.000 A 
ATOM      6  C   UNL     1       2.504   4.496  19.745  0.00  0.00    +0.000 A 
ENDROOT
BRANCH   1   7
ATOM      7  C   UNL     1       4.736   3.188  19.610  0.00  0.00    +0.000 C 
ATOM      8  O   UNL     1       5.179   2.290  20.333  0.00  0.00    +0.000 OA
BRANCH   7  12
ATOM      9  C   UNL     1       7.907   6.688  18.729  0.00  0.00    +0.000 C 
ATOM     10  N   UNL     1       7.041   5.576  18.419  0.00  0.00    +0.000 N 
ATOM     11  N   UNL     1       6.626   4.772  19.414  0.00  0.00    +0.000 NA
ATOM     12  C   UNL     1       5.631   4.060  18.856  0.00  0.00    +0.000 A 
ATOM     13  C   UNL     1       5.581   4.268  17.445  0.00  0.00    +0.000 A 
ATOM     14  C   UNL     1       4.821   3.748  16.379  0.00  0.00    +0.000 A 
ATOM     15  C   UNL     1       4.988   4.284  15.098  0.00  0.00    +0.000 A 
ATOM     16  C   UNL     1       5.894   5.319  14.877  0.00  0.00    +0.000 A 
ATOM     17  C   UNL     1       6.670   5.840  15.919  0.00  0.00    +0.000 A 
ATOM     18  C   UNL     1       6.492   5.288  17.195  0.00  0.00    +0.000 A 
ENDBRANCH   7  12
ENDBRANCH   1   7
BRANCH   6  19
ATOM     19  N   UNL     1       3.123   5.746  20.033  0.00  0.00    +0.000 N 
ATOM     20  H   UNL     1       4.132   5.615  20.022  0.00  0.00    +0.000 HD
BRANCH  19  21
ATOM     21  C   UNL     1       2.735   6.871  19.178  0.00  0.00    +0.000 C 
BRANCH  21  22
ATOM     22  C   UNL     1       1.845   7.920  19.823  0.00  0.00    +0.000 A 
ATOM     23  C   UNL     1       1.487   9.019  19.010  0.00  0.00    +0.000 A 
ATOM     24  C   UNL     1       0.804  10.132  19.519  0.00  0.00    +0.000 A 
ATOM     25  C   UNL     1       0.479  10.142  20.880  0.00  0.00    +0.000 A 
ATOM     26  C   UNL     1      -0.121  11.055  21.774  0.00  0.00    +0.000 A 
ATOM     27  N   UNL     1      -0.200  10.582  23.019  0.00  0.00    +0.000 NA
ATOM     28  N   UNL     1       0.361   9.361  22.923  0.00  0.00    +0.000 N 
ATOM     29  C   UNL     1       0.800   9.038  21.667  0.00  0.00    +0.000 A 
ATOM     30  C   UNL     1       1.463   7.906  21.170  0.00  0.00    +0.000 A 
ATOM     31  H   UNL     1       0.433   8.798  23.763  0.00  0.00    +0.000 HD
ENDBRANCH  21  22
ENDBRANCH  19  21
ENDBRANCH   6  19
TORSDOF 5
ENDMDL
MODEL 3
REMARK VINA RESULT:      -9.0      1.039      1.956
REMARK  Name = 
REMARK  6 active torsions:
REMARK  status: ('A' for Active; 'I' for Inactive)
REMARK    1  A    between atoms: C_1  and  N_2
REMARK    2  A    between atoms: C_4  and  C_5
REMARK    3  A    between atoms: C_5  and  C_7
REMARK    4  A    between atoms: C_12  and  N_13
REMARK    5  A    between atoms: N_13  and  C_14
REMARK    6  A    between atoms: C_14  and  C_15
REMARK                            x       y       z     vdW  Elec       q    Type
REMARK                         _______ _______ _______ _____ _____    ______ ____
ROOT
ATOM      1  C   UNL     1       3.026   3.242  19.519  0.00  0.00    +0.000 A 
ATOM      2  C   UNL     1       2.304   2.089  19.121  0.00  0.00    +0.000 A 
ATOM      3  C   UNL     1       0.928   1.995  19.299  0.00  0.00    +0.000 A 
ATOM      4  C   UNL     1       0.250   3.045  19.891  0.00  0.00    +0.000 A 
ATOM      5  C   UNL     1       0.946   4.189  20.290  0.00  0.00    +0.000 A 
ATOM      6  C   UNL     1       2.341   4.332  20.117  0.00  0.00    +0.000 A 
ENDROOT
BRANCH   1   7
ATOM      7  C   UNL     1       4.478   3.209  19.174  0.00  0.00    +0.000 C 
ATOM      8  O   UNL     1       5.211   2.485  19.854  0.00  0.00    +0.000 OA
BRANCH   7  12
ATOM      9  C   UNL     1       5.567   4.318  14.628  0.00  0.00    +0.000 C 
ATOM     10  N   UNL     1       5.486   4.511  16.056  0.00  0.00    +0.000 N 
ATOM     11  N   UNL     1       4.619   3.771  16.769  0.00  0.00    +0.000 NA
ATOM     12  C   UNL     1       5.003   3.967  18.042  0.00  0.00    +0.000 A 
ATOM     13  C   UNL     1       5.970   5.013  18.131  0.00  0.00    +0.000 A 
ATOM     14  C   UNL     1       6.646   5.671  19.177  0.00  0.00    +0.000 A 
ATOM     15  C   UNL     1       7.636   6.608  18.864  0.00  0.00    +0.000 A 
ATOM     16  C   UNL     1       7.952   6.889  17.537  0.00  0.00    +0.000 A 
ATOM     17  C   UNL     1       7.283   6.257  16.482  0.00  0.00    +0.000 A 
ATOM     18  C   UNL     1       6.291   5.323  16.814  0.00  0.00    +0.000 A 
ENDBRANCH   7  12
ENDBRANCH   1   7
BRANCH   6  19
ATOM     19  N   UNL     1       2.971   5.586  20.358  0.00  0.00    +0.000 N 
ATOM     20  H   UNL     1       3.934   5.415  20.636  0.00  0.00    +0.000 HD
BRANCH  19  21
ATOM     21  C   UNL     1       2.911   6.560  19.264  0.00  0.00    +0.000 C 
BRANCH  21  22
ATOM     22  C   UNL     1       2.064   7.795  19.519  0.00  0.00    +0.000 A 
ATOM     23  C   UNL     1       1.459   7.884  20.793  0.00  0.00    +0.000 A 
ATOM     24  C   UNL     1       0.530   8.885  21.108  0.00  0.00    +0.000 A 
ATOM     25  C   UNL     1       0.198   9.815  20.116  0.00  0.00    +0.000 A 
ATOM     26  C   UNL     1      -0.701  10.897  19.999  0.00  0.00    +0.000 A 
ATOM     27  N   UNL     1      -0.647  11.486  18.803  0.00  0.00    +0.000 NA
ATOM     28  N   UNL     1       0.287  10.770  18.147  0.00  0.00    +0.000 N 
ATOM     29  C   UNL     1       0.828   9.745  18.876  0.00  0.00    +0.000 A 
ATOM     30  C   UNL     1       1.776   8.763  18.550  0.00  0.00    +0.000 A 
ATOM     31  H   UNL     1       0.500  11.022  17.189  0.00  0.00    +0.000 HD
ENDBRANCH  21  22
ENDBRANCH  19  21
ENDBRANCH   6  19
TORSDOF 5
ENDMDL
MODEL 4
REMARK VINA RESULT:      -9.0      1.695      2.564
REMARK  Name = 
REMARK  6 active torsions:
REMARK  status: ('A' for Active; 'I' for Inactive)
REMARK    1  A    between atoms: C_1  and  N_2
REMARK    2  A    between atoms: C_4  and  C_5
REMARK    3  A    between atoms: C_5  and  C_7
REMARK    4  A    between atoms: C_12  and  N_13
REMARK    5  A    between atoms: N_13  and  C_14
REMARK    6  A    between atoms: C_14  and  C_15
REMARK                            x       y       z     vdW  Elec       q    Type
REMARK                         _______ _______ _______ _____ _____    ______ ____
ROOT
ATOM      1  C   UNL     1       3.049   3.308  19.538  0.00  0.00    +0.000 A 
ATOM      2  C   UNL     1       2.303   2.153  19.196  0.00  0.00    +0.000 A 
ATOM      3  C   UNL     1       0.933   2.078  19.422  0.00  0.00    +0.000 A 
ATOM      4  C   UNL     1       0.285   3.152  20.006  0.00  0.00    +0.000 A 
ATOM      5  C   UNL     1       1.005   4.298  20.350  0.00  0.00    +0.000 A 
ATOM      6  C   UNL     1       2.395   4.421  20.128  0.00  0.00    +0.000 A 
ENDROOT
BRANCH   1   7
ATOM      7  C   UNL     1       4.488   3.249  19.147  0.00  0.00    +0.000 C 
ATOM      8  O   UNL     1       5.219   2.472  19.769  0.00  0.00    +0.000 OA
BRANCH   7  12
ATOM      9  C   UNL     1       5.514   4.524  14.630  0.00  0.00    +0.000 C 
ATOM     10  N   UNL     1       5.459   4.662  16.065  0.00  0.00    +0.000 N 
ATOM     11  N   UNL     1       4.596   3.903  16.763  0.00  0.00    +0.000 NA
ATOM     12  C   UNL     1       5.002   4.046  18.037  0.00  0.00    +0.000 A 
ATOM     13  C   UNL     1       5.982   5.078  18.150  0.00  0.00    +0.000 A 
ATOM     14  C   UNL     1       6.682   5.688  19.209  0.00  0.00    +0.000 A 
ATOM     15  C   UNL     1       7.675   6.627  18.917  0.00  0.00    +0.000 A 
ATOM     16  C   UNL     1       7.973   6.956  17.596  0.00  0.00    +0.000 A 
ATOM     17  C   UNL     1       7.280   6.373  16.529  0.00  0.00    +0.000 A 
ATOM     18  C   UNL     1       6.284   5.436  16.841  0.00  0.00    +0.000 A 
ENDBRANCH   7  12
ENDBRANCH   1   7
BRANCH   6  19
ATOM     19  N   UNL     1       3.045   5.675  20.313  0.00  0.00    +0.000 N 
ATOM     20  H   UNL     1       4.051   5.524  20.285  0.00  0.00    +0.000 HD
BRANCH  19  21
ATOM     21  C   UNL     1       2.655   6.747  19.393  0.00  0.00    +0.000 C 
BRANCH  21  22
ATOM     22  C   UNL     1       1.779   7.841  19.980  0.00  0.00    +0.000 A 
ATOM     23  C   UNL     1       1.476   8.924  19.123  0.00  0.00    +0.000 A 
ATOM     24  C   UNL     1       0.813  10.071  19.578  0.00  0.00    +0.000 A 
ATOM     25  C   UNL     1       0.451  10.133  20.929  0.00  0.00    +0.000 A 
ATOM     26  C   UNL     1      -0.146  11.091  21.777  0.00  0.00    +0.000 A 
ATOM     27  N   UNL     1      -0.273  10.660  23.034  0.00  0.00    +0.000 NA
ATOM     28  N   UNL     1       0.254   9.421  22.991  0.00  0.00    +0.000 N 
ATOM     29  C   UNL     1       0.718   9.046  21.759  0.00  0.00    +0.000 A 
ATOM     30  C   UNL     1       1.361   7.880  21.315  0.00  0.00    +0.000 A 
ATOM     31  H   UNL     1       0.287   8.883  23.850  0.00  0.00    +0.000 HD
ENDBRANCH  21  22
ENDBRANCH  19  21
ENDBRANCH   6  19
TORSDOF 5
ENDMDL
MODEL 5
REMARK VINA RESULT:      -8.9      1.790      2.668
REMARK  Name = 
REMARK  6 active torsions:
REMARK  status: ('A' for Active; 'I' for Inactive)
REMARK    1  A    between atoms: C_1  and  N_2
REMARK    2  A    between atoms: C_4  and  C_5
REMARK    3  A    between atoms: C_5  and  C_7
REMARK    4  A    between atoms: C_12  and  N_13
REMARK    5  A    between atoms: N_13  and  C_14
REMARK    6  A    between atoms: C_14  and  C_15
REMARK                            x       y       z     vdW  Elec       q    Type
REMARK                         _______ _______ _______ _____ _____    ______ ____
ROOT
ATOM      1  C   UNL     1       3.147   3.304  19.243  0.00  0.00    +0.000 A 
ATOM      2  C   UNL     1       3.253   2.366  20.300  0.00  0.00    +0.000 A 
ATOM      3  C   UNL     1       2.571   2.541  21.499  0.00  0.00    +0.000 A 
ATOM      4  C   UNL     1       1.779   3.663  21.669  0.00  0.00    +0.000 A 
ATOM      5  C   UNL     1       1.664   4.598  20.637  0.00  0.00    +0.000 A 
ATOM      6  C   UNL     1       2.330   4.454  19.399  0.00  0.00    +0.000 A 
ENDROOT
BRANCH   1   7
ATOM      7  C   UNL     1       3.876   2.915  18.000  0.00  0.00    +0.000 C 
ATOM      8  O   UNL     1       3.674   1.784  17.548  0.00  0.00    +0.000 OA
BRANCH   7  12
ATOM      9  C   UNL     1       6.349   4.972  14.431  0.00  0.00    +0.000 C 
ATOM     10  N   UNL     1       5.851   4.810  15.775  0.00  0.00    +0.000 N 
ATOM     11  N   UNL     1       4.769   4.039  15.985  0.00  0.00    +0.000 NA
ATOM     12  C   UNL     1       4.760   3.855  17.317  0.00  0.00    +0.000 A 
ATOM     13  C   UNL     1       5.711   4.704  17.957  0.00  0.00    +0.000 A 
ATOM     14  C   UNL     1       6.074   4.980  19.290  0.00  0.00    +0.000 A 
ATOM     15  C   UNL     1       7.162   5.823  19.538  0.00  0.00    +0.000 A 
ATOM     16  C   UNL     1       7.880   6.383  18.484  0.00  0.00    +0.000 A 
ATOM     17  C   UNL     1       7.527   6.133  17.153  0.00  0.00    +0.000 A 
ATOM     18  C   UNL     1       6.432   5.289  16.923  0.00  0.00    +0.000 A 
ENDBRANCH   7  12
ENDBRANCH   1   7
BRANCH   6  19
ATOM     19  N   UNL     1       2.028   5.325  18.314  0.00  0.00    +0.000 N 
ATOM     20  H   UNL     1       1.023   5.483  18.298  0.00  0.00    +0.000 HD
BRANCH  19  21
ATOM     21  C   UNL     1       2.755   6.597  18.284  0.00  0.00    +0.000 C 
BRANCH  21  22
ATOM     22  C   UNL     1       2.014   7.800  18.843  0.00  0.00    +0.000 A 
ATOM     23  C   UNL     1       1.705   8.826  17.920  0.00  0.00    +0.000 A 
ATOM     24  C   UNL     1       1.166  10.054  18.325  0.00  0.00    +0.000 A 
ATOM     25  C   UNL     1       0.938  10.258  19.691  0.00  0.00    +0.000 A 
ATOM     26  C   UNL     1       0.489  11.328  20.496  0.00  0.00    +0.000 A 
ATOM     27  N   UNL     1       0.453  11.016  21.793  0.00  0.00    +0.000 NA
ATOM     28  N   UNL     1       0.889   9.742  21.819  0.00  0.00    +0.000 N 
ATOM     29  C   UNL     1       1.208   9.229  20.590  0.00  0.00    +0.000 A 
ATOM     30  C   UNL     1       1.727   7.985  20.200  0.00  0.00    +0.000 A 
ATOM     31  H   UNL     1       0.966   9.278  22.717  0.00  0.00    +0.000 HD
ENDBRANCH  21  22
ENDBRANCH  19  21
ENDBRANCH   6  19
TORSDOF 5
ENDMDL
MODEL 6
REMARK VINA RESULT:      -8.9      1.835      2.149
REMARK  Name = 
REMARK  6 active torsions:
REMARK  status: ('A' for Active; 'I' for Inactive)
REMARK    1  A    between atoms: C_1  and  N_2
REMARK    2  A    between atoms: C_4  and  C_5
REMARK    3  A    between atoms: C_5  and  C_7
REMARK    4  A    between atoms: C_12  and  N_13
REMARK    5  A    between atoms: N_13  and  C_14
REMARK    6  A    between atoms: C_14  and  C_15
REMARK                            x       y       z     vdW  Elec       q    Type
REMARK                         _______ _______ _______ _____ _____    ______ ____
ROOT
ATOM      1  C   UNL     1       2.853   3.572  19.185  0.00  0.00    +0.000 A 
ATOM      2  C   UNL     1       2.154   2.377  19.489  0.00  0.00    +0.000 A 
ATOM      3  C   UNL     1       1.501   2.206  20.704  0.00  0.00    +0.000 A 
ATOM      4  C   UNL     1       1.546   3.220  21.645  0.00  0.00    +0.000 A 
ATOM      5  C   UNL     1       2.231   4.404  21.361  0.00  0.00    +0.000 A 
ATOM      6  C   UNL     1       2.899   4.625  20.135  0.00  0.00    +0.000 A 
ENDROOT
BRANCH   1   7
ATOM      7  C   UNL     1       3.420   3.619  17.805  0.00  0.00    +0.000 C 
ATOM      8  O   UNL     1       2.663   3.354  16.866  0.00  0.00    +0.000 OA
BRANCH   7  12
ATOM      9  C   UNL     1       7.772   5.466  18.662  0.00  0.00    +0.000 C 
ATOM     10  N   UNL     1       6.744   4.792  17.905  0.00  0.00    +0.000 N 
ATOM     11  N   UNL     1       5.684   4.278  18.554  0.00  0.00    +0.000 NA
ATOM     12  C   UNL     1       4.806   4.011  17.570  0.00  0.00    +0.000 A 
ATOM     13  C   UNL     1       5.416   4.151  16.287  0.00  0.00    +0.000 A 
ATOM     14  C   UNL     1       5.014   3.937  14.954  0.00  0.00    +0.000 A 
ATOM     15  C   UNL     1       5.879   4.294  13.916  0.00  0.00    +0.000 A 
ATOM     16  C   UNL     1       7.124   4.855  14.193  0.00  0.00    +0.000 A 
ATOM     17  C   UNL     1       7.549   5.063  15.510  0.00  0.00    +0.000 A 
ATOM     18  C   UNL     1       6.670   4.695  16.538  0.00  0.00    +0.000 A 
ENDBRANCH   7  12
ENDBRANCH   1   7
BRANCH   6  19
ATOM     19  N   UNL     1       3.412   5.914  19.818  0.00  0.00    +0.000 N 
ATOM     20  H   UNL     1       4.345   5.803  19.427  0.00  0.00    +0.000 HD
BRANCH  19  21
ATOM     21  C   UNL     1       2.578   6.746  18.946  0.00  0.00    +0.000 C 
BRANCH  21  22
ATOM     22  C   UNL     1       1.774   7.835  19.636  0.00  0.00    +0.000 A 
ATOM     23  C   UNL     1       1.466   8.972  18.854  0.00  0.00    +0.000 A 
ATOM     24  C   UNL     1       0.869  10.114  19.404  0.00  0.00    +0.000 A 
ATOM     25  C   UNL     1       0.579  10.114  20.773  0.00  0.00    +0.000 A 
ATOM     26  C   UNL     1       0.061  11.044  21.701  0.00  0.00    +0.000 A 
ATOM     27  N   UNL     1      -0.016  10.550  22.938  0.00  0.00    +0.000 NA
ATOM     28  N   UNL     1       0.464   9.298  22.803  0.00  0.00    +0.000 N 
ATOM     29  C   UNL     1       0.849   8.976  21.529  0.00  0.00    +0.000 A 
ATOM     30  C   UNL     1       1.426   7.815  20.991  0.00  0.00    +0.000 A 
ATOM     31  H   UNL     1       0.521   8.714  23.629  0.00  0.00    +0.000 HD
ENDBRANCH  21  22
ENDBRANCH  19  21
ENDBRANCH   6  19
TORSDOF 5
ENDMDL
MODEL 7
REMARK VINA RESULT:      -8.8      1.559      1.884
REMARK  Name = 
REMARK  6 active torsions:
REMARK  status: ('A' for Active; 'I' for Inactive)
REMARK    1  A    between atoms: C_1  and  N_2
REMARK    2  A    between atoms: C_4  and  C_5
REMARK    3  A    between atoms: C_5  and  C_7
REMARK    4  A    between atoms: C_12  and  N_13
REMARK    5  A    between atoms: N_13  and  C_14
REMARK    6  A    between atoms: C_14  and  C_15
REMARK                            x       y       z     vdW  Elec       q    Type
REMARK                         _______ _______ _______ _____ _____    ______ ____
ROOT
ATOM      1  C   UNL     1       3.133   3.314  19.343  0.00  0.00    +0.000 A 
ATOM      2  C   UNL     1       3.158   2.375  20.405  0.00  0.00    +0.000 A 
ATOM      3  C   UNL     1       2.342   2.518  21.521  0.00  0.00    +0.000 A 
ATOM      4  C   UNL     1       1.495   3.609  21.604  0.00  0.00    +0.000 A 
ATOM      5  C   UNL     1       1.459   4.544  20.567  0.00  0.00    +0.000 A 
ATOM      6  C   UNL     1       2.262   4.431  19.410  0.00  0.00    +0.000 A 
ENDROOT
BRANCH   1   7
ATOM      7  C   UNL     1       4.009   2.959  18.187  0.00  0.00    +0.000 C 
ATOM      8  O   UNL     1       3.660   2.014  17.474  0.00  0.00    +0.000 OA
BRANCH   7  12
ATOM      9  C   UNL     1       7.640   6.044  18.805  0.00  0.00    +0.000 C 
ATOM     10  N   UNL     1       6.837   5.064  18.113  0.00  0.00    +0.000 N 
ATOM     11  N   UNL     1       5.996   4.289  18.821  0.00  0.00    +0.000 NA
ATOM     12  C   UNL     1       5.209   3.732  17.884  0.00  0.00    +0.000 A 
ATOM     13  C   UNL     1       5.713   3.989  16.573  0.00  0.00    +0.000 A 
ATOM     14  C   UNL     1       5.353   3.607  15.266  0.00  0.00    +0.000 A 
ATOM     15  C   UNL     1       6.044   4.158  14.182  0.00  0.00    +0.000 A 
ATOM     16  C   UNL     1       7.074   5.073  14.389  0.00  0.00    +0.000 A 
ATOM     17  C   UNL     1       7.456   5.455  15.680  0.00  0.00    +0.000 A 
ATOM     18  C   UNL     1       6.756   4.890  16.755  0.00  0.00    +0.000 A 
ENDBRANCH   7  12
ENDBRANCH   1   7
BRANCH   6  19
ATOM     19  N   UNL     1       2.048   5.297  18.299  0.00  0.00    +0.000 N 
ATOM     20  H   UNL     1       1.050   5.478  18.220  0.00  0.00    +0.000 HD
BRANCH  19  21
ATOM     21  C   UNL     1       2.806   6.551  18.302  0.00  0.00    +0.000 C 
BRANCH  21  22
ATOM     22  C   UNL     1       2.070   7.772  18.826  0.00  0.00    +0.000 A 
ATOM     23  C   UNL     1       1.800   8.790  17.883  0.00  0.00    +0.000 A 
ATOM     24  C   UNL     1       1.270  10.031  18.258  0.00  0.00    +0.000 A 
ATOM     25  C   UNL     1       1.011  10.257  19.615  0.00  0.00    +0.000 A 
ATOM     26  C   UNL     1       0.560  11.344  20.395  0.00  0.00    +0.000 A 
ATOM     27  N   UNL     1       0.486  11.050  21.694  0.00  0.00    +0.000 NA
ATOM     28  N   UNL     1       0.902   9.770  21.747  0.00  0.00    +0.000 N 
ATOM     29  C   UNL     1       1.244   9.237  20.534  0.00  0.00    +0.000 A 
ATOM     30  C   UNL     1       1.752   7.979  20.173  0.00  0.00    +0.000 A 
ATOM     31  H   UNL     1       0.950   9.317  22.653  0.00  0.00    +0.000 HD
ENDBRANCH  21  22
ENDBRANCH  19  21
ENDBRANCH   6  19
TORSDOF 5
ENDMDL
MODEL 8
REMARK VINA RESULT:      -8.8      1.176      1.262
REMARK  Name = 
REMARK  6 active torsions:
REMARK  status: ('A' for Active; 'I' for Inactive)
REMARK    1  A    between atoms: C_1  and  N_2
REMARK    2  A    between atoms: C_4  and  C_5
REMARK    3  A    between atoms: C_5  and  C_7
REMARK    4  A    between atoms: C_12  and  N_13
REMARK    5  A    between atoms: N_13  and  C_14
REMARK    6  A    between atoms: C_14  and  C_15
REMARK                            x       y       z     vdW  Elec       q    Type
REMARK                         _______ _______ _______ _____ _____    ______ ____
ROOT
ATOM      1  C   UNL     1       2.940   3.320  19.196  0.00  0.00    +0.000 A 
ATOM      2  C   UNL     1       2.763   2.301  20.164  0.00  0.00    +0.000 A 
ATOM      3  C   UNL     1       1.887   2.457  21.233  0.00  0.00    +0.000 A 
ATOM      4  C   UNL     1       1.181   3.640  21.361  0.00  0.00    +0.000 A 
ATOM      5  C   UNL     1       1.343   4.655  20.415  0.00  0.00    +0.000 A 
ATOM      6  C   UNL     1       2.214   4.534  19.308  0.00  0.00    +0.000 A 
ENDROOT
BRANCH   1   7
ATOM      7  C   UNL     1       3.851   2.950  18.072  0.00  0.00    +0.000 C 
ATOM      8  O   UNL     1       3.507   2.018  17.339  0.00  0.00    +0.000 OA
BRANCH   7  12
ATOM      9  C   UNL     1       7.563   5.893  18.875  0.00  0.00    +0.000 C 
ATOM     10  N   UNL     1       6.744   4.965  18.132  0.00  0.00    +0.000 N 
ATOM     11  N   UNL     1       5.865   4.192  18.794  0.00  0.00    +0.000 NA
ATOM     12  C   UNL     1       5.081   3.695  17.821  0.00  0.00    +0.000 A 
ATOM     13  C   UNL     1       5.620   3.983  16.531  0.00  0.00    +0.000 A 
ATOM     14  C   UNL     1       5.276   3.661  15.204  0.00  0.00    +0.000 A 
ATOM     15  C   UNL     1       6.005   4.228  14.155  0.00  0.00    +0.000 A 
ATOM     16  C   UNL     1       7.059   5.102  14.416  0.00  0.00    +0.000 A 
ATOM     17  C   UNL     1       7.426   5.424  15.727  0.00  0.00    +0.000 A 
ATOM     18  C   UNL     1       6.686   4.843  16.766  0.00  0.00    +0.000 A 
ENDBRANCH   7  12
ENDBRANCH   1   7
BRANCH   6  19
ATOM     19  N   UNL     1       2.198   5.510  18.271  0.00  0.00    +0.000 N 
ATOM     20  H   UNL     1       1.229   5.715  18.037  0.00  0.00    +0.000 HD
BRANCH  19  21
ATOM     21  C   UNL     1       2.942   6.744  18.533  0.00  0.00    +0.000 C 
BRANCH  21  22
ATOM     22  C   UNL     1       2.109   7.954  18.922  0.00  0.00    +0.000 A 
ATOM     23  C   UNL     1       1.794   8.079  20.294  0.00  0.00    +0.000 A 
ATOM     24  C   UNL     1       0.907   9.054  20.768  0.00  0.00    +0.000 A 
ATOM     25  C   UNL     1       0.319   9.921  19.840  0.00  0.00    +0.000 A 
ATOM     26  C   UNL     1      -0.639  10.957  19.883  0.00  0.00    +0.000 A 
ATOM     27  N   UNL     1      -0.878  11.490  18.684  0.00  0.00    +0.000 NA
ATOM     28  N   UNL     1      -0.074  10.783  17.865  0.00  0.00    +0.000 N 
ATOM     29  C   UNL     1       0.664   9.817  18.494  0.00  0.00    +0.000 A 
ATOM     30  C   UNL     1       1.568   8.862  18.004  0.00  0.00    +0.000 A 
ATOM     31  H   UNL     1      -0.090  10.997  16.874  0.00  0.00    +0.000 HD
ENDBRANCH  21  22
ENDBRANCH  19  21
ENDBRANCH   6  19
TORSDOF 5
ENDMDL
MODEL 9
REMARK VINA RESULT:      -8.7      1.617      2.391
REMARK  Name = 
REMARK  6 active torsions:
REMARK  status: ('A' for Active; 'I' for Inactive)
REMARK    1  A    between atoms: C_1  and  N_2
REMARK    2  A    between atoms: C_4  and  C_5
REMARK    3  A    between atoms: C_5  and  C_7
REMARK    4  A    between atoms: C_12  and  N_13
REMARK    5  A    between atoms: N_13  and  C_14
REMARK    6  A    between atoms: C_14  and  C_15
REMARK                            x       y       z     vdW  Elec       q    Type
REMARK                         _______ _______ _______ _____ _____    ______ ____
ROOT
ATOM      1  C   UNL     1       2.840   3.521  19.010  0.00  0.00    +0.000 A 
ATOM      2  C   UNL     1       3.065   2.441  19.900  0.00  0.00    +0.000 A 
ATOM      3  C   UNL     1       2.653   2.495  21.227  0.00  0.00    +0.000 A 
ATOM      4  C   UNL     1       2.020   3.634  21.693  0.00  0.00    +0.000 A 
ATOM      5  C   UNL     1       1.790   4.707  20.828  0.00  0.00    +0.000 A 
ATOM      6  C   UNL     1       2.182   4.690  19.471  0.00  0.00    +0.000 A 
ENDROOT
BRANCH   1   7
ATOM      7  C   UNL     1       3.268   3.258  17.604  0.00  0.00    +0.000 C 
ATOM      8  O   UNL     1       2.593   2.468  16.938  0.00  0.00    +0.000 OA
BRANCH   7  12
ATOM      9  C   UNL     1       6.600   4.495  14.371  0.00  0.00    +0.000 C 
ATOM     10  N   UNL     1       5.892   4.540  15.628  0.00  0.00    +0.000 N 
ATOM     11  N   UNL     1       4.654   4.020  15.702  0.00  0.00    +0.000 NA
ATOM     12  C   UNL     1       4.417   3.946  17.024  0.00  0.00    +0.000 A 
ATOM     13  C   UNL     1       5.425   4.634  17.765  0.00  0.00    +0.000 A 
ATOM     14  C   UNL     1       5.644   4.935  19.123  0.00  0.00    +0.000 A 
ATOM     15  C   UNL     1       6.837   5.560  19.498  0.00  0.00    +0.000 A 
ATOM     16  C   UNL     1       7.799   5.881  18.543  0.00  0.00    +0.000 A 
ATOM     17  C   UNL     1       7.595   5.604  17.186  0.00  0.00    +0.000 A 
ATOM     18  C   UNL     1       6.392   4.981  16.828  0.00  0.00    +0.000 A 
ENDBRANCH   7  12
ENDBRANCH   1   7
BRANCH   6  19
ATOM     19  N   UNL     1       1.753   5.720  18.586  0.00  0.00    +0.000 N 
ATOM     20  H   UNL     1       0.784   5.945  18.799  0.00  0.00    +0.000 HD
BRANCH  19  21
ATOM     21  C   UNL     1       2.575   6.933  18.560  0.00  0.00    +0.000 C 
BRANCH  21  22
ATOM     22  C   UNL     1       1.888   8.212  19.009  0.00  0.00    +0.000 A 
ATOM     23  C   UNL     1       1.554   8.292  20.380  0.00  0.00    +0.000 A 
ATOM     24  C   UNL     1       0.783   9.340  20.898  0.00  0.00    +0.000 A 
ATOM     25  C   UNL     1       0.331  10.329  20.016  0.00  0.00    +0.000 A 
ATOM     26  C   UNL     1      -0.492  11.472  20.107  0.00  0.00    +0.000 A 
ATOM     27  N   UNL     1      -0.631  12.102  18.938  0.00  0.00    +0.000 NA
ATOM     28  N   UNL     1       0.100  11.351  18.092  0.00  0.00    +0.000 N 
ATOM     29  C   UNL     1       0.697  10.264  18.673  0.00  0.00    +0.000 A 
ATOM     30  C   UNL     1       1.487   9.234  18.140  0.00  0.00    +0.000 A 
ATOM     31  H   UNL     1       0.138  11.625  17.117  0.00  0.00    +0.000 HD
ENDBRANCH  21  22
ENDBRANCH  19  21
ENDBRANCH   6  19
TORSDOF 5
ENDMDL
