MODEL 1
REMARK VINA RESULT:      -8.3      0.000      0.000
REMARK  Name = 
REMARK  4 active torsions:
REMARK  status: ('A' for Active; 'I' for Inactive)
REMARK    1  A    between atoms: C_1  and  C_2
REMARK    2  A    between atoms: C_5  and  C_6
REMARK    3  A    between atoms: C_20  and  C_21
REMARK    4  A    between atoms: C_29  and  C_30
REMARK                            x       y       z     vdW  Elec       q    Type
REMARK                         _______ _______ _______ _____ _____    ______ ____
ROOT
ATOM      1  C   UNL     1      -0.813  11.267  22.753  0.00  0.00    +0.000 C 
ATOM      2  O   UNL     1      -0.756  10.319  23.538  0.00  0.00    +0.000 OA
ATOM      3  N   UNL     1      -0.065  11.320  21.570  0.00  0.00    +0.000 N 
ATOM      4  C   UNL     1       0.891  10.242  21.306  0.00  0.00    +0.000 C 
ATOM      5  C   UNL     1       0.877   9.401  20.024  0.00  0.00    +0.000 C 
ATOM      6  O   UNL     1       1.633   8.422  19.939  0.00  0.00    +0.000 OA
ATOM      7  N   UNL     1       0.126   9.661  18.921  0.00  0.00    +0.000 N 
ATOM      8  C   UNL     1      -0.996  10.474  18.738  0.00  0.00    +0.000 A 
ATOM      9  C   UNL     1      -1.875  10.072  17.719  0.00  0.00    +0.000 A 
ATOM     10  C   UNL     1      -3.142  10.642  17.599  0.00  0.00    +0.000 A 
ATOM     11  C   UNL     1      -3.526  11.633  18.489  0.00  0.00    +0.000 A 
ATOM     12 BR   UNL     1      -5.289  12.309  18.450  0.00  0.00    +0.000 Br
ATOM     13  C   UNL     1      -2.616  12.125  19.419  0.00  0.00    +0.000 A 
ATOM     14  C   UNL     1      -1.313  11.585  19.518  0.00  0.00    +0.000 A 
ATOM     15  C   UNL     1      -0.330  12.239  20.466  0.00  0.00    +0.000 C 
ATOM     16  H   UNL     1       0.280   8.934  18.229  0.00  0.00    +0.000 HD
ENDROOT
BRANCH   1  21
ATOM     17  C   UNL     1      -4.281  15.660  24.305  0.00  0.00    +0.000 C 
ATOM     18  C   UNL     1      -3.408  14.508  23.888  0.00  0.00    +0.000 A 
ATOM     19  C   UNL     1      -2.028  14.706  23.725  0.00  0.00    +0.000 A 
ATOM     20  C   UNL     1      -1.190  13.650  23.356  0.00  0.00    +0.000 A 
ATOM     21  C   UNL     1      -1.726  12.382  23.125  0.00  0.00    +0.000 A 
ATOM     22  C   UNL     1      -3.112  12.203  23.200  0.00  0.00    +0.000 A 
ATOM     23  C   UNL     1      -3.955  13.234  23.641  0.00  0.00    +0.000 A 
ATOM     24  C   UNL     1      -5.417  12.945  23.844  0.00  0.00    +0.000 C 
ENDBRANCH   1  21
BRANCH  15  25
ATOM     25  C   UNL     1       0.932  12.898  19.884  0.00  0.00    +0.000 A 
ATOM     26  C   UNL     1       1.160  13.032  18.504  0.00  0.00    +0.000 A 
ATOM     27  C   UNL     1       2.292  13.699  18.024  0.00  0.00    +0.000 A 
ATOM     28  C   UNL     1       3.195  14.262  18.916  0.00  0.00    +0.000 A 
ATOM     29  F   UNL     1       4.271  14.908  18.451  0.00  0.00    +0.000 F 
ATOM     30  C   UNL     1       2.988  14.171  20.284  0.00  0.00    +0.000 A 
ATOM     31  C   UNL     1       1.864  13.495  20.764  0.00  0.00    +0.000 A 
ENDBRANCH  15  25
TORSDOF 2
ENDMDL
MODEL 2
REMARK VINA RESULT:      -8.2      0.288      1.273
REMARK  Name = 
REMARK  4 active torsions:
REMARK  status: ('A' for Active; 'I' for Inactive)
REMARK    1  A    between atoms: C_1  and  C_2
REMARK    2  A    between atoms: C_5  and  C_6
REMARK    3  A    between atoms: C_20  and  C_21
REMARK    4  A    between atoms: C_29  and  C_30
REMARK                            x       y       z     vdW  Elec       q    Type
REMARK                         _______ _______ _______ _____ _____    ______ ____
ROOT
ATOM      1  C   UNL     1      -0.773  11.236  22.746  0.00  0.00    +0.000 C 
ATOM      2  O   UNL     1      -0.714  10.285  23.526  0.00  0.00    +0.000 OA
ATOM      3  N   UNL     1      -0.026  11.295  21.562  0.00  0.00    +0.000 N 
ATOM      4  C   UNL     1       0.930  10.219  21.292  0.00  0.00    +0.000 C 
ATOM      5  C   UNL     1       0.914   9.384  20.005  0.00  0.00    +0.000 C 
ATOM      6  O   UNL     1       1.670   8.406  19.914  0.00  0.00    +0.000 OA
ATOM      7  N   UNL     1       0.161   9.650  18.904  0.00  0.00    +0.000 N 
ATOM      8  C   UNL     1      -0.961  10.464  18.727  0.00  0.00    +0.000 A 
ATOM      9  C   UNL     1      -1.842  10.067  17.708  0.00  0.00    +0.000 A 
ATOM     10  C   UNL     1      -3.109  10.638  17.592  0.00  0.00    +0.000 A 
ATOM     11  C   UNL     1      -3.492  11.624  18.488  0.00  0.00    +0.000 A 
ATOM     12 BR   UNL     1      -5.255  12.300  18.455  0.00  0.00    +0.000 Br
ATOM     13  C   UNL     1      -2.580  12.111  19.419  0.00  0.00    +0.000 A 
ATOM     14  C   UNL     1      -1.277  11.571  19.513  0.00  0.00    +0.000 A 
ATOM     15  C   UNL     1      -0.293  12.221  20.463  0.00  0.00    +0.000 C 
ATOM     16  H   UNL     1       0.314   8.927  18.208  0.00  0.00    +0.000 HD
ENDROOT
BRANCH   1  21
ATOM     17  C   UNL     1      -4.428  15.534  24.127  0.00  0.00    +0.000 C 
ATOM     18  C   UNL     1      -3.457  14.437  23.784  0.00  0.00    +0.000 A 
ATOM     19  C   UNL     1      -3.924  13.125  23.612  0.00  0.00    +0.000 A 
ATOM     20  C   UNL     1      -3.048  12.089  23.276  0.00  0.00    +0.000 A 
ATOM     21  C   UNL     1      -1.685  12.350  23.125  0.00  0.00    +0.000 A 
ATOM     22  C   UNL     1      -1.204  13.638  23.382  0.00  0.00    +0.000 A 
ATOM     23  C   UNL     1      -2.081  14.701  23.648  0.00  0.00    +0.000 A 
ATOM     24  C   UNL     1      -1.523  16.093  23.771  0.00  0.00    +0.000 C 
ENDBRANCH   1  21
BRANCH  15  25
ATOM     25  C   UNL     1       0.968  12.882  19.883  0.00  0.00    +0.000 A 
ATOM     26  C   UNL     1       1.205  13.004  18.503  0.00  0.00    +0.000 A 
ATOM     27  C   UNL     1       2.335  13.674  18.023  0.00  0.00    +0.000 A 
ATOM     28  C   UNL     1       3.228  14.252  18.916  0.00  0.00    +0.000 A 
ATOM     29  F   UNL     1       4.303  14.902  18.451  0.00  0.00    +0.000 F 
ATOM     30  C   UNL     1       3.013  14.174  20.283  0.00  0.00    +0.000 A 
ATOM     31  C   UNL     1       1.890  13.495  20.762  0.00  0.00    +0.000 A 
ENDBRANCH  15  25
TORSDOF 2
ENDMDL
MODEL 3
REMARK VINA RESULT:      -7.3      3.039      4.379
REMARK  Name = 
REMARK  4 active torsions:
REMARK  status: ('A' for Active; 'I' for Inactive)
REMARK    1  A    between atoms: C_1  and  C_2
REMARK    2  A    between atoms: C_5  and  C_6
REMARK    3  A    between atoms: C_20  and  C_21
REMARK    4  A    between atoms: C_29  and  C_30
REMARK                            x       y       z     vdW  Elec       q    Type
REMARK                         _______ _______ _______ _____ _____    ______ ____
ROOT
ATOM      1  C   UNL     1      -4.452  12.758  21.250  0.00  0.00    +0.000 C 
ATOM      2  O   UNL     1      -5.018  12.190  22.184  0.00  0.00    +0.000 OA
ATOM      3  N   UNL     1      -3.065  12.953  21.208  0.00  0.00    +0.000 N 
ATOM      4  C   UNL     1      -2.273  12.544  22.369  0.00  0.00    +0.000 C 
ATOM      5  C   UNL     1      -1.085  11.578  22.278  0.00  0.00    +0.000 C 
ATOM      6  O   UNL     1      -0.554  11.178  23.325  0.00  0.00    +0.000 OA
ATOM      7  N   UNL     1      -0.512  11.143  21.125  0.00  0.00    +0.000 N 
ATOM      8  C   UNL     1      -0.971  11.151  19.805  0.00  0.00    +0.000 A 
ATOM      9  C   UNL     1      -0.472  10.127  18.984  0.00  0.00    +0.000 A 
ATOM     10  C   UNL     1      -1.033   9.874  17.732  0.00  0.00    +0.000 A 
ATOM     11  C   UNL     1      -2.086  10.659  17.290  0.00  0.00    +0.000 A 
ATOM     12 BR   UNL     1      -2.968  10.238  15.674  0.00  0.00    +0.000 Br
ATOM     13  C   UNL     1      -2.502  11.754  18.042  0.00  0.00    +0.000 A 
ATOM     14  C   UNL     1      -1.907  12.047  19.290  0.00  0.00    +0.000 A 
ATOM     15  C   UNL     1      -2.319  13.317  20.006  0.00  0.00    +0.000 C 
ATOM     16  H   UNL     1       0.233  10.488  21.344  0.00  0.00    +0.000 HD
ENDROOT
BRANCH   1  21
ATOM     17  C   UNL     1      -7.772  14.574  16.844  0.00  0.00    +0.000 C 
ATOM     18  C   UNL     1      -6.922  14.129  18.002  0.00  0.00    +0.000 A 
ATOM     19  C   UNL     1      -6.612  12.768  18.154  0.00  0.00    +0.000 A 
ATOM     20  C   UNL     1      -5.810  12.328  19.212  0.00  0.00    +0.000 A 
ATOM     21  C   UNL     1      -5.321  13.244  20.144  0.00  0.00    +0.000 A 
ATOM     22  C   UNL     1      -5.701  14.587  20.045  0.00  0.00    +0.000 A 
ATOM     23  C   UNL     1      -6.444  15.054  18.950  0.00  0.00    +0.000 A 
ATOM     24  C   UNL     1      -6.699  16.531  18.817  0.00  0.00    +0.000 C 
ENDBRANCH   1  21
BRANCH  15  25
ATOM     25  C   UNL     1      -1.264  14.413  20.232  0.00  0.00    +0.000 A 
ATOM     26  C   UNL     1       0.031  14.355  19.689  0.00  0.00    +0.000 A 
ATOM     27  C   UNL     1       0.933  15.409  19.868  0.00  0.00    +0.000 A 
ATOM     28  C   UNL     1       0.544  16.543  20.569  0.00  0.00    +0.000 A 
ATOM     29  F   UNL     1       1.408  17.553  20.727  0.00  0.00    +0.000 F 
ATOM     30  C   UNL     1      -0.734  16.645  21.095  0.00  0.00    +0.000 A 
ATOM     31  C   UNL     1      -1.632  15.588  20.927  0.00  0.00    +0.000 A 
ENDBRANCH  15  25
TORSDOF 2
ENDMDL
MODEL 4
REMARK VINA RESULT:      -7.2      2.784      3.873
REMARK  Name = 
REMARK  4 active torsions:
REMARK  status: ('A' for Active; 'I' for Inactive)
REMARK    1  A    between atoms: C_1  and  C_2
REMARK    2  A    between atoms: C_5  and  C_6
REMARK    3  A    between atoms: C_20  and  C_21
REMARK    4  A    between atoms: C_29  and  C_30
REMARK                            x       y       z     vdW  Elec       q    Type
REMARK                         _______ _______ _______ _____ _____    ______ ____
ROOT
ATOM      1  C   UNL     1      -4.075  12.795  21.722  0.00  0.00    +0.000 C 
ATOM      2  O   UNL     1      -4.669  12.187  22.613  0.00  0.00    +0.000 OA
ATOM      3  N   UNL     1      -2.677  12.852  21.642  0.00  0.00    +0.000 N 
ATOM      4  C   UNL     1      -1.897  12.236  22.718  0.00  0.00    +0.000 C 
ATOM      5  C   UNL     1      -0.822  11.170  22.472  0.00  0.00    +0.000 C 
ATOM      6  O   UNL     1      -0.304  10.603  23.445  0.00  0.00    +0.000 OA
ATOM      7  N   UNL     1      -0.335  10.810  21.254  0.00  0.00    +0.000 N 
ATOM      8  C   UNL     1      -0.831  11.013  19.964  0.00  0.00    +0.000 A 
ATOM      9  C   UNL     1      -0.470  10.042  19.016  0.00  0.00    +0.000 A 
ATOM     10  C   UNL     1      -1.094   9.989  17.770  0.00  0.00    +0.000 A 
ATOM     11  C   UNL     1      -2.071  10.923  17.461  0.00  0.00    +0.000 A 
ATOM     12 BR   UNL     1      -3.042  10.778  15.848  0.00  0.00    +0.000 Br
ATOM     13  C   UNL     1      -2.344  11.963  18.344  0.00  0.00    +0.000 A 
ATOM     14  C   UNL     1      -1.683  12.052  19.590  0.00  0.00    +0.000 A 
ATOM     15  C   UNL     1      -1.934  13.269  20.456  0.00  0.00    +0.000 C 
ATOM     16  H   UNL     1       0.342  10.063  21.369  0.00  0.00    +0.000 HD
ENDROOT
BRANCH   1  21
ATOM     17  C   UNL     1      -7.432  15.587  17.892  0.00  0.00    +0.000 C 
ATOM     18  C   UNL     1      -6.559  14.839  18.862  0.00  0.00    +0.000 A 
ATOM     19  C   UNL     1      -5.833  15.549  19.832  0.00  0.00    +0.000 A 
ATOM     20  C   UNL     1      -5.027  14.880  20.758  0.00  0.00    +0.000 A 
ATOM     21  C   UNL     1      -4.922  13.489  20.713  0.00  0.00    +0.000 A 
ATOM     22  C   UNL     1      -5.574  12.787  19.694  0.00  0.00    +0.000 A 
ATOM     23  C   UNL     1      -6.443  13.438  18.805  0.00  0.00    +0.000 A 
ATOM     24  C   UNL     1      -7.231  12.615  17.822  0.00  0.00    +0.000 C 
ENDBRANCH   1  21
BRANCH  15  25
ATOM     25  C   UNL     1      -0.762  14.219  20.754  0.00  0.00    +0.000 A 
ATOM     26  C   UNL     1       0.498  14.098  20.143  0.00  0.00    +0.000 A 
ATOM     27  C   UNL     1       1.512  15.027  20.397  0.00  0.00    +0.000 A 
ATOM     28  C   UNL     1       1.271  16.102  21.243  0.00  0.00    +0.000 A 
ATOM     29  F   UNL     1       2.242  16.995  21.473  0.00  0.00    +0.000 F 
ATOM     30  C   UNL     1       0.032  16.268  21.841  0.00  0.00    +0.000 A 
ATOM     31  C   UNL     1      -0.978  15.333  21.597  0.00  0.00    +0.000 A 
ENDBRANCH  15  25
TORSDOF 2
ENDMDL
MODEL 5
REMARK VINA RESULT:      -7.0      2.147      2.676
REMARK  Name = 
REMARK  4 active torsions:
REMARK  status: ('A' for Active; 'I' for Inactive)
REMARK    1  A    between atoms: C_1  and  C_2
REMARK    2  A    between atoms: C_5  and  C_6
REMARK    3  A    between atoms: C_20  and  C_21
REMARK    4  A    between atoms: C_29  and  C_30
REMARK                            x       y       z     vdW  Elec       q    Type
REMARK                         _______ _______ _______ _____ _____    ______ ____
ROOT
ATOM      1  C   UNL     1      -3.184  12.434  22.756  0.00  0.00    +0.000 C 
ATOM      2  O   UNL     1      -3.482  11.714  23.710  0.00  0.00    +0.000 OA
ATOM      3  N   UNL     1      -1.903  12.454  22.189  0.00  0.00    +0.000 N 
ATOM      4  C   UNL     1      -0.855  11.649  22.820  0.00  0.00    +0.000 C 
ATOM      5  C   UNL     1      -0.032  10.599  22.064  0.00  0.00    +0.000 C 
ATOM      6  O   UNL     1       0.741   9.867  22.701  0.00  0.00    +0.000 OA
ATOM      7  N   UNL     1      -0.033  10.419  20.716  0.00  0.00    +0.000 N 
ATOM      8  C   UNL     1      -0.928  10.840  19.729  0.00  0.00    +0.000 A 
ATOM      9  C   UNL     1      -1.008  10.019  18.593  0.00  0.00    +0.000 A 
ATOM     10  C   UNL     1      -2.029  10.186  17.658  0.00  0.00    +0.000 A 
ATOM     11  C   UNL     1      -2.966  11.190  17.849  0.00  0.00    +0.000 A 
ATOM     12 BR   UNL     1      -4.447  11.336  16.687  0.00  0.00    +0.000 Br
ATOM     13  C   UNL     1      -2.820  12.087  18.903  0.00  0.00    +0.000 A 
ATOM     14  C   UNL     1      -1.761  11.954  19.829  0.00  0.00    +0.000 A 
ATOM     15  C   UNL     1      -1.586  13.027  20.884  0.00  0.00    +0.000 C 
ATOM     16  H   UNL     1       0.572   9.640  20.478  0.00  0.00    +0.000 HD
ENDROOT
BRANCH   1  21
ATOM     17  C   UNL     1      -7.409  15.907  20.799  0.00  0.00    +0.000 C 
ATOM     18  C   UNL     1      -6.320  14.987  21.281  0.00  0.00    +0.000 A 
ATOM     19  C   UNL     1      -5.266  15.503  22.052  0.00  0.00    +0.000 A 
ATOM     20  C   UNL     1      -4.250  14.669  22.528  0.00  0.00    +0.000 A 
ATOM     21  C   UNL     1      -4.264  13.308  22.221  0.00  0.00    +0.000 A 
ATOM     22  C   UNL     1      -5.264  12.808  21.380  0.00  0.00    +0.000 A 
ATOM     23  C   UNL     1      -6.329  13.617  20.956  0.00  0.00    +0.000 A 
ATOM     24  C   UNL     1      -7.454  12.994  20.176  0.00  0.00    +0.000 C 
ENDBRANCH   1  21
BRANCH  15  25
ATOM     25  C   UNL     1      -0.305  13.877  20.868  0.00  0.00    +0.000 A 
ATOM     26  C   UNL     1       0.617  13.856  19.807  0.00  0.00    +0.000 A 
ATOM     27  C   UNL     1       1.734  14.698  19.808  0.00  0.00    +0.000 A 
ATOM     28  C   UNL     1       1.930  15.587  20.857  0.00  0.00    +0.000 A 
ATOM     29  F   UNL     1       2.996  16.397  20.848  0.00  0.00    +0.000 F 
ATOM     30  C   UNL     1       1.028  15.653  21.907  0.00  0.00    +0.000 A 
ATOM     31  C   UNL     1      -0.082  14.805  21.911  0.00  0.00    +0.000 A 
ENDBRANCH  15  25
TORSDOF 2
ENDMDL
MODEL 6
REMARK VINA RESULT:      -6.9      2.549      3.483
REMARK  Name = 
REMARK  4 active torsions:
REMARK  status: ('A' for Active; 'I' for Inactive)
REMARK    1  A    between atoms: C_1  and  C_2
REMARK    2  A    between atoms: C_5  and  C_6
REMARK    3  A    between atoms: C_20  and  C_21
REMARK    4  A    between atoms: C_29  and  C_30
REMARK                            x       y       z     vdW  Elec       q    Type
REMARK                         _______ _______ _______ _____ _____    ______ ____
ROOT
ATOM      1  C   UNL     1      -3.583  12.684  22.308  0.00  0.00    +0.000 C 
ATOM      2  O   UNL     1      -4.192  12.050  23.170  0.00  0.00    +0.000 OA
ATOM      3  N   UNL     1      -2.192  12.615  22.154  0.00  0.00    +0.000 N 
ATOM      4  C   UNL     1      -1.427  11.825  23.121  0.00  0.00    +0.000 C 
ATOM      5  C   UNL     1      -0.477  10.691  22.717  0.00  0.00    +0.000 C 
ATOM      6  O   UNL     1       0.027   9.984  23.602  0.00  0.00    +0.000 OA
ATOM      7  N   UNL     1      -0.086  10.409  21.445  0.00  0.00    +0.000 N 
ATOM      8  C   UNL     1      -0.620  10.784  20.210  0.00  0.00    +0.000 A 
ATOM      9  C   UNL     1      -0.403   9.881  19.156  0.00  0.00    +0.000 A 
ATOM     10  C   UNL     1      -1.087  10.011  17.948  0.00  0.00    +0.000 A 
ATOM     11  C   UNL     1      -1.980  11.059  17.784  0.00  0.00    +0.000 A 
ATOM     12 BR   UNL     1      -3.036  11.167  16.222  0.00  0.00    +0.000 Br
ATOM     13  C   UNL     1      -2.105  12.029  18.774  0.00  0.00    +0.000 A 
ATOM     14  C   UNL     1      -1.380  11.931  19.983  0.00  0.00    +0.000 A 
ATOM     15  C   UNL     1      -1.468  13.075  20.972  0.00  0.00    +0.000 C 
ATOM     16  H   UNL     1       0.517   9.593  21.451  0.00  0.00    +0.000 HD
ENDROOT
BRANCH   1  21
ATOM     17  C   UNL     1      -6.749  15.984  18.726  0.00  0.00    +0.000 C 
ATOM     18  C   UNL     1      -5.928  15.154  19.675  0.00  0.00    +0.000 A 
ATOM     19  C   UNL     1      -6.009  13.753  19.621  0.00  0.00    +0.000 A 
ATOM     20  C   UNL     1      -5.246  12.956  20.479  0.00  0.00    +0.000 A 
ATOM     21  C   UNL     1      -4.403  13.552  21.418  0.00  0.00    +0.000 A 
ATOM     22  C   UNL     1      -4.387  14.946  21.534  0.00  0.00    +0.000 A 
ATOM     23  C   UNL     1      -5.091  15.758  20.633  0.00  0.00    +0.000 A 
ATOM     24  C   UNL     1      -4.923  17.251  20.710  0.00  0.00    +0.000 C 
ENDBRANCH   1  21
BRANCH  15  25
ATOM     25  C   UNL     1      -0.194  13.876  21.291  0.00  0.00    +0.000 A 
ATOM     26  C   UNL     1       1.035  13.652  20.646  0.00  0.00    +0.000 A 
ATOM     27  C   UNL     1       2.148  14.451  20.923  0.00  0.00    +0.000 A 
ATOM     28  C   UNL     1       2.041  15.499  21.828  0.00  0.00    +0.000 A 
ATOM     29  F   UNL     1       3.108  16.268  22.080  0.00  0.00    +0.000 F 
ATOM     30  C   UNL     1       0.839  15.765  22.462  0.00  0.00    +0.000 A 
ATOM     31  C   UNL     1      -0.271  14.960  22.194  0.00  0.00    +0.000 A 
ENDBRANCH  15  25
TORSDOF 2
ENDMDL
MODEL 7
REMARK VINA RESULT:      -6.9      2.541      3.562
REMARK  Name = 
REMARK  4 active torsions:
REMARK  status: ('A' for Active; 'I' for Inactive)
REMARK    1  A    between atoms: C_1  and  C_2
REMARK    2  A    between atoms: C_5  and  C_6
REMARK    3  A    between atoms: C_20  and  C_21
REMARK    4  A    between atoms: C_29  and  C_30
REMARK                            x       y       z     vdW  Elec       q    Type
REMARK                         _______ _______ _______ _____ _____    ______ ____
ROOT
ATOM      1  C   UNL     1      -3.612  12.705  21.939  0.00  0.00    +0.000 C 
ATOM      2  O   UNL     1      -4.216  12.087  22.817  0.00  0.00    +0.000 OA
ATOM      3  N   UNL     1      -2.216  12.683  21.819  0.00  0.00    +0.000 N 
ATOM      4  C   UNL     1      -1.444  11.967  22.837  0.00  0.00    +0.000 C 
ATOM      5  C   UNL     1      -0.443  10.854  22.504  0.00  0.00    +0.000 C 
ATOM      6  O   UNL     1       0.067  10.207  23.431  0.00  0.00    +0.000 OA
ATOM      7  N   UNL     1      -0.013  10.530  21.255  0.00  0.00    +0.000 N 
ATOM      8  C   UNL     1      -0.532  10.829  19.993  0.00  0.00    +0.000 A 
ATOM      9  C   UNL     1      -0.257   9.889  18.986  0.00  0.00    +0.000 A 
ATOM     10  C   UNL     1      -0.918   9.939  17.759  0.00  0.00    +0.000 A 
ATOM     11  C   UNL     1      -1.846  10.943  17.529  0.00  0.00    +0.000 A 
ATOM     12 BR   UNL     1      -2.869  10.940  15.942  0.00  0.00    +0.000 Br
ATOM     13  C   UNL     1      -2.030  11.950  18.471  0.00  0.00    +0.000 A 
ATOM     14  C   UNL     1      -1.330  11.935  19.699  0.00  0.00    +0.000 A 
ATOM     15  C   UNL     1      -1.483  13.118  20.633  0.00  0.00    +0.000 C 
ATOM     16  H   UNL     1       0.621   9.739  21.311  0.00  0.00    +0.000 HD
ENDROOT
BRANCH   1  21
ATOM     17  C   UNL     1      -6.902  15.885  18.362  0.00  0.00    +0.000 C 
ATOM     18  C   UNL     1      -6.048  15.038  19.266  0.00  0.00    +0.000 A 
ATOM     19  C   UNL     1      -5.260  15.652  20.252  0.00  0.00    +0.000 A 
ATOM     20  C   UNL     1      -4.469  14.889  21.117  0.00  0.00    +0.000 A 
ATOM     21  C   UNL     1      -4.443  13.499  20.994  0.00  0.00    +0.000 A 
ATOM     22  C   UNL     1      -5.159  12.892  19.957  0.00  0.00    +0.000 A 
ATOM     23  C   UNL     1      -6.012  13.637  19.129  0.00  0.00    +0.000 A 
ATOM     24  C   UNL     1      -6.870  12.915  18.125  0.00  0.00    +0.000 C 
ENDBRANCH   1  21
BRANCH  15  25
ATOM     25  C   UNL     1      -0.248  13.980  20.941  0.00  0.00    +0.000 A 
ATOM     26  C   UNL     1      -0.166  14.830  22.058  0.00  0.00    +0.000 A 
ATOM     27  C   UNL     1       1.005  15.544  22.333  0.00  0.00    +0.000 A 
ATOM     28  C   UNL     1       2.115  15.398  21.511  0.00  0.00    +0.000 A 
ATOM     29  F   UNL     1       3.236  16.076  21.786  0.00  0.00    +0.000 F 
ATOM     30  C   UNL     1       2.078  14.549  20.417  0.00  0.00    +0.000 A 
ATOM     31  C   UNL     1       0.905  13.844  20.135  0.00  0.00    +0.000 A 
ENDBRANCH  15  25
TORSDOF 2
ENDMDL
MODEL 8
REMARK VINA RESULT:      -6.9      2.055      2.821
REMARK  Name = 
REMARK  4 active torsions:
REMARK  status: ('A' for Active; 'I' for Inactive)
REMARK    1  A    between atoms: C_1  and  C_2
REMARK    2  A    between atoms: C_5  and  C_6
REMARK    3  A    between atoms: C_20  and  C_21
REMARK    4  A    between atoms: C_29  and  C_30
REMARK                            x       y       z     vdW  Elec       q    Type
REMARK                         _______ _______ _______ _____ _____    ______ ____
ROOT
ATOM      1  C   UNL     1      -3.211  12.435  22.820  0.00  0.00    +0.000 C 
ATOM      2  O   UNL     1      -3.490  11.706  23.773  0.00  0.00    +0.000 OA
ATOM      3  N   UNL     1      -1.940  12.462  22.232  0.00  0.00    +0.000 N 
ATOM      4  C   UNL     1      -0.879  11.654  22.837  0.00  0.00    +0.000 C 
ATOM      5  C   UNL     1      -0.068  10.612  22.056  0.00  0.00    +0.000 C 
ATOM      6  O   UNL     1       0.717   9.876  22.673  0.00  0.00    +0.000 OA
ATOM      7  N   UNL     1      -0.093  10.445  20.707  0.00  0.00    +0.000 N 
ATOM      8  C   UNL     1      -1.006  10.873  19.740  0.00  0.00    +0.000 A 
ATOM      9  C   UNL     1      -1.104  10.062  18.598  0.00  0.00    +0.000 A 
ATOM     10  C   UNL     1      -2.142  10.235  17.682  0.00  0.00    +0.000 A 
ATOM     11  C   UNL     1      -3.077  11.236  17.899  0.00  0.00    +0.000 A 
ATOM     12 BR   UNL     1      -4.579  11.390  16.765  0.00  0.00    +0.000 Br
ATOM     13  C   UNL     1      -2.914  12.123  18.958  0.00  0.00    +0.000 A 
ATOM     14  C   UNL     1      -1.839  11.985  19.865  0.00  0.00    +0.000 A 
ATOM     15  C   UNL     1      -1.647  13.049  20.926  0.00  0.00    +0.000 C 
ATOM     16  H   UNL     1       0.509   9.669  20.452  0.00  0.00    +0.000 HD
ENDROOT
BRANCH   1  21
ATOM     17  C   UNL     1      -7.464  15.785  20.715  0.00  0.00    +0.000 C 
ATOM     18  C   UNL     1      -6.357  14.940  21.284  0.00  0.00    +0.000 A 
ATOM     19  C   UNL     1      -6.374  13.549  21.088  0.00  0.00    +0.000 A 
ATOM     20  C   UNL     1      -5.350  12.741  21.590  0.00  0.00    +0.000 A 
ATOM     21  C   UNL     1      -4.302  13.312  22.313  0.00  0.00    +0.000 A 
ATOM     22  C   UNL     1      -4.328  14.684  22.585  0.00  0.00    +0.000 A 
ATOM     23  C   UNL     1      -5.309  15.517  22.027  0.00  0.00    +0.000 A 
ATOM     24  C   UNL     1      -5.207  17.004  22.231  0.00  0.00    +0.000 C 
ENDBRANCH   1  21
BRANCH  15  25
ATOM     25  C   UNL     1      -0.368  13.901  20.896  0.00  0.00    +0.000 A 
ATOM     26  C   UNL     1       0.523  13.909  19.808  0.00  0.00    +0.000 A 
ATOM     27  C   UNL     1       1.639  14.752  19.799  0.00  0.00    +0.000 A 
ATOM     28  C   UNL     1       1.864  15.615  20.864  0.00  0.00    +0.000 A 
ATOM     29  F   UNL     1       2.928  16.427  20.845  0.00  0.00    +0.000 F 
ATOM     30  C   UNL     1       0.993  15.652  21.941  0.00  0.00    +0.000 A 
ATOM     31  C   UNL     1      -0.116  14.802  21.956  0.00  0.00    +0.000 A 
ENDBRANCH  15  25
TORSDOF 2
ENDMDL
MODEL 9
REMARK VINA RESULT:      -6.8      2.357      3.280
REMARK  Name = 
REMARK  4 active torsions:
REMARK  status: ('A' for Active; 'I' for Inactive)
REMARK    1  A    between atoms: C_1  and  C_2
REMARK    2  A    between atoms: C_5  and  C_6
REMARK    3  A    between atoms: C_20  and  C_21
REMARK    4  A    between atoms: C_29  and  C_30
REMARK                            x       y       z     vdW  Elec       q    Type
REMARK                         _______ _______ _______ _____ _____    ______ ____
ROOT
ATOM      1  C   UNL     1      -3.591  12.630  22.561  0.00  0.00    +0.000 C 
ATOM      2  O   UNL     1      -3.985  11.967  23.521  0.00  0.00    +0.000 OA
ATOM      3  N   UNL     1      -2.256  12.636  22.138  0.00  0.00    +0.000 N 
ATOM      4  C   UNL     1      -1.275  11.890  22.931  0.00  0.00    +0.000 C 
ATOM      5  C   UNL     1      -0.364  10.809  22.338  0.00  0.00    +0.000 C 
ATOM      6  O   UNL     1       0.341  10.132  23.102  0.00  0.00    +0.000 OA
ATOM      7  N   UNL     1      -0.215  10.544  21.013  0.00  0.00    +0.000 N 
ATOM      8  C   UNL     1      -1.000  10.887  19.909  0.00  0.00    +0.000 A 
ATOM      9  C   UNL     1      -0.946   9.995  18.826  0.00  0.00    +0.000 A 
ATOM     10  C   UNL     1      -1.859  10.085  17.776  0.00  0.00    +0.000 A 
ATOM     11  C   UNL     1      -2.821  11.083  17.798  0.00  0.00    +0.000 A 
ATOM     12 BR   UNL     1      -4.167  11.130  16.474  0.00  0.00    +0.000 Br
ATOM     13  C   UNL     1      -2.802  12.047  18.802  0.00  0.00    +0.000 A 
ATOM     14  C   UNL     1      -1.850  11.991  19.845  0.00  0.00    +0.000 A 
ATOM     15  C   UNL     1      -1.802  13.132  20.841  0.00  0.00    +0.000 C 
ATOM     16  H   UNL     1       0.420   9.762  20.893  0.00  0.00    +0.000 HD
ENDROOT
BRANCH   1  21
ATOM     17  C   UNL     1      -7.564  15.750  19.694  0.00  0.00    +0.000 C 
ATOM     18  C   UNL     1      -6.533  14.966  20.459  0.00  0.00    +0.000 A 
ATOM     19  C   UNL     1      -6.522  13.564  20.373  0.00  0.00    +0.000 A 
ATOM     20  C   UNL     1      -5.565  12.811  21.059  0.00  0.00    +0.000 A 
ATOM     21  C   UNL     1      -4.615  13.450  21.857  0.00  0.00    +0.000 A 
ATOM     22  C   UNL     1      -4.678  14.839  22.014  0.00  0.00    +0.000 A 
ATOM     23  C   UNL     1      -5.586  15.613  21.275  0.00  0.00    +0.000 A 
ATOM     24  C   UNL     1      -5.514  17.113  21.371  0.00  0.00    +0.000 C 
ENDBRANCH   1  21
BRANCH  15  25
ATOM     25  C   UNL     1      -0.536  14.000  20.911  0.00  0.00    +0.000 A 
ATOM     26  C   UNL     1      -0.202  14.782  22.031  0.00  0.00    +0.000 A 
ATOM     27  C   UNL     1       0.995  15.503  22.073  0.00  0.00    +0.000 A 
ATOM     28  C   UNL     1       1.885  15.432  21.009  0.00  0.00    +0.000 A 
ATOM     29  F   UNL     1       3.035  16.116  21.060  0.00  0.00    +0.000 F 
ATOM     30  C   UNL     1       1.601  14.650  19.900  0.00  0.00    +0.000 A 
ATOM     31  C   UNL     1       0.400  13.938  19.853  0.00  0.00    +0.000 A 
ENDBRANCH  15  25
TORSDOF 2
ENDMDL
