MODEL 1
REMARK VINA RESULT:      -8.3      0.000      0.000
REMARK  Name = 
REMARK  7 active torsions:
REMARK  status: ('A' for Active; 'I' for Inactive)
REMARK    1  A    between atoms: C_1  and  C_2
REMARK    2  A    between atoms: C_5  and  N_6
REMARK    3  A    between atoms: C_7  and  C_9
REMARK    4  A    between atoms: C_9  and  N_10
REMARK    5  A    between atoms: N_10  and  C_11
REMARK    6  A    between atoms: C_12  and  C_14
REMARK    7  A    between atoms: C_14  and  C_15
REMARK                            x       y       z     vdW  Elec       q    Type
REMARK                         _______ _______ _______ _____ _____    ______ ____
ROOT
ATOM      1  N   UNL     1       6.690   5.805  17.728  0.00  0.00    +0.000 N 
ATOM      2  C   UNL     1       6.852   5.467  16.316  0.00  0.00    +0.000 C 
ATOM      3  C   UNL     1       5.824   5.101  18.564  0.00  0.00    +0.000 C 
ATOM      4  O   UNL     1       6.023   5.045  19.782  0.00  0.00    +0.000 OA
ENDROOT
BRANCH   1   5
ATOM      5  C   UNL     1       7.824   6.445  18.418  0.00  0.00    +0.000 C 
BRANCH   5   7
ATOM      6  N   UNL     1       8.922   8.563  19.023  0.00  0.00    +0.000 N 
ATOM      7  C   UNL     1       8.006   7.950  18.182  0.00  0.00    +0.000 C 
ATOM      8  O   UNL     1       7.344   8.518  17.316  0.00  0.00    +0.000 OA
ATOM      9  H   UNL     1       9.581   7.966  19.505  0.00  0.00    +0.000 HD
BRANCH   6  14
ATOM     10  C   UNL     1      10.011  14.178  19.410  0.00  0.00    +0.000 C 
ATOM     11  C   UNL     1       9.678  12.721  19.302  0.00  0.00    +0.000 A 
ATOM     12  C   UNL     1       9.544  12.118  18.048  0.00  0.00    +0.000 A 
ATOM     13  C   UNL     1       9.282  10.750  17.942  0.00  0.00    +0.000 A 
ATOM     14  C   UNL     1       9.153   9.957  19.087  0.00  0.00    +0.000 A 
ATOM     15  C   UNL     1       9.241  10.566  20.344  0.00  0.00    +0.000 A 
ATOM     16  C   UNL     1       9.512  11.937  20.448  0.00  0.00    +0.000 A 
ENDBRANCH   6  14
ENDBRANCH   5   7
ENDBRANCH   1   5
BRANCH   3  17
ATOM     17  C   UNL     1       4.650   4.352  17.965  0.00  0.00    +0.000 C 
BRANCH  17  18
ATOM     18  C   UNL     1       3.350   4.213  18.750  0.00  0.00    +0.000 A 
ATOM     19  C   UNL     1       2.937   2.918  19.149  0.00  0.00    +0.000 A 
ATOM     20 CL   UNL     1       3.589   1.474  18.443  0.00  0.00    +0.000 Cl
ATOM     21  C   UNL     1       1.978   2.722  20.155  0.00  0.00    +0.000 A 
ATOM     22  C   UNL     1       1.398   3.811  20.788  0.00  0.00    +0.000 A 
ATOM     23  C   UNL     1       1.710   5.091  20.349  0.00  0.00    +0.000 A 
ATOM     24  C   UNL     1       2.653   5.294  19.327  0.00  0.00    +0.000 A 
ATOM     25 CL   UNL     1       2.840   6.942  18.848  0.00  0.00    +0.000 Cl
ENDBRANCH  17  18
ENDBRANCH   3  17
TORSDOF 5
ENDMDL
MODEL 2
REMARK VINA RESULT:      -8.3      0.285      1.023
REMARK  Name = 
REMARK  7 active torsions:
REMARK  status: ('A' for Active; 'I' for Inactive)
REMARK    1  A    between atoms: C_1  and  C_2
REMARK    2  A    between atoms: C_5  and  N_6
REMARK    3  A    between atoms: C_7  and  C_9
REMARK    4  A    between atoms: C_9  and  N_10
REMARK    5  A    between atoms: N_10  and  C_11
REMARK    6  A    between atoms: C_12  and  C_14
REMARK    7  A    between atoms: C_14  and  C_15
REMARK                            x       y       z     vdW  Elec       q    Type
REMARK                         _______ _______ _______ _____ _____    ______ ____
ROOT
ATOM      1  N   UNL     1       6.539   6.015  17.556  0.00  0.00    +0.000 N 
ATOM      2  C   UNL     1       6.698   5.599  16.164  0.00  0.00    +0.000 C 
ATOM      3  C   UNL     1       5.587   5.441  18.397  0.00  0.00    +0.000 C 
ATOM      4  O   UNL     1       5.752   5.420  19.621  0.00  0.00    +0.000 OA
ENDROOT
BRANCH   1   5
ATOM      5  C   UNL     1       7.717   6.568  18.249  0.00  0.00    +0.000 C 
BRANCH   5   7
ATOM      6  N   UNL     1       8.905   8.602  18.960  0.00  0.00    +0.000 N 
ATOM      7  C   UNL     1       7.949   8.077  18.104  0.00  0.00    +0.000 C 
ATOM      8  O   UNL     1       7.289   8.723  17.292  0.00  0.00    +0.000 OA
ATOM      9  H   UNL     1       9.552   7.954  19.386  0.00  0.00    +0.000 HD
BRANCH   6  14
ATOM     10  C   UNL     1       9.911  14.228  19.416  0.00  0.00    +0.000 C 
ATOM     11  C   UNL     1       9.697  12.749  19.306  0.00  0.00    +0.000 A 
ATOM     12  C   UNL     1       9.519  11.973  20.455  0.00  0.00    +0.000 A 
ATOM     13  C   UNL     1       9.270  10.603  20.355  0.00  0.00    +0.000 A 
ATOM     14  C   UNL     1       9.189   9.980  19.106  0.00  0.00    +0.000 A 
ATOM     15  C   UNL     1       9.412  10.746  17.955  0.00  0.00    +0.000 A 
ATOM     16  C   UNL     1       9.654  12.123  18.056  0.00  0.00    +0.000 A 
ENDBRANCH   6  14
ENDBRANCH   5   7
ENDBRANCH   1   5
BRANCH   3  17
ATOM     17  C   UNL     1       4.356   4.788  17.798  0.00  0.00    +0.000 C 
BRANCH  17  18
ATOM     18  C   UNL     1       3.141   4.502  18.672  0.00  0.00    +0.000 A 
ATOM     19  C   UNL     1       2.825   3.154  18.972  0.00  0.00    +0.000 A 
ATOM     20 CL   UNL     1       3.477   1.824  18.068  0.00  0.00    +0.000 Cl
ATOM     21  C   UNL     1       1.971   2.808  20.030  0.00  0.00    +0.000 A 
ATOM     22  C   UNL     1       1.401   3.797  20.818  0.00  0.00    +0.000 A 
ATOM     23  C   UNL     1       1.613   5.128  20.487  0.00  0.00    +0.000 A 
ATOM     24  C   UNL     1       2.449   5.482  19.414  0.00  0.00    +0.000 A 
ATOM     25 CL   UNL     1       2.516   7.176  19.091  0.00  0.00    +0.000 Cl
ENDBRANCH  17  18
ENDBRANCH   3  17
TORSDOF 5
ENDMDL
MODEL 3
REMARK VINA RESULT:      -8.2      0.616      2.156
REMARK  Name = 
REMARK  7 active torsions:
REMARK  status: ('A' for Active; 'I' for Inactive)
REMARK    1  A    between atoms: C_1  and  C_2
REMARK    2  A    between atoms: C_5  and  N_6
REMARK    3  A    between atoms: C_7  and  C_9
REMARK    4  A    between atoms: C_9  and  N_10
REMARK    5  A    between atoms: N_10  and  C_11
REMARK    6  A    between atoms: C_12  and  C_14
REMARK    7  A    between atoms: C_14  and  C_15
REMARK                            x       y       z     vdW  Elec       q    Type
REMARK                         _______ _______ _______ _____ _____    ______ ____
ROOT
ATOM      1  N   UNL     1       6.596   6.153  17.834  0.00  0.00    +0.000 N 
ATOM      2  C   UNL     1       6.399   5.966  16.398  0.00  0.00    +0.000 C 
ATOM      3  C   UNL     1       5.930   5.376  18.780  0.00  0.00    +0.000 C 
ATOM      4  O   UNL     1       6.415   5.186  19.901  0.00  0.00    +0.000 OA
ENDROOT
BRANCH   1   5
ATOM      5  C   UNL     1       7.887   6.701  18.287  0.00  0.00    +0.000 C 
BRANCH   5   7
ATOM      6  N   UNL     1       8.999   8.767  19.028  0.00  0.00    +0.000 N 
ATOM      7  C   UNL     1       8.068   8.219  18.160  0.00  0.00    +0.000 C 
ATOM      8  O   UNL     1       7.392   8.850  17.349  0.00  0.00    +0.000 OA
ATOM      9  H   UNL     1       9.665   8.136  19.453  0.00  0.00    +0.000 HD
BRANCH   6  14
ATOM     10  C   UNL     1       9.811  14.418  19.547  0.00  0.00    +0.000 C 
ATOM     11  C   UNL     1       9.647  12.934  19.422  0.00  0.00    +0.000 A 
ATOM     12  C   UNL     1       9.458  12.146  20.561  0.00  0.00    +0.000 A 
ATOM     13  C   UNL     1       9.256  10.768  20.445  0.00  0.00    +0.000 A 
ATOM     14  C   UNL     1       9.234  10.152  19.190  0.00  0.00    +0.000 A 
ATOM     15  C   UNL     1       9.468  10.932  18.051  0.00  0.00    +0.000 A 
ATOM     16  C   UNL     1       9.663  12.315  18.168  0.00  0.00    +0.000 A 
ENDBRANCH   6  14
ENDBRANCH   5   7
ENDBRANCH   1   5
BRANCH   3  17
ATOM     17  C   UNL     1       4.618   4.710  18.413  0.00  0.00    +0.000 C 
BRANCH  17  18
ATOM     18  C   UNL     1       3.603   4.370  19.499  0.00  0.00    +0.000 A 
ATOM     19  C   UNL     1       2.559   5.291  19.761  0.00  0.00    +0.000 A 
ATOM     20 CL   UNL     1       2.618   6.940  19.227  0.00  0.00    +0.000 Cl
ATOM     21  C   UNL     1       1.402   4.922  20.463  0.00  0.00    +0.000 A 
ATOM     22  C   UNL     1       1.253   3.624  20.930  0.00  0.00    +0.000 A 
ATOM     23  C   UNL     1       2.301   2.728  20.774  0.00  0.00    +0.000 A 
ATOM     24  C   UNL     1       3.473   3.097  20.092  0.00  0.00    +0.000 A 
ATOM     25 CL   UNL     1       4.703   1.887  20.081  0.00  0.00    +0.000 Cl
ENDBRANCH  17  18
ENDBRANCH   3  17
TORSDOF 5
ENDMDL
MODEL 4
REMARK VINA RESULT:      -8.0      0.536      1.919
REMARK  Name = 
REMARK  7 active torsions:
REMARK  status: ('A' for Active; 'I' for Inactive)
REMARK    1  A    between atoms: C_1  and  C_2
REMARK    2  A    between atoms: C_5  and  N_6
REMARK    3  A    between atoms: C_7  and  C_9
REMARK    4  A    between atoms: C_9  and  N_10
REMARK    5  A    between atoms: N_10  and  C_11
REMARK    6  A    between atoms: C_12  and  C_14
REMARK    7  A    between atoms: C_14  and  C_15
REMARK                            x       y       z     vdW  Elec       q    Type
REMARK                         _______ _______ _______ _____ _____    ______ ____
ROOT
ATOM      1  N   UNL     1       6.242   6.048  17.558  0.00  0.00    +0.000 N 
ATOM      2  C   UNL     1       6.211   5.715  16.135  0.00  0.00    +0.000 C 
ATOM      3  C   UNL     1       5.375   5.460  18.476  0.00  0.00    +0.000 C 
ATOM      4  O   UNL     1       5.686   5.355  19.667  0.00  0.00    +0.000 OA
ENDROOT
BRANCH   1   5
ATOM      5  C   UNL     1       7.520   6.511  18.130  0.00  0.00    +0.000 C 
BRANCH   5   7
ATOM      6  N   UNL     1       8.793   8.484  18.865  0.00  0.00    +0.000 N 
ATOM      7  C   UNL     1       7.829   8.007  17.991  0.00  0.00    +0.000 C 
ATOM      8  O   UNL     1       7.216   8.685  17.168  0.00  0.00    +0.000 OA
ATOM      9  H   UNL     1       9.400   7.803  19.302  0.00  0.00    +0.000 HD
BRANCH   6  14
ATOM     10  C   UNL     1      10.350  13.950  19.617  0.00  0.00    +0.000 C 
ATOM     11  C   UNL     1       9.896  12.537  19.413  0.00  0.00    +0.000 A 
ATOM     12  C   UNL     1       9.753  12.020  18.122  0.00  0.00    +0.000 A 
ATOM     13  C   UNL     1       9.377  10.689  17.927  0.00  0.00    +0.000 A 
ATOM     14  C   UNL     1       9.142   9.846  19.018  0.00  0.00    +0.000 A 
ATOM     15  C   UNL     1       9.240  10.373  20.312  0.00  0.00    +0.000 A 
ATOM     16  C   UNL     1       9.624  11.707  20.505  0.00  0.00    +0.000 A 
ENDBRANCH   6  14
ENDBRANCH   5   7
ENDBRANCH   1   5
BRANCH   3  17
ATOM     17  C   UNL     1       4.051   4.893  17.999  0.00  0.00    +0.000 C 
BRANCH  17  18
ATOM     18  C   UNL     1       3.099   4.234  18.990  0.00  0.00    +0.000 A 
ATOM     19  C   UNL     1       2.234   5.061  19.748  0.00  0.00    +0.000 A 
ATOM     20 CL   UNL     1       2.491   6.768  19.918  0.00  0.00    +0.000 Cl
ATOM     21  C   UNL     1       1.102   4.549  20.402  0.00  0.00    +0.000 A 
ATOM     22  C   UNL     1       0.803   3.197  20.324  0.00  0.00    +0.000 A 
ATOM     23  C   UNL     1       1.687   2.348  19.672  0.00  0.00    +0.000 A 
ATOM     24  C   UNL     1       2.834   2.850  19.034  0.00  0.00    +0.000 A 
ATOM     25 CL   UNL     1       3.863   1.639  18.361  0.00  0.00    +0.000 Cl
ENDBRANCH  17  18
ENDBRANCH   3  17
TORSDOF 5
ENDMDL
MODEL 5
REMARK VINA RESULT:      -7.9      1.000      1.099
REMARK  Name = 
REMARK  7 active torsions:
REMARK  status: ('A' for Active; 'I' for Inactive)
REMARK    1  A    between atoms: C_1  and  C_2
REMARK    2  A    between atoms: C_5  and  N_6
REMARK    3  A    between atoms: C_7  and  C_9
REMARK    4  A    between atoms: C_9  and  N_10
REMARK    5  A    between atoms: N_10  and  C_11
REMARK    6  A    between atoms: C_12  and  C_14
REMARK    7  A    between atoms: C_14  and  C_15
REMARK                            x       y       z     vdW  Elec       q    Type
REMARK                         _______ _______ _______ _____ _____    ______ ____
ROOT
ATOM      1  N   UNL     1       7.041   6.329  17.992  0.00  0.00    +0.000 N 
ATOM      2  C   UNL     1       6.914   6.168  16.545  0.00  0.00    +0.000 C 
ATOM      3  C   UNL     1       6.444   5.447  18.891  0.00  0.00    +0.000 C 
ATOM      4  O   UNL     1       6.913   5.280  20.023  0.00  0.00    +0.000 OA
ENDROOT
BRANCH   1   5
ATOM      5  C   UNL     1       8.241   7.013  18.507  0.00  0.00    +0.000 C 
BRANCH   5   7
ATOM      6  N   UNL     1       9.249   9.175  19.109  0.00  0.00    +0.000 N 
ATOM      7  C   UNL     1       8.278   8.538  18.352  0.00  0.00    +0.000 C 
ATOM      8  O   UNL     1       7.465   9.099  17.619  0.00  0.00    +0.000 OA
ATOM      9  H   UNL     1      10.009   8.608  19.460  0.00  0.00    +0.000 HD
BRANCH   6  14
ATOM     10  C   UNL     1       9.923  14.829  19.778  0.00  0.00    +0.000 C 
ATOM     11  C   UNL     1       9.699  13.359  19.589  0.00  0.00    +0.000 A 
ATOM     12  C   UNL     1       9.791  12.788  18.317  0.00  0.00    +0.000 A 
ATOM     13  C   UNL     1       9.632  11.412  18.143  0.00  0.00    +0.000 A 
ATOM     14  C   UNL     1       9.383  10.577  19.237  0.00  0.00    +0.000 A 
ATOM     15  C   UNL     1       9.244  11.152  20.506  0.00  0.00    +0.000 A 
ATOM     16  C   UNL     1       9.412  12.533  20.680  0.00  0.00    +0.000 A 
ENDBRANCH   6  14
ENDBRANCH   5   7
ENDBRANCH   1   5
BRANCH   3  17
ATOM     17  C   UNL     1       5.235   4.641  18.459  0.00  0.00    +0.000 C 
BRANCH  17  18
ATOM     18  C   UNL     1       3.859   4.959  19.033  0.00  0.00    +0.000 A 
ATOM     19  C   UNL     1       3.295   4.063  19.974  0.00  0.00    +0.000 A 
ATOM     20 CL   UNL     1       3.881   2.443  20.182  0.00  0.00    +0.000 Cl
ATOM     21  C   UNL     1       2.231   4.435  20.809  0.00  0.00    +0.000 A 
ATOM     22  C   UNL     1       1.692   5.710  20.726  0.00  0.00    +0.000 A 
ATOM     23  C   UNL     1       2.158   6.576  19.746  0.00  0.00    +0.000 A 
ATOM     24  C   UNL     1       3.208   6.202  18.891  0.00  0.00    +0.000 A 
ATOM     25 CL   UNL     1       3.587   7.367  17.675  0.00  0.00    +0.000 Cl
ENDBRANCH  17  18
ENDBRANCH   3  17
TORSDOF 5
ENDMDL
MODEL 6
REMARK VINA RESULT:      -7.8      3.875      6.484
REMARK  Name = 
REMARK  7 active torsions:
REMARK  status: ('A' for Active; 'I' for Inactive)
REMARK    1  A    between atoms: C_1  and  C_2
REMARK    2  A    between atoms: C_5  and  N_6
REMARK    3  A    between atoms: C_7  and  C_9
REMARK    4  A    between atoms: C_9  and  N_10
REMARK    5  A    between atoms: N_10  and  C_11
REMARK    6  A    between atoms: C_12  and  C_14
REMARK    7  A    between atoms: C_14  and  C_15
REMARK                            x       y       z     vdW  Elec       q    Type
REMARK                         _______ _______ _______ _____ _____    ______ ____
ROOT
ATOM      1  N   UNL     1       5.514   6.456  18.055  0.00  0.00    +0.000 N 
ATOM      2  C   UNL     1       4.440   7.020  17.240  0.00  0.00    +0.000 C 
ATOM      3  C   UNL     1       5.279   5.463  19.004  0.00  0.00    +0.000 C 
ATOM      4  O   UNL     1       6.172   4.672  19.330  0.00  0.00    +0.000 OA
ENDROOT
BRANCH   1   5
ATOM      5  C   UNL     1       6.879   6.464  17.499  0.00  0.00    +0.000 C 
BRANCH   5   7
ATOM      6  N   UNL     1       6.611   5.713  15.171  0.00  0.00    +0.000 N 
ATOM      7  C   UNL     1       7.176   5.431  16.404  0.00  0.00    +0.000 C 
ATOM      8  O   UNL     1       7.849   4.436  16.668  0.00  0.00    +0.000 OA
ATOM      9  H   UNL     1       6.308   6.664  15.006  0.00  0.00    +0.000 HD
BRANCH   6  14
ATOM     10  C   UNL     1       6.885   2.162  10.679  0.00  0.00    +0.000 C 
ATOM     11  C   UNL     1       6.777   3.115  11.829  0.00  0.00    +0.000 A 
ATOM     12  C   UNL     1       5.796   2.933  12.808  0.00  0.00    +0.000 A 
ATOM     13  C   UNL     1       5.722   3.790  13.909  0.00  0.00    +0.000 A 
ATOM     14  C   UNL     1       6.630   4.844  14.056  0.00  0.00    +0.000 A 
ATOM     15  C   UNL     1       7.584   5.057  13.054  0.00  0.00    +0.000 A 
ATOM     16  C   UNL     1       7.662   4.191  11.955  0.00  0.00    +0.000 A 
ENDBRANCH   6  14
ENDBRANCH   5   7
ENDBRANCH   1   5
BRANCH   3  17
ATOM     17  C   UNL     1       3.896   5.316  19.609  0.00  0.00    +0.000 C 
BRANCH  17  18
ATOM     18  C   UNL     1       3.078   4.057  19.350  0.00  0.00    +0.000 A 
ATOM     19  C   UNL     1       2.212   3.591  20.370  0.00  0.00    +0.000 A 
ATOM     20 CL   UNL     1       2.350   4.116  22.018  0.00  0.00    +0.000 Cl
ATOM     21  C   UNL     1       1.178   2.680  20.108  0.00  0.00    +0.000 A 
ATOM     22  C   UNL     1       0.978   2.202  18.822  0.00  0.00    +0.000 A 
ATOM     23  C   UNL     1       1.871   2.563  17.823  0.00  0.00    +0.000 A 
ATOM     24  C   UNL     1       2.924   3.457  18.083  0.00  0.00    +0.000 A 
ATOM     25 CL   UNL     1       3.987   3.714  16.748  0.00  0.00    +0.000 Cl
ENDBRANCH  17  18
ENDBRANCH   3  17
TORSDOF 5
ENDMDL
MODEL 7
REMARK VINA RESULT:      -7.8      1.235      1.376
REMARK  Name = 
REMARK  7 active torsions:
REMARK  status: ('A' for Active; 'I' for Inactive)
REMARK    1  A    between atoms: C_1  and  C_2
REMARK    2  A    between atoms: C_5  and  N_6
REMARK    3  A    between atoms: C_7  and  C_9
REMARK    4  A    between atoms: C_9  and  N_10
REMARK    5  A    between atoms: N_10  and  C_11
REMARK    6  A    between atoms: C_12  and  C_14
REMARK    7  A    between atoms: C_14  and  C_15
REMARK                            x       y       z     vdW  Elec       q    Type
REMARK                         _______ _______ _______ _____ _____    ______ ____
ROOT
ATOM      1  N   UNL     1       5.646   6.065  16.835  0.00  0.00    +0.000 N 
ATOM      2  C   UNL     1       5.081   6.657  15.624  0.00  0.00    +0.000 C 
ATOM      3  C   UNL     1       4.989   5.063  17.545  0.00  0.00    +0.000 C 
ATOM      4  O   UNL     1       5.620   4.254  18.235  0.00  0.00    +0.000 OA
ENDROOT
BRANCH   1   5
ATOM      5  C   UNL     1       7.113   6.060  16.980  0.00  0.00    +0.000 C 
BRANCH   5   7
ATOM      6  N   UNL     1       7.681   8.419  17.389  0.00  0.00    +0.000 N 
ATOM      7  C   UNL     1       7.712   7.131  17.900  0.00  0.00    +0.000 C 
ATOM      8  O   UNL     1       8.192   6.807  18.985  0.00  0.00    +0.000 OA
ATOM      9  H   UNL     1       7.043   8.600  16.626  0.00  0.00    +0.000 HD
BRANCH   6  14
ATOM     10  C   UNL     1      10.343  12.866  19.838  0.00  0.00    +0.000 C 
ATOM     11  C   UNL     1       9.604  11.718  19.220  0.00  0.00    +0.000 A 
ATOM     12  C   UNL     1       8.856  11.905  18.055  0.00  0.00    +0.000 A 
ATOM     13  C   UNL     1       8.206  10.827  17.448  0.00  0.00    +0.000 A 
ATOM     14  C   UNL     1       8.295   9.542  17.991  0.00  0.00    +0.000 A 
ATOM     15  C   UNL     1       9.006   9.360  19.183  0.00  0.00    +0.000 A 
ATOM     16  C   UNL     1       9.664  10.441  19.786  0.00  0.00    +0.000 A 
ENDBRANCH   6  14
ENDBRANCH   5   7
ENDBRANCH   1   5
BRANCH   3  17
ATOM     17  C   UNL     1       3.482   4.929  17.432  0.00  0.00    +0.000 C 
BRANCH  17  18
ATOM     18  C   UNL     1       2.651   4.576  18.660  0.00  0.00    +0.000 A 
ATOM     19  C   UNL     1       2.375   3.210  18.920  0.00  0.00    +0.000 A 
ATOM     20 CL   UNL     1       2.562   1.978  17.714  0.00  0.00    +0.000 Cl
ATOM     21  C   UNL     1       1.943   2.767  20.179  0.00  0.00    +0.000 A 
ATOM     22  C   UNL     1       1.766   3.672  21.215  0.00  0.00    +0.000 A 
ATOM     23  C   UNL     1       1.933   5.027  20.962  0.00  0.00    +0.000 A 
ATOM     24  C   UNL     1       2.344   5.481  19.697  0.00  0.00    +0.000 A 
ATOM     25 CL   UNL     1       2.404   7.198  19.541  0.00  0.00    +0.000 Cl
ENDBRANCH  17  18
ENDBRANCH   3  17
TORSDOF 5
ENDMDL
MODEL 8
REMARK VINA RESULT:      -7.7      1.226      1.627
REMARK  Name = 
REMARK  7 active torsions:
REMARK  status: ('A' for Active; 'I' for Inactive)
REMARK    1  A    between atoms: C_1  and  C_2
REMARK    2  A    between atoms: C_5  and  N_6
REMARK    3  A    between atoms: C_7  and  C_9
REMARK    4  A    between atoms: C_9  and  N_10
REMARK    5  A    between atoms: N_10  and  C_11
REMARK    6  A    between atoms: C_12  and  C_14
REMARK    7  A    between atoms: C_14  and  C_15
REMARK                            x       y       z     vdW  Elec       q    Type
REMARK                         _______ _______ _______ _____ _____    ______ ____
ROOT
ATOM      1  N   UNL     1       5.770   5.822  16.800  0.00  0.00    +0.000 N 
ATOM      2  C   UNL     1       5.362   5.939  15.401  0.00  0.00    +0.000 C 
ATOM      3  C   UNL     1       4.969   5.197  17.755  0.00  0.00    +0.000 C 
ATOM      4  O   UNL     1       5.467   4.678  18.760  0.00  0.00    +0.000 OA
ENDROOT
BRANCH   1   5
ATOM      5  C   UNL     1       7.213   5.797  17.097  0.00  0.00    +0.000 C 
BRANCH   5   7
ATOM      6  N   UNL     1       7.729   8.181  17.422  0.00  0.00    +0.000 N 
ATOM      7  C   UNL     1       7.744   6.920  17.997  0.00  0.00    +0.000 C 
ATOM      8  O   UNL     1       8.163   6.657  19.123  0.00  0.00    +0.000 OA
ATOM      9  H   UNL     1       7.135   8.315  16.614  0.00  0.00    +0.000 HD
BRANCH   6  14
ATOM     10  C   UNL     1       9.838  12.973  19.758  0.00  0.00    +0.000 C 
ATOM     11  C   UNL     1       9.332  11.711  19.127  0.00  0.00    +0.000 A 
ATOM     12  C   UNL     1       9.557  10.475  19.739  0.00  0.00    +0.000 A 
ATOM     13  C   UNL     1       9.045   9.302  19.180  0.00  0.00    +0.000 A 
ATOM     14  C   UNL     1       8.293   9.341  18.002  0.00  0.00    +0.000 A 
ATOM     15  C   UNL     1       8.105  10.572  17.362  0.00  0.00    +0.000 A 
ATOM     16  C   UNL     1       8.613  11.749  17.928  0.00  0.00    +0.000 A 
ENDBRANCH   6  14
ENDBRANCH   5   7
ENDBRANCH   1   5
BRANCH   3  17
ATOM     17  C   UNL     1       3.472   5.107  17.534  0.00  0.00    +0.000 C 
BRANCH  17  18
ATOM     18  C   UNL     1       2.557   4.653  18.666  0.00  0.00    +0.000 A 
ATOM     19  C   UNL     1       2.241   3.276  18.769  0.00  0.00    +0.000 A 
ATOM     20 CL   UNL     1       2.483   2.166  17.458  0.00  0.00    +0.000 Cl
ATOM     21  C   UNL     1       1.721   2.720  19.947  0.00  0.00    +0.000 A 
ATOM     22  C   UNL     1       1.495   3.520  21.056  0.00  0.00    +0.000 A 
ATOM     23  C   UNL     1       1.702   4.889  20.953  0.00  0.00    +0.000 A 
ATOM     24  C   UNL     1       2.201   5.457  19.768  0.00  0.00    +0.000 A 
ATOM     25 CL   UNL     1       2.302   7.180  19.791  0.00  0.00    +0.000 Cl
ENDBRANCH  17  18
ENDBRANCH   3  17
TORSDOF 5
ENDMDL
MODEL 9
REMARK VINA RESULT:      -7.7      1.245      2.318
REMARK  Name = 
REMARK  7 active torsions:
REMARK  status: ('A' for Active; 'I' for Inactive)
REMARK    1  A    between atoms: C_1  and  C_2
REMARK    2  A    between atoms: C_5  and  N_6
REMARK    3  A    between atoms: C_7  and  C_9
REMARK    4  A    between atoms: C_9  and  N_10
REMARK    5  A    between atoms: N_10  and  C_11
REMARK    6  A    between atoms: C_12  and  C_14
REMARK    7  A    between atoms: C_14  and  C_15
REMARK                            x       y       z     vdW  Elec       q    Type
REMARK                         _______ _______ _______ _____ _____    ______ ____
ROOT
ATOM      1  N   UNL     1       5.569   6.149  17.063  0.00  0.00    +0.000 N 
ATOM      2  C   UNL     1       4.749   7.137  16.366  0.00  0.00    +0.000 C 
ATOM      3  C   UNL     1       5.109   4.861  17.331  0.00  0.00    +0.000 C 
ATOM      4  O   UNL     1       5.898   3.919  17.463  0.00  0.00    +0.000 OA
ENDROOT
BRANCH   1   5
ATOM      5  C   UNL     1       7.034   6.267  16.953  0.00  0.00    +0.000 C 
BRANCH   5   7
ATOM      6  N   UNL     1       7.662   8.598  17.429  0.00  0.00    +0.000 N 
ATOM      7  C   UNL     1       7.708   7.288  17.879  0.00  0.00    +0.000 C 
ATOM      8  O   UNL     1       8.255   6.909  18.913  0.00  0.00    +0.000 OA
ATOM      9  H   UNL     1       6.977   8.821  16.719  0.00  0.00    +0.000 HD
BRANCH   6  14
ATOM     10  C   UNL     1      10.542  12.892  19.907  0.00  0.00    +0.000 C 
ATOM     11  C   UNL     1       9.747  11.786  19.282  0.00  0.00    +0.000 A 
ATOM     12  C   UNL     1       8.998  12.020  18.126  0.00  0.00    +0.000 A 
ATOM     13  C   UNL     1       8.295  10.980  17.512  0.00  0.00    +0.000 A 
ATOM     14  C   UNL     1       8.331   9.685  18.039  0.00  0.00    +0.000 A 
ATOM     15  C   UNL     1       9.043   9.457  19.222  0.00  0.00    +0.000 A 
ATOM     16  C   UNL     1       9.754  10.500  19.832  0.00  0.00    +0.000 A 
ENDBRANCH   6  14
ENDBRANCH   5   7
ENDBRANCH   1   5
BRANCH   3  17
ATOM     17  C   UNL     1       3.617   4.600  17.412  0.00  0.00    +0.000 C 
BRANCH  17  18
ATOM     18  C   UNL     1       2.990   4.145  18.725  0.00  0.00    +0.000 A 
ATOM     19  C   UNL     1       2.369   5.115  19.550  0.00  0.00    +0.000 A 
ATOM     20 CL   UNL     1       2.653   6.816  19.360  0.00  0.00    +0.000 Cl
ATOM     21  C   UNL     1       1.474   4.759  20.569  0.00  0.00    +0.000 A 
ATOM     22  C   UNL     1       1.174   3.425  20.801  0.00  0.00    +0.000 A 
ATOM     23  C   UNL     1       1.842   2.449  20.075  0.00  0.00    +0.000 A 
ATOM     24  C   UNL     1       2.757   2.797  19.068  0.00  0.00    +0.000 A 
ATOM     25 CL   UNL     1       3.561   1.454  18.340  0.00  0.00    +0.000 Cl
ENDBRANCH  17  18
ENDBRANCH   3  17
TORSDOF 5
ENDMDL
