MODEL 1
REMARK VINA RESULT:      -9.0      0.000      0.000
REMARK  Name = 
REMARK  6 active torsions:
REMARK  status: ('A' for Active; 'I' for Inactive)
REMARK    1  A    between atoms: C_14  and  N_15
REMARK    2  A    between atoms: N_15  and  C_16
REMARK    3  A    between atoms: C_19  and  S_20
REMARK    4  A    between atoms: S_20  and  N_23
REMARK    5  A    between atoms: N_23  and  C_24
REMARK    6  A    between atoms: C_24  and  C_25
REMARK                            x       y       z     vdW  Elec       q    Type
REMARK                         _______ _______ _______ _____ _____    ______ ____
ROOT
ATOM      1  C   UNL     1       2.256   8.142  18.894  0.00  0.00    +0.000 A 
ATOM      2  C   UNL     1       2.421   6.944  19.601  0.00  0.00    +0.000 A 
ATOM      3  C   UNL     1       3.170   5.889  19.077  0.00  0.00    +0.000 A 
ATOM      4  C   UNL     1       3.800   6.038  17.842  0.00  0.00    +0.000 A 
ATOM      5  C   UNL     1       3.699   7.243  17.147  0.00  0.00    +0.000 A 
ATOM      6  C   UNL     1       2.916   8.281  17.665  0.00  0.00    +0.000 A 
ENDROOT
BRANCH   4   7
ATOM      7  S   UNL     1       4.757   4.680  17.198  0.00  0.00    +0.000 S 
ATOM      8  O   UNL     1       5.300   5.104  15.926  0.00  0.00    +0.000 OA
ATOM      9  O   UNL     1       5.594   4.202  18.276  0.00  0.00    +0.000 OA
BRANCH   7  10
ATOM     10  N   UNL     1       3.591   3.483  16.935  0.00  0.00    +0.000 NA
ATOM     11  H   UNL     1       3.532   3.214  15.953  0.00  0.00    +0.000 HD
BRANCH  10  12
ATOM     12  C   UNL     1       3.655   2.335  17.850  0.00  0.00    +0.000 C 
BRANCH  12  13
ATOM     13  C   UNL     1       2.810   2.535  19.082  0.00  0.00    +0.000 A 
ATOM     14  C   UNL     1       3.396   2.523  20.356  0.00  0.00    +0.000 A 
ATOM     15  C   UNL     1       2.619   2.748  21.493  0.00  0.00    +0.000 A 
ATOM     16  C   UNL     1       1.253   2.989  21.366  0.00  0.00    +0.000 A 
ATOM     17  C   UNL     1       0.662   3.010  20.103  0.00  0.00    +0.000 A 
ATOM     18  C   UNL     1       1.436   2.784  18.965  0.00  0.00    +0.000 A 
ENDBRANCH  12  13
ENDBRANCH  10  12
ENDBRANCH   7  10
ENDBRANCH   4   7
BRANCH   1  19
ATOM     19  N   UNL     1       1.554   9.236  19.416  0.00  0.00    +0.000 N 
ATOM     20  H   UNL     1       2.013   9.759  20.166  0.00  0.00    +0.000 HD
BRANCH  19  34
ATOM     21  O   UNL     1       0.800  10.885  21.677  0.00  0.00    +0.000 OA
ATOM     22  C   UNL     1      -0.175  11.119  20.987  0.00  0.00    +0.000 C 
ATOM     23  N   UNL     1      -1.259  11.931  21.305  0.00  0.00    +0.000 N 
ATOM     24  C   UNL     1      -2.220  11.970  20.309  0.00  0.00    +0.000 A 
ATOM     25  C   UNL     1      -3.417  12.673  20.355  0.00  0.00    +0.000 A 
ATOM     26  C   UNL     1      -4.257  12.548  19.226  0.00  0.00    +0.000 A 
ATOM     27  C   UNL     1      -3.880  11.751  18.120  0.00  0.00    +0.000 A 
ATOM     28  N   UNL     1      -4.568  11.506  16.945  0.00  0.00    +0.000 NA
ATOM     29  C   UNL     1      -3.853  10.692  16.188  0.00  0.00    +0.000 A 
ATOM     30  S   UNL     1      -2.330  10.185  16.828  0.00  0.00    +0.000 S 
ATOM     31  C   UNL     1      -2.664  11.103  18.179  0.00  0.00    +0.000 A 
ATOM     32  C   UNL     1      -1.796  11.162  19.223  0.00  0.00    +0.000 A 
ATOM     33  C   UNL     1      -0.466  10.584  19.606  0.00  0.00    +0.000 C 
ATOM     34  C   UNL     1       0.369   9.766  18.963  0.00  0.00    +0.000 C 
ATOM     35  H   UNL     1      -1.320  12.413  22.189  0.00  0.00    +0.000 HD
ENDBRANCH  19  34
ENDBRANCH   1  19
TORSDOF 6
ENDMDL
MODEL 2
REMARK VINA RESULT:      -8.8      0.586      1.339
REMARK  Name = 
REMARK  6 active torsions:
REMARK  status: ('A' for Active; 'I' for Inactive)
REMARK    1  A    between atoms: C_14  and  N_15
REMARK    2  A    between atoms: N_15  and  C_16
REMARK    3  A    between atoms: C_19  and  S_20
REMARK    4  A    between atoms: S_20  and  N_23
REMARK    5  A    between atoms: N_23  and  C_24
REMARK    6  A    between atoms: C_24  and  C_25
REMARK                            x       y       z     vdW  Elec       q    Type
REMARK                         _______ _______ _______ _____ _____    ______ ____
ROOT
ATOM      1  C   UNL     1       1.872   8.539  19.250  0.00  0.00    +0.000 A 
ATOM      2  C   UNL     1       2.354   8.690  17.944  0.00  0.00    +0.000 A 
ATOM      3  C   UNL     1       3.178   7.728  17.358  0.00  0.00    +0.000 A 
ATOM      4  C   UNL     1       3.502   6.573  18.068  0.00  0.00    +0.000 A 
ATOM      5  C   UNL     1       2.987   6.373  19.349  0.00  0.00    +0.000 A 
ATOM      6  C   UNL     1       2.191   7.361  19.939  0.00  0.00    +0.000 A 
ENDROOT
BRANCH   4   7
ATOM      7  S   UNL     1       4.550   5.356  17.296  0.00  0.00    +0.000 S 
ATOM      8  O   UNL     1       4.990   5.908  16.034  0.00  0.00    +0.000 OA
ATOM      9  O   UNL     1       5.477   4.894  18.305  0.00  0.00    +0.000 OA
BRANCH   7  10
ATOM     10  N   UNL     1       3.490   4.071  17.003  0.00  0.00    +0.000 NA
ATOM     11  H   UNL     1       3.413   3.857  16.008  0.00  0.00    +0.000 HD
BRANCH  10  12
ATOM     12  C   UNL     1       3.699   2.882  17.840  0.00  0.00    +0.000 C 
BRANCH  12  13
ATOM     13  C   UNL     1       2.853   2.902  19.087  0.00  0.00    +0.000 A 
ATOM     14  C   UNL     1       1.466   3.094  19.003  0.00  0.00    +0.000 A 
ATOM     15  C   UNL     1       0.679   3.072  20.154  0.00  0.00    +0.000 A 
ATOM     16  C   UNL     1       1.270   2.856  21.397  0.00  0.00    +0.000 A 
ATOM     17  C   UNL     1       2.647   2.659  21.492  0.00  0.00    +0.000 A 
ATOM     18  C   UNL     1       3.436   2.680  20.342  0.00  0.00    +0.000 A 
ENDBRANCH  12  13
ENDBRANCH  10  12
ENDBRANCH   7  10
ENDBRANCH   4   7
BRANCH   1  19
ATOM     19  N   UNL     1       1.003   9.462  19.846  0.00  0.00    +0.000 N 
ATOM     20  H   UNL     1       1.298   9.856  20.743  0.00  0.00    +0.000 HD
BRANCH  19  34
ATOM     21  O   UNL     1       0.165  11.201  22.007  0.00  0.00    +0.000 OA
ATOM     22  C   UNL     1      -0.771  11.425  21.261  0.00  0.00    +0.000 C 
ATOM     23  N   UNL     1      -1.856  12.264  21.496  0.00  0.00    +0.000 N 
ATOM     24  C   UNL     1      -2.764  12.282  20.451  0.00  0.00    +0.000 A 
ATOM     25  C   UNL     1      -3.950  13.004  20.412  0.00  0.00    +0.000 A 
ATOM     26  C   UNL     1      -4.735  12.852  19.247  0.00  0.00    +0.000 A 
ATOM     27  C   UNL     1      -4.316  12.010  18.190  0.00  0.00    +0.000 A 
ATOM     28  N   UNL     1      -4.949  11.733  16.991  0.00  0.00    +0.000 NA
ATOM     29  C   UNL     1      -4.210  10.883  16.299  0.00  0.00    +0.000 A 
ATOM     30  S   UNL     1      -2.730  10.376  17.033  0.00  0.00    +0.000 S 
ATOM     31  C   UNL     1      -3.116  11.346  18.333  0.00  0.00    +0.000 A 
ATOM     32  C   UNL     1      -2.300  11.429  19.417  0.00  0.00    +0.000 A 
ATOM     33  C   UNL     1      -1.001  10.846  19.886  0.00  0.00    +0.000 C 
ATOM     34  C   UNL     1      -0.149   9.993  19.315  0.00  0.00    +0.000 C 
ATOM     35  H   UNL     1      -1.952  12.778  22.358  0.00  0.00    +0.000 HD
ENDBRANCH  19  34
ENDBRANCH   1  19
TORSDOF 6
ENDMDL
MODEL 3
REMARK VINA RESULT:      -8.7      3.006      4.197
REMARK  Name = 
REMARK  6 active torsions:
REMARK  status: ('A' for Active; 'I' for Inactive)
REMARK    1  A    between atoms: C_14  and  N_15
REMARK    2  A    between atoms: N_15  and  C_16
REMARK    3  A    between atoms: C_19  and  S_20
REMARK    4  A    between atoms: S_20  and  N_23
REMARK    5  A    between atoms: N_23  and  C_24
REMARK    6  A    between atoms: C_24  and  C_25
REMARK                            x       y       z     vdW  Elec       q    Type
REMARK                         _______ _______ _______ _____ _____    ______ ____
ROOT
ATOM      1  C   UNL     1       1.829   6.993  20.368  0.00  0.00    +0.000 A 
ATOM      2  C   UNL     1       1.654   5.645  20.705  0.00  0.00    +0.000 A 
ATOM      3  C   UNL     1       2.095   4.623  19.862  0.00  0.00    +0.000 A 
ATOM      4  C   UNL     1       2.755   4.942  18.677  0.00  0.00    +0.000 A 
ATOM      5  C   UNL     1       2.992   6.277  18.348  0.00  0.00    +0.000 A 
ATOM      6  C   UNL     1       2.516   7.294  19.183  0.00  0.00    +0.000 A 
ENDROOT
BRANCH   4   7
ATOM      7  S   UNL     1       3.313   3.620  17.621  0.00  0.00    +0.000 S 
ATOM      8  O   UNL     1       4.157   2.760  18.422  0.00  0.00    +0.000 OA
ATOM      9  O   UNL     1       2.154   3.125  16.913  0.00  0.00    +0.000 OA
BRANCH   7  10
ATOM     10  N   UNL     1       4.263   4.423  16.475  0.00  0.00    +0.000 NA
ATOM     11  H   UNL     1       4.070   5.425  16.450  0.00  0.00    +0.000 HD
BRANCH  10  12
ATOM     12  C   UNL     1       5.697   4.108  16.517  0.00  0.00    +0.000 C 
BRANCH  12  13
ATOM     13  C   UNL     1       6.494   5.157  17.249  0.00  0.00    +0.000 A 
ATOM     14  C   UNL     1       7.195   4.832  18.419  0.00  0.00    +0.000 A 
ATOM     15  C   UNL     1       7.964   5.794  19.073  0.00  0.00    +0.000 A 
ATOM     16  C   UNL     1       8.040   7.089  18.562  0.00  0.00    +0.000 A 
ATOM     17  C   UNL     1       7.352   7.422  17.397  0.00  0.00    +0.000 A 
ATOM     18  C   UNL     1       6.582   6.460  16.742  0.00  0.00    +0.000 A 
ENDBRANCH  12  13
ENDBRANCH  10  12
ENDBRANCH   7  10
ENDBRANCH   4   7
BRANCH   1  19
ATOM     19  N   UNL     1       1.445   8.039  21.216  0.00  0.00    +0.000 N 
ATOM     20  H   UNL     1       1.354   7.813  22.210  0.00  0.00    +0.000 HD
BRANCH  19  34
ATOM     21  O   UNL     1      -0.382   8.887  23.300  0.00  0.00    +0.000 OA
ATOM     22  C   UNL     1      -0.307   9.956  22.720  0.00  0.00    +0.000 C 
ATOM     23  N   UNL     1      -0.960  11.140  23.045  0.00  0.00    +0.000 N 
ATOM     24  C   UNL     1      -0.678  12.174  22.168  0.00  0.00    +0.000 A 
ATOM     25  C   UNL     1      -1.201  13.460  22.225  0.00  0.00    +0.000 A 
ATOM     26  C   UNL     1      -0.787  14.347  21.208  0.00  0.00    +0.000 A 
ATOM     27  C   UNL     1       0.114  13.932  20.198  0.00  0.00    +0.000 A 
ATOM     28  N   UNL     1       0.619  14.649  19.129  0.00  0.00    +0.000 NA
ATOM     29  C   UNL     1       1.421  13.869  18.426  0.00  0.00    +0.000 A 
ATOM     30  S   UNL     1       1.620  12.252  19.001  0.00  0.00    +0.000 S 
ATOM     31  C   UNL     1       0.576  12.633  20.244  0.00  0.00    +0.000 A 
ATOM     32  C   UNL     1       0.229  11.711  21.181  0.00  0.00    +0.000 A 
ATOM     33  C   UNL     1       0.511  10.272  21.492  0.00  0.00    +0.000 C 
ATOM     34  C   UNL     1       1.287   9.366  20.893  0.00  0.00    +0.000 C 
ATOM     35  H   UNL     1      -1.584  11.203  23.834  0.00  0.00    +0.000 HD
ENDBRANCH  19  34
ENDBRANCH   1  19
TORSDOF 6
ENDMDL
MODEL 4
REMARK VINA RESULT:      -8.6      2.029      3.319
REMARK  Name = 
REMARK  6 active torsions:
REMARK  status: ('A' for Active; 'I' for Inactive)
REMARK    1  A    between atoms: C_14  and  N_15
REMARK    2  A    between atoms: N_15  and  C_16
REMARK    3  A    between atoms: C_19  and  S_20
REMARK    4  A    between atoms: S_20  and  N_23
REMARK    5  A    between atoms: N_23  and  C_24
REMARK    6  A    between atoms: C_24  and  C_25
REMARK                            x       y       z     vdW  Elec       q    Type
REMARK                         _______ _______ _______ _____ _____    ______ ____
ROOT
ATOM      1  C   UNL     1       2.035   7.691  19.207  0.00  0.00    +0.000 A 
ATOM      2  C   UNL     1       2.371   6.992  18.041  0.00  0.00    +0.000 A 
ATOM      3  C   UNL     1       2.575   5.611  18.056  0.00  0.00    +0.000 A 
ATOM      4  C   UNL     1       2.407   4.902  19.244  0.00  0.00    +0.000 A 
ATOM      5  C   UNL     1       2.015   5.568  20.405  0.00  0.00    +0.000 A 
ATOM      6  C   UNL     1       1.848   6.958  20.387  0.00  0.00    +0.000 A 
ENDROOT
BRANCH   4   7
ATOM      7  S   UNL     1       2.666   3.139  19.236  0.00  0.00    +0.000 S 
ATOM      8  O   UNL     1       2.774   2.716  20.615  0.00  0.00    +0.000 OA
ATOM      9  O   UNL     1       1.696   2.572  18.325  0.00  0.00    +0.000 OA
BRANCH   7  10
ATOM     10  N   UNL     1       4.172   2.979  18.485  0.00  0.00    +0.000 NA
ATOM     11  H   UNL     1       4.147   3.271  17.507  0.00  0.00    +0.000 HD
BRANCH  10  12
ATOM     12  C   UNL     1       5.308   3.540  19.229  0.00  0.00    +0.000 C 
BRANCH  12  13
ATOM     13  C   UNL     1       6.018   4.625  18.462  0.00  0.00    +0.000 A 
ATOM     14  C   UNL     1       6.820   5.562  19.130  0.00  0.00    +0.000 A 
ATOM     15  C   UNL     1       7.508   6.541  18.413  0.00  0.00    +0.000 A 
ATOM     16  C   UNL     1       7.403   6.591  17.025  0.00  0.00    +0.000 A 
ATOM     17  C   UNL     1       6.613   5.661  16.350  0.00  0.00    +0.000 A 
ATOM     18  C   UNL     1       5.923   4.681  17.065  0.00  0.00    +0.000 A 
ENDBRANCH  12  13
ENDBRANCH  10  12
ENDBRANCH   7  10
ENDBRANCH   4   7
BRANCH   1  19
ATOM     19  N   UNL     1       1.774   9.067  19.213  0.00  0.00    +0.000 N 
ATOM     20  H   UNL     1       2.578   9.685  19.349  0.00  0.00    +0.000 HD
BRANCH  19  34
ATOM     21  O   UNL     1       1.372  10.545  21.673  0.00  0.00    +0.000 OA
ATOM     22  C   UNL     1       0.344  10.891  21.119  0.00  0.00    +0.000 C 
ATOM     23  N   UNL     1      -0.647  11.726  21.624  0.00  0.00    +0.000 N 
ATOM     24  C   UNL     1      -1.705  11.904  20.749  0.00  0.00    +0.000 A 
ATOM     25  C   UNL     1      -2.845  12.662  20.987  0.00  0.00    +0.000 A 
ATOM     26  C   UNL     1      -3.808  12.682  19.955  0.00  0.00    +0.000 A 
ATOM     27  C   UNL     1      -3.602  11.967  18.751  0.00  0.00    +0.000 A 
ATOM     28  N   UNL     1      -4.427  11.864  17.645  0.00  0.00    +0.000 NA
ATOM     29  C   UNL     1      -3.850  11.085  16.747  0.00  0.00    +0.000 A 
ATOM     30  S   UNL     1      -2.300  10.444  17.167  0.00  0.00    +0.000 S 
ATOM     31  C   UNL     1      -2.430  11.254  18.619  0.00  0.00    +0.000 A 
ATOM     32  C   UNL     1      -1.452  11.174  19.560  0.00  0.00    +0.000 A 
ATOM     33  C   UNL     1      -0.127  10.497  19.741  0.00  0.00    +0.000 C 
ATOM     34  C   UNL     1       0.582   9.696  18.942  0.00  0.00    +0.000 C 
ATOM     35  H   UNL     1      -0.582  12.131  22.546  0.00  0.00    +0.000 HD
ENDBRANCH  19  34
ENDBRANCH   1  19
TORSDOF 6
ENDMDL
MODEL 5
REMARK VINA RESULT:      -8.6      2.215      3.630
REMARK  Name = 
REMARK  6 active torsions:
REMARK  status: ('A' for Active; 'I' for Inactive)
REMARK    1  A    between atoms: C_14  and  N_15
REMARK    2  A    between atoms: N_15  and  C_16
REMARK    3  A    between atoms: C_19  and  S_20
REMARK    4  A    between atoms: S_20  and  N_23
REMARK    5  A    between atoms: N_23  and  C_24
REMARK    6  A    between atoms: C_24  and  C_25
REMARK                            x       y       z     vdW  Elec       q    Type
REMARK                         _______ _______ _______ _____ _____    ______ ____
ROOT
ATOM      1  C   UNL     1       2.102   6.911  19.987  0.00  0.00    +0.000 A 
ATOM      2  C   UNL     1       2.540   6.835  18.658  0.00  0.00    +0.000 A 
ATOM      3  C   UNL     1       2.851   5.610  18.065  0.00  0.00    +0.000 A 
ATOM      4  C   UNL     1       2.690   4.431  18.792  0.00  0.00    +0.000 A 
ATOM      5  C   UNL     1       2.200   4.477  20.097  0.00  0.00    +0.000 A 
ATOM      6  C   UNL     1       1.924   5.713  20.693  0.00  0.00    +0.000 A 
ENDROOT
BRANCH   4   7
ATOM      7  S   UNL     1       3.087   2.880  18.010  0.00  0.00    +0.000 S 
ATOM      8  O   UNL     1       2.789   1.833  18.962  0.00  0.00    +0.000 OA
ATOM      9  O   UNL     1       2.506   2.912  16.686  0.00  0.00    +0.000 OA
BRANCH   7  10
ATOM     10  N   UNL     1       4.761   2.979  17.796  0.00  0.00    +0.000 NA
ATOM     11  H   UNL     1       5.195   2.057  17.734  0.00  0.00    +0.000 HD
BRANCH  10  12
ATOM     12  C   UNL     1       5.206   3.903  16.744  0.00  0.00    +0.000 C 
BRANCH  12  13
ATOM     13  C   UNL     1       6.148   4.956  17.266  0.00  0.00    +0.000 A 
ATOM     14  C   UNL     1       6.235   6.209  16.640  0.00  0.00    +0.000 A 
ATOM     15  C   UNL     1       7.078   7.196  17.149  0.00  0.00    +0.000 A 
ATOM     16  C   UNL     1       7.841   6.942  18.287  0.00  0.00    +0.000 A 
ATOM     17  C   UNL     1       7.759   5.702  18.920  0.00  0.00    +0.000 A 
ATOM     18  C   UNL     1       6.916   4.713  18.413  0.00  0.00    +0.000 A 
ENDBRANCH  12  13
ENDBRANCH  10  12
ENDBRANCH   7  10
ENDBRANCH   4   7
BRANCH   1  19
ATOM     19  N   UNL     1       1.734   8.119  20.593  0.00  0.00    +0.000 N 
ATOM     20  H   UNL     1       2.307   8.429  21.381  0.00  0.00    +0.000 HD
BRANCH  19  34
ATOM     21  O   UNL     1       1.161   9.487  23.082  0.00  0.00    +0.000 OA
ATOM     22  C   UNL     1       0.347  10.077  22.394  0.00  0.00    +0.000 C 
ATOM     23  N   UNL     1      -0.540  11.069  22.800  0.00  0.00    +0.000 N 
ATOM     24  C   UNL     1      -1.354  11.522  21.776  0.00  0.00    +0.000 A 
ATOM     25  C   UNL     1      -2.347  12.486  21.886  0.00  0.00    +0.000 A 
ATOM     26  C   UNL     1      -3.070  12.775  20.708  0.00  0.00    +0.000 A 
ATOM     27  C   UNL     1      -2.780  12.112  19.492  0.00  0.00    +0.000 A 
ATOM     28  N   UNL     1      -3.379  12.256  18.254  0.00  0.00    +0.000 NA
ATOM     29  C   UNL     1      -2.803  11.432  17.396  0.00  0.00    +0.000 A 
ATOM     30  S   UNL     1      -1.520  10.453  18.014  0.00  0.00    +0.000 S 
ATOM     31  C   UNL     1      -1.766  11.177  19.496  0.00  0.00    +0.000 A 
ATOM     32  C   UNL     1      -1.023  10.833  20.581  0.00  0.00    +0.000 A 
ATOM     33  C   UNL     1       0.084   9.880  20.921  0.00  0.00    +0.000 C 
ATOM     34  C   UNL     1       0.763   9.001  20.182  0.00  0.00    +0.000 C 
ATOM     35  H   UNL     1      -0.576  11.390  23.755  0.00  0.00    +0.000 HD
ENDBRANCH  19  34
ENDBRANCH   1  19
TORSDOF 6
ENDMDL
MODEL 6
REMARK VINA RESULT:      -8.6      1.961      3.439
REMARK  Name = 
REMARK  6 active torsions:
REMARK  status: ('A' for Active; 'I' for Inactive)
REMARK    1  A    between atoms: C_14  and  N_15
REMARK    2  A    between atoms: N_15  and  C_16
REMARK    3  A    between atoms: C_19  and  S_20
REMARK    4  A    between atoms: S_20  and  N_23
REMARK    5  A    between atoms: N_23  and  C_24
REMARK    6  A    between atoms: C_24  and  C_25
REMARK                            x       y       z     vdW  Elec       q    Type
REMARK                         _______ _______ _______ _____ _____    ______ ____
ROOT
ATOM      1  C   UNL     1       2.203   7.928  19.126  0.00  0.00    +0.000 A 
ATOM      2  C   UNL     1       2.854   7.776  17.895  0.00  0.00    +0.000 A 
ATOM      3  C   UNL     1       3.358   6.540  17.488  0.00  0.00    +0.000 A 
ATOM      4  C   UNL     1       3.182   5.422  18.301  0.00  0.00    +0.000 A 
ATOM      5  C   UNL     1       2.486   5.537  19.505  0.00  0.00    +0.000 A 
ATOM      6  C   UNL     1       2.015   6.788  19.919  0.00  0.00    +0.000 A 
ENDROOT
BRANCH   4   7
ATOM      7  S   UNL     1       3.828   3.853  17.757  0.00  0.00    +0.000 S 
ATOM      8  O   UNL     1       4.727   3.380  18.786  0.00  0.00    +0.000 OA
ATOM      9  O   UNL     1       2.705   3.071  17.291  0.00  0.00    +0.000 OA
BRANCH   7  10
ATOM     10  N   UNL     1       4.722   4.266  16.382  0.00  0.00    +0.000 NA
ATOM     11  H   UNL     1       4.476   5.191  16.027  0.00  0.00    +0.000 HD
BRANCH  10  12
ATOM     12  C   UNL     1       6.172   4.051  16.489  0.00  0.00    +0.000 C 
BRANCH  12  13
ATOM     13  C   UNL     1       6.871   5.190  17.186  0.00  0.00    +0.000 A 
ATOM     14  C   UNL     1       6.851   6.481  16.637  0.00  0.00    +0.000 A 
ATOM     15  C   UNL     1       7.464   7.541  17.304  0.00  0.00    +0.000 A 
ATOM     16  C   UNL     1       8.100   7.322  18.524  0.00  0.00    +0.000 A 
ATOM     17  C   UNL     1       8.121   6.045  19.081  0.00  0.00    +0.000 A 
ATOM     18  C   UNL     1       7.509   4.982  18.417  0.00  0.00    +0.000 A 
ENDBRANCH  12  13
ENDBRANCH  10  12
ENDBRANCH   7  10
ENDBRANCH   4   7
BRANCH   1  19
ATOM     19  N   UNL     1       1.642   9.144  19.538  0.00  0.00    +0.000 N 
ATOM     20  H   UNL     1       2.210   9.722  20.163  0.00  0.00    +0.000 HD
BRANCH  19  34
ATOM     21  O   UNL     1       0.984  10.800  21.823  0.00  0.00    +0.000 OA
ATOM     22  C   UNL     1       0.002  11.068  21.153  0.00  0.00    +0.000 C 
ATOM     23  N   UNL     1      -1.050  11.911  21.498  0.00  0.00    +0.000 N 
ATOM     24  C   UNL     1      -2.029  11.985  20.521  0.00  0.00    +0.000 A 
ATOM     25  C   UNL     1      -3.203  12.723  20.594  0.00  0.00    +0.000 A 
ATOM     26  C   UNL     1      -4.068  12.631  19.482  0.00  0.00    +0.000 A 
ATOM     27  C   UNL     1      -3.738  11.829  18.365  0.00  0.00    +0.000 A 
ATOM     28  N   UNL     1      -4.456  11.612  17.202  0.00  0.00    +0.000 NA
ATOM     29  C   UNL     1      -3.781  10.782  16.426  0.00  0.00    +0.000 A 
ATOM     30  S   UNL     1      -2.262  10.225  17.033  0.00  0.00    +0.000 S 
ATOM     31  C   UNL     1      -2.542  11.144  18.396  0.00  0.00    +0.000 A 
ATOM     32  C   UNL     1      -1.651  11.171  19.423  0.00  0.00    +0.000 A 
ATOM     33  C   UNL     1      -0.332  10.551  19.775  0.00  0.00    +0.000 C 
ATOM     34  C   UNL     1       0.465   9.712  19.111  0.00  0.00    +0.000 C 
ATOM     35  H   UNL     1      -1.078  12.389  22.385  0.00  0.00    +0.000 HD
ENDBRANCH  19  34
ENDBRANCH   1  19
TORSDOF 6
ENDMDL
MODEL 7
REMARK VINA RESULT:      -8.5      2.688      3.304
REMARK  Name = 
REMARK  6 active torsions:
REMARK  status: ('A' for Active; 'I' for Inactive)
REMARK    1  A    between atoms: C_14  and  N_15
REMARK    2  A    between atoms: N_15  and  C_16
REMARK    3  A    between atoms: C_19  and  S_20
REMARK    4  A    between atoms: S_20  and  N_23
REMARK    5  A    between atoms: N_23  and  C_24
REMARK    6  A    between atoms: C_24  and  C_25
REMARK                            x       y       z     vdW  Elec       q    Type
REMARK                         _______ _______ _______ _____ _____    ______ ____
ROOT
ATOM      1  C   UNL     1       2.390   7.911  18.386  0.00  0.00    +0.000 A 
ATOM      2  C   UNL     1       3.263   7.815  17.295  0.00  0.00    +0.000 A 
ATOM      3  C   UNL     1       4.234   6.814  17.229  0.00  0.00    +0.000 A 
ATOM      4  C   UNL     1       4.317   5.865  18.246  0.00  0.00    +0.000 A 
ATOM      5  C   UNL     1       3.420   5.906  19.314  0.00  0.00    +0.000 A 
ATOM      6  C   UNL     1       2.474   6.935  19.388  0.00  0.00    +0.000 A 
ENDROOT
BRANCH   4   7
ATOM      7  S   UNL     1       5.560   4.593  18.135  0.00  0.00    +0.000 S 
ATOM      8  O   UNL     1       6.478   4.982  17.088  0.00  0.00    +0.000 OA
ATOM      9  O   UNL     1       5.998   4.310  19.483  0.00  0.00    +0.000 OA
BRANCH   7  10
ATOM     10  N   UNL     1       4.678   3.242  17.630  0.00  0.00    +0.000 NA
ATOM     11  H   UNL     1       5.041   2.850  16.760  0.00  0.00    +0.000 HD
BRANCH  10  12
ATOM     12  C   UNL     1       4.431   2.230  18.666  0.00  0.00    +0.000 C 
BRANCH  12  13
ATOM     13  C   UNL     1       3.158   2.489  19.430  0.00  0.00    +0.000 A 
ATOM     14  C   UNL     1       3.183   2.642  20.824  0.00  0.00    +0.000 A 
ATOM     15  C   UNL     1       2.010   2.921  21.524  0.00  0.00    +0.000 A 
ATOM     16  C   UNL     1       0.804   3.052  20.839  0.00  0.00    +0.000 A 
ATOM     17  C   UNL     1       0.769   2.907  19.453  0.00  0.00    +0.000 A 
ATOM     18  C   UNL     1       1.941   2.628  18.750  0.00  0.00    +0.000 A 
ENDBRANCH  12  13
ENDBRANCH  10  12
ENDBRANCH   7  10
ENDBRANCH   4   7
BRANCH   1  19
ATOM     19  N   UNL     1       1.373   8.873  18.457  0.00  0.00    +0.000 N 
ATOM     20  H   UNL     1       0.413   8.531  18.362  0.00  0.00    +0.000 HD
BRANCH  19  34
ATOM     21  O   UNL     1      -0.193   9.031  20.890  0.00  0.00    +0.000 OA
ATOM     22  C   UNL     1       0.103  10.211  20.823  0.00  0.00    +0.000 C 
ATOM     23  N   UNL     1      -0.273  11.227  21.696  0.00  0.00    +0.000 N 
ATOM     24  C   UNL     1       0.212  12.469  21.325  0.00  0.00    +0.000 A 
ATOM     25  C   UNL     1      -0.019  13.668  21.988  0.00  0.00    +0.000 A 
ATOM     26  C   UNL     1       0.561  14.820  21.413  0.00  0.00    +0.000 A 
ATOM     27  C   UNL     1       1.333  14.736  20.230  0.00  0.00    +0.000 A 
ATOM     28  N   UNL     1       1.965  15.746  19.526  0.00  0.00    +0.000 NA
ATOM     29  C   UNL     1       2.568  15.224  18.472  0.00  0.00    +0.000 A 
ATOM     30  S   UNL     1       2.422  13.514  18.268  0.00  0.00    +0.000 S 
ATOM     31  C   UNL     1       1.504  13.492  19.661  0.00  0.00    +0.000 A 
ATOM     32  C   UNL     1       0.981  12.333  20.141  0.00  0.00    +0.000 A 
ATOM     33  C   UNL     1       0.950  10.881  19.769  0.00  0.00    +0.000 C 
ATOM     34  C   UNL     1       1.501  10.208  18.757  0.00  0.00    +0.000 C 
ATOM     35  H   UNL     1      -0.857  11.047  22.499  0.00  0.00    +0.000 HD
ENDBRANCH  19  34
ENDBRANCH   1  19
TORSDOF 6
ENDMDL
MODEL 8
REMARK VINA RESULT:      -8.5      2.933      3.798
REMARK  Name = 
REMARK  6 active torsions:
REMARK  status: ('A' for Active; 'I' for Inactive)
REMARK    1  A    between atoms: C_14  and  N_15
REMARK    2  A    between atoms: N_15  and  C_16
REMARK    3  A    between atoms: C_19  and  S_20
REMARK    4  A    between atoms: S_20  and  N_23
REMARK    5  A    between atoms: N_23  and  C_24
REMARK    6  A    between atoms: C_24  and  C_25
REMARK                            x       y       z     vdW  Elec       q    Type
REMARK                         _______ _______ _______ _____ _____    ______ ____
ROOT
ATOM      1  C   UNL     1       1.641   8.600  19.234  0.00  0.00    +0.000 A 
ATOM      2  C   UNL     1       2.027   7.454  19.941  0.00  0.00    +0.000 A 
ATOM      3  C   UNL     1       2.901   6.518  19.384  0.00  0.00    +0.000 A 
ATOM      4  C   UNL     1       3.432   6.740  18.115  0.00  0.00    +0.000 A 
ATOM      5  C   UNL     1       3.107   7.903  17.416  0.00  0.00    +0.000 A 
ATOM      6  C   UNL     1       2.204   8.817  17.969  0.00  0.00    +0.000 A 
ENDROOT
BRANCH   4   7
ATOM      7  S   UNL     1       4.549   5.534  17.429  0.00  0.00    +0.000 S 
ATOM      8  O   UNL     1       5.076   6.088  16.201  0.00  0.00    +0.000 OA
ATOM      9  O   UNL     1       5.404   5.088  18.506  0.00  0.00    +0.000 OA
BRANCH   7  10
ATOM     10  N   UNL     1       3.531   4.235  17.062  0.00  0.00    +0.000 NA
ATOM     11  H   UNL     1       3.474   4.064  16.058  0.00  0.00    +0.000 HD
BRANCH  10  12
ATOM     12  C   UNL     1       3.762   3.015  17.849  0.00  0.00    +0.000 C 
BRANCH  12  13
ATOM     13  C   UNL     1       2.884   2.945  19.071  0.00  0.00    +0.000 A 
ATOM     14  C   UNL     1       3.442   2.704  20.335  0.00  0.00    +0.000 A 
ATOM     15  C   UNL     1       2.632   2.680  21.471  0.00  0.00    +0.000 A 
ATOM     16  C   UNL     1       1.261   2.897  21.354  0.00  0.00    +0.000 A 
ATOM     17  C   UNL     1       0.697   3.143  20.102  0.00  0.00    +0.000 A 
ATOM     18  C   UNL     1       1.505   3.168  18.965  0.00  0.00    +0.000 A 
ENDBRANCH  12  13
ENDBRANCH  10  12
ENDBRANCH   7  10
ENDBRANCH   4   7
BRANCH   1  19
ATOM     19  N   UNL     1       0.808   9.582  19.786  0.00  0.00    +0.000 N 
ATOM     20  H   UNL     1      -0.075   9.259  20.189  0.00  0.00    +0.000 HD
BRANCH  19  34
ATOM     21  O   UNL     1      -1.173  10.771  18.037  0.00  0.00    +0.000 OA
ATOM     22  C   UNL     1      -0.646  11.809  18.397  0.00  0.00    +0.000 C 
ATOM     23  N   UNL     1      -0.973  13.103  18.004  0.00  0.00    +0.000 N 
ATOM     24  C   UNL     1      -0.164  14.067  18.580  0.00  0.00    +0.000 A 
ATOM     25  C   UNL     1      -0.238  15.436  18.358  0.00  0.00    +0.000 A 
ATOM     26  C   UNL     1       0.709  16.231  19.040  0.00  0.00    +0.000 A 
ATOM     27  C   UNL     1       1.667  15.646  19.902  0.00  0.00    +0.000 A 
ATOM     28  N   UNL     1       2.666  16.257  20.639  0.00  0.00    +0.000 NA
ATOM     29  C   UNL     1       3.342  15.332  21.298  0.00  0.00    +0.000 A 
ATOM     30  S   UNL     1       2.824  13.698  21.082  0.00  0.00    +0.000 S 
ATOM     31  C   UNL     1       1.644  14.276  20.054  0.00  0.00    +0.000 A 
ATOM     32  C   UNL     1       0.775  13.434  19.435  0.00  0.00    +0.000 A 
ATOM     33  C   UNL     1       0.505  11.961  19.361  0.00  0.00    +0.000 C 
ATOM     34  C   UNL     1       1.085  10.918  19.957  0.00  0.00    +0.000 C 
ATOM     35  H   UNL     1      -1.718  13.286  17.348  0.00  0.00    +0.000 HD
ENDBRANCH  19  34
ENDBRANCH   1  19
TORSDOF 6
ENDMDL
MODEL 9
REMARK VINA RESULT:      -8.5      3.070      4.305
REMARK  Name = 
REMARK  6 active torsions:
REMARK  status: ('A' for Active; 'I' for Inactive)
REMARK    1  A    between atoms: C_14  and  N_15
REMARK    2  A    between atoms: N_15  and  C_16
REMARK    3  A    between atoms: C_19  and  S_20
REMARK    4  A    between atoms: S_20  and  N_23
REMARK    5  A    between atoms: N_23  and  C_24
REMARK    6  A    between atoms: C_24  and  C_25
REMARK                            x       y       z     vdW  Elec       q    Type
REMARK                         _______ _______ _______ _____ _____    ______ ____
ROOT
ATOM      1  C   UNL     1       1.808   6.778  20.443  0.00  0.00    +0.000 A 
ATOM      2  C   UNL     1       2.243   6.892  19.117  0.00  0.00    +0.000 A 
ATOM      3  C   UNL     1       2.556   5.763  18.356  0.00  0.00    +0.000 A 
ATOM      4  C   UNL     1       2.400   4.494  18.909  0.00  0.00    +0.000 A 
ATOM      5  C   UNL     1       1.912   4.354  20.209  0.00  0.00    +0.000 A 
ATOM      6  C   UNL     1       1.635   5.492  20.974  0.00  0.00    +0.000 A 
ENDROOT
BRANCH   4   7
ATOM      7  S   UNL     1       2.799   3.069  17.916  0.00  0.00    +0.000 S 
ATOM      8  O   UNL     1       2.394   1.899  18.663  0.00  0.00    +0.000 OA
ATOM      9  O   UNL     1       2.320   3.338  16.578  0.00  0.00    +0.000 OA
BRANCH   7  10
ATOM     10  N   UNL     1       4.487   3.122  17.835  0.00  0.00    +0.000 NA
ATOM     11  H   UNL     1       4.903   2.191  17.879  0.00  0.00    +0.000 HD
BRANCH  10  12
ATOM     12  C   UNL     1       5.038   3.955  16.757  0.00  0.00    +0.000 C 
BRANCH  12  13
ATOM     13  C   UNL     1       5.963   5.026  17.275  0.00  0.00    +0.000 A 
ATOM     14  C   UNL     1       6.917   4.728  18.259  0.00  0.00    +0.000 A 
ATOM     15  C   UNL     1       7.799   5.711  18.707  0.00  0.00    +0.000 A 
ATOM     16  C   UNL     1       7.736   6.998  18.177  0.00  0.00    +0.000 A 
ATOM     17  C   UNL     1       6.795   7.303  17.194  0.00  0.00    +0.000 A 
ATOM     18  C   UNL     1       5.912   6.322  16.744  0.00  0.00    +0.000 A 
ENDBRANCH  12  13
ENDBRANCH  10  12
ENDBRANCH   7  10
ENDBRANCH   4   7
BRANCH   1  19
ATOM     19  N   UNL     1       1.438   7.887  21.214  0.00  0.00    +0.000 N 
ATOM     20  H   UNL     1       1.278   7.720  22.211  0.00  0.00    +0.000 HD
BRANCH  19  34
ATOM     21  O   UNL     1      -0.368   8.968  23.207  0.00  0.00    +0.000 OA
ATOM     22  C   UNL     1      -0.209   9.996  22.572  0.00  0.00    +0.000 C 
ATOM     23  N   UNL     1      -0.787  11.237  22.818  0.00  0.00    +0.000 N 
ATOM     24  C   UNL     1      -0.419  12.200  21.894  0.00  0.00    +0.000 A 
ATOM     25  C   UNL     1      -0.855  13.519  21.869  0.00  0.00    +0.000 A 
ATOM     26  C   UNL     1      -0.363  14.319  20.815  0.00  0.00    +0.000 A 
ATOM     27  C   UNL     1       0.527  13.790  19.851  0.00  0.00    +0.000 A 
ATOM     28  N   UNL     1       1.100  14.413  18.756  0.00  0.00    +0.000 NA
ATOM     29  C   UNL     1       1.861  13.543  18.115  0.00  0.00    +0.000 A 
ATOM     30  S   UNL     1       1.940  11.950  18.781  0.00  0.00    +0.000 S 
ATOM     31  C   UNL     1       0.899  12.468  19.977  0.00  0.00    +0.000 A 
ATOM     32  C   UNL     1       0.473  11.625  20.953  0.00  0.00    +0.000 A 
ATOM     33  C   UNL     1       0.652  10.189  21.348  0.00  0.00    +0.000 C 
ATOM     34  C   UNL     1       1.376   9.202  20.816  0.00  0.00    +0.000 C 
ATOM     35  H   UNL     1      -1.421  11.384  23.588  0.00  0.00    +0.000 HD
ENDBRANCH  19  34
ENDBRANCH   1  19
TORSDOF 6
ENDMDL
