MODEL 1
REMARK VINA RESULT:      -8.2      0.000      0.000
REMARK  Name = 
REMARK  4 active torsions:
REMARK  status: ('A' for Active; 'I' for Inactive)
REMARK    1  A    between atoms: C_1  and  C_2
REMARK    2  A    between atoms: C_5  and  N_6
REMARK    3  A    between atoms: C_10  and  C_12
REMARK    4  A    between atoms: C_29  and  C_30
REMARK                            x       y       z     vdW  Elec       q    Type
REMARK                         _______ _______ _______ _____ _____    ______ ____
ROOT
ATOM      1  N   UNL     1      -2.202  11.541  18.398  0.00  0.00    +0.000 N 
ATOM      2  C   UNL     1      -1.182  12.565  18.097  0.00  0.00    +0.000 C 
ATOM      3  C   UNL     1       0.120  12.353  18.909  0.00  0.00    +0.000 C 
ATOM      4  N   UNL     1       0.556  10.952  18.904  0.00  0.00    +0.000 N 
ATOM      5  C   UNL     1       1.828  10.637  18.435  0.00  0.00    +0.000 C 
ATOM      6  O   UNL     1       2.640  11.497  18.096  0.00  0.00    +0.000 OA
ATOM      7  C   UNL     1      -0.509  10.042  19.355  0.00  0.00    +0.000 C 
ATOM      8  C   UNL     1      -1.700  10.153  18.386  0.00  0.00    +0.000 C 
ENDROOT
BRANCH   5   9
ATOM      9  C   UNL     1       2.274   9.221  18.364  0.00  0.00    +0.000 A 
ATOM     10  C   UNL     1       3.002   8.727  17.289  0.00  0.00    +0.000 A 
ATOM     11  C   UNL     1       3.243   7.364  17.187  0.00  0.00    +0.000 A 
ATOM     12  C   UNL     1       2.876   6.481  18.227  0.00  0.00    +0.000 A 
ATOM     13  C   UNL     1       3.083   5.084  18.193  0.00  0.00    +0.000 A 
ATOM     14 CL   UNL     1       3.686   4.332  16.742  0.00  0.00    +0.000 Cl
ATOM     15  C   UNL     1       2.795   4.283  19.307  0.00  0.00    +0.000 A 
ATOM     16  C   UNL     1       2.231   4.921  20.411  0.00  0.00    +0.000 A 
ATOM     17  N   UNL     1       1.974   6.248  20.444  0.00  0.00    +0.000 NA
ATOM     18  C   UNL     1       2.279   7.010  19.385  0.00  0.00    +0.000 A 
ATOM     19  C   UNL     1       1.971   8.366  19.430  0.00  0.00    +0.000 A 
ATOM     20  C   UNL     1       1.939   4.174  21.685  0.00  0.00    +0.000 C 
ATOM     21  C   UNL     1       1.829   2.665  21.490  0.00  0.00    +0.000 C 
ATOM     22  C   UNL     1       3.020   2.163  20.689  0.00  0.00    +0.000 C 
ATOM     23  C   UNL     1       3.025   2.792  19.298  0.00  0.00    +0.000 C 
ENDBRANCH   5   9
BRANCH   1  28
ATOM     24  C   UNL     1      -7.630  12.732  19.882  0.00  0.00    +0.000 C 
ATOM     25  C   UNL     1      -6.218  12.430  19.484  0.00  0.00    +0.000 A 
ATOM     26  C   UNL     1      -5.172  12.565  20.383  0.00  0.00    +0.000 A 
ATOM     27  C   UNL     1      -3.864  12.279  19.980  0.00  0.00    +0.000 A 
ATOM     28  C   UNL     1      -3.529  11.815  18.686  0.00  0.00    +0.000 A 
ATOM     29  C   UNL     1      -4.607  11.664  17.785  0.00  0.00    +0.000 A 
ATOM     30  C   UNL     1      -4.499  11.132  16.379  0.00  0.00    +0.000 C 
ATOM     31  C   UNL     1      -5.923  11.995  18.191  0.00  0.00    +0.000 A 
ENDBRANCH   1  28
TORSDOF 2
ENDMDL
MODEL 2
REMARK VINA RESULT:      -8.1      3.644      5.260
REMARK  Name = 
REMARK  4 active torsions:
REMARK  status: ('A' for Active; 'I' for Inactive)
REMARK    1  A    between atoms: C_1  and  C_2
REMARK    2  A    between atoms: C_5  and  N_6
REMARK    3  A    between atoms: C_10  and  C_12
REMARK    4  A    between atoms: C_29  and  C_30
REMARK                            x       y       z     vdW  Elec       q    Type
REMARK                         _______ _______ _______ _____ _____    ______ ____
ROOT
ATOM      1  N   UNL     1       1.275  13.239  19.926  0.00  0.00    +0.000 N 
ATOM      2  C   UNL     1       0.878  13.051  21.336  0.00  0.00    +0.000 C 
ATOM      3  C   UNL     1      -0.064  11.835  21.522  0.00  0.00    +0.000 C 
ATOM      4  N   UNL     1       0.406  10.651  20.795  0.00  0.00    +0.000 N 
ATOM      5  C   UNL     1       0.642   9.472  21.496  0.00  0.00    +0.000 C 
ATOM      6  O   UNL     1       0.395   9.354  22.695  0.00  0.00    +0.000 OA
ATOM      7  C   UNL     1       0.635  10.935  19.370  0.00  0.00    +0.000 C 
ATOM      8  C   UNL     1       1.731  12.010  19.247  0.00  0.00    +0.000 C 
ENDROOT
BRANCH   5   9
ATOM      9  C   UNL     1       1.174   8.274  20.794  0.00  0.00    +0.000 A 
ATOM     10  C   UNL     1       0.860   6.982  21.193  0.00  0.00    +0.000 A 
ATOM     11  C   UNL     1       1.518   5.902  20.619  0.00  0.00    +0.000 A 
ATOM     12  C   UNL     1       2.408   6.086  19.537  0.00  0.00    +0.000 A 
ATOM     13  C   UNL     1       3.116   5.039  18.906  0.00  0.00    +0.000 A 
ATOM     14 CL   UNL     1       3.040   3.425  19.557  0.00  0.00    +0.000 Cl
ATOM     15  C   UNL     1       3.898   5.280  17.767  0.00  0.00    +0.000 A 
ATOM     16  C   UNL     1       3.996   6.603  17.341  0.00  0.00    +0.000 A 
ATOM     17  N   UNL     1       3.370   7.627  17.963  0.00  0.00    +0.000 NA
ATOM     18  C   UNL     1       2.603   7.384  19.034  0.00  0.00    +0.000 A 
ATOM     19  C   UNL     1       1.999   8.459  19.678  0.00  0.00    +0.000 A 
ATOM     20  C   UNL     1       4.755   6.972  16.094  0.00  0.00    +0.000 C 
ATOM     21  C   UNL     1       5.773   5.916  15.671  0.00  0.00    +0.000 C 
ATOM     22  C   UNL     1       5.116   4.545  15.662  0.00  0.00    +0.000 C 
ATOM     23  C   UNL     1       4.648   4.174  17.067  0.00  0.00    +0.000 C 
ENDBRANCH   5   9
BRANCH   1  28
ATOM     24  C   UNL     1       0.777  18.243  17.133  0.00  0.00    +0.000 C 
ATOM     25  C   UNL     1       0.917  16.947  17.869  0.00  0.00    +0.000 A 
ATOM     26  C   UNL     1      -0.193  16.262  18.337  0.00  0.00    +0.000 A 
ATOM     27  C   UNL     1      -0.030  15.054  19.024  0.00  0.00    +0.000 A 
ATOM     28  C   UNL     1       1.228  14.449  19.252  0.00  0.00    +0.000 A 
ATOM     29  C   UNL     1       2.350  15.148  18.753  0.00  0.00    +0.000 A 
ATOM     30  C   UNL     1       3.778  14.670  18.827  0.00  0.00    +0.000 C 
ATOM     31  C   UNL     1       2.177  16.390  18.094  0.00  0.00    +0.000 A 
ENDBRANCH   1  28
TORSDOF 2
ENDMDL
MODEL 3
REMARK VINA RESULT:      -8.1      0.337      1.266
REMARK  Name = 
REMARK  4 active torsions:
REMARK  status: ('A' for Active; 'I' for Inactive)
REMARK    1  A    between atoms: C_1  and  C_2
REMARK    2  A    between atoms: C_5  and  N_6
REMARK    3  A    between atoms: C_10  and  C_12
REMARK    4  A    between atoms: C_29  and  C_30
REMARK                            x       y       z     vdW  Elec       q    Type
REMARK                         _______ _______ _______ _____ _____    ______ ____
ROOT
ATOM      1  N   UNL     1      -2.165  11.425  18.397  0.00  0.00    +0.000 N 
ATOM      2  C   UNL     1      -1.164  12.454  18.049  0.00  0.00    +0.000 C 
ATOM      3  C   UNL     1       0.157  12.277  18.839  0.00  0.00    +0.000 C 
ATOM      4  N   UNL     1       0.609  10.882  18.859  0.00  0.00    +0.000 N 
ATOM      5  C   UNL     1       1.876  10.571  18.372  0.00  0.00    +0.000 C 
ATOM      6  O   UNL     1       2.670  11.431  17.996  0.00  0.00    +0.000 OA
ATOM      7  C   UNL     1      -0.434   9.971  19.354  0.00  0.00    +0.000 C 
ATOM      8  C   UNL     1      -1.646  10.043  18.407  0.00  0.00    +0.000 C 
ENDROOT
BRANCH   5   9
ATOM      9  C   UNL     1       2.338   9.159  18.326  0.00  0.00    +0.000 A 
ATOM     10  C   UNL     1       3.107   8.665  17.281  0.00  0.00    +0.000 A 
ATOM     11  C   UNL     1       3.364   7.303  17.196  0.00  0.00    +0.000 A 
ATOM     12  C   UNL     1       2.970   6.423  18.230  0.00  0.00    +0.000 A 
ATOM     13  C   UNL     1       3.192   5.029  18.212  0.00  0.00    +0.000 A 
ATOM     14 CL   UNL     1       3.852   4.273  16.788  0.00  0.00    +0.000 Cl
ATOM     15  C   UNL     1       2.874   4.232  19.322  0.00  0.00    +0.000 A 
ATOM     16  C   UNL     1       2.266   4.873  20.401  0.00  0.00    +0.000 A 
ATOM     17  N   UNL     1       1.995   6.197  20.416  0.00  0.00    +0.000 NA
ATOM     18  C   UNL     1       2.328   6.955  19.363  0.00  0.00    +0.000 A 
ATOM     19  C   UNL     1       2.007   8.308  19.388  0.00  0.00    +0.000 A 
ATOM     20  C   UNL     1       1.938   4.131  21.670  0.00  0.00    +0.000 C 
ATOM     21  C   UNL     1       1.850   2.619  21.482  0.00  0.00    +0.000 C 
ATOM     22  C   UNL     1       3.072   2.124  20.725  0.00  0.00    +0.000 C 
ATOM     23  C   UNL     1       3.119   2.743  19.332  0.00  0.00    +0.000 C 
ENDBRANCH   5   9
BRANCH   1  28
ATOM     24  C   UNL     1      -7.741  12.413  19.406  0.00  0.00    +0.000 C 
ATOM     25  C   UNL     1      -6.288  12.150  19.157  0.00  0.00    +0.000 A 
ATOM     26  C   UNL     1      -5.863  11.481  18.020  0.00  0.00    +0.000 A 
ATOM     27  C   UNL     1      -4.498  11.248  17.817  0.00  0.00    +0.000 A 
ATOM     28  C   UNL     1      -3.489  11.691  18.705  0.00  0.00    +0.000 A 
ATOM     29  C   UNL     1      -3.935  12.389  19.850  0.00  0.00    +0.000 A 
ATOM     30  C   UNL     1      -3.044  13.001  20.900  0.00  0.00    +0.000 C 
ATOM     31  C   UNL     1      -5.322  12.585  20.066  0.00  0.00    +0.000 A 
ENDBRANCH   1  28
TORSDOF 2
ENDMDL
MODEL 4
REMARK VINA RESULT:      -8.1      1.979      3.127
REMARK  Name = 
REMARK  4 active torsions:
REMARK  status: ('A' for Active; 'I' for Inactive)
REMARK    1  A    between atoms: C_1  and  C_2
REMARK    2  A    between atoms: C_5  and  N_6
REMARK    3  A    between atoms: C_10  and  C_12
REMARK    4  A    between atoms: C_29  and  C_30
REMARK                            x       y       z     vdW  Elec       q    Type
REMARK                         _______ _______ _______ _____ _____    ______ ____
ROOT
ATOM      1  N   UNL     1      -2.291  11.325  19.028  0.00  0.00    +0.000 N 
ATOM      2  C   UNL     1      -1.469  12.059  20.011  0.00  0.00    +0.000 C 
ATOM      3  C   UNL     1      -0.964  11.143  21.153  0.00  0.00    +0.000 C 
ATOM      4  N   UNL     1      -0.431   9.871  20.652  0.00  0.00    +0.000 N 
ATOM      5  C   UNL     1       0.878   9.514  20.961  0.00  0.00    +0.000 C 
ATOM      6  O   UNL     1       1.588  10.184  21.709  0.00  0.00    +0.000 OA
ATOM      7  C   UNL     1      -1.398   9.169  19.794  0.00  0.00    +0.000 C 
ATOM      8  C   UNL     1      -1.705  10.050  18.569  0.00  0.00    +0.000 C 
ENDROOT
BRANCH   5   9
ATOM      9  C   UNL     1       1.463   8.259  20.418  0.00  0.00    +0.000 A 
ATOM     10  C   UNL     1       1.236   7.022  21.007  0.00  0.00    +0.000 A 
ATOM     11  C   UNL     1       1.942   5.909  20.569  0.00  0.00    +0.000 A 
ATOM     12  C   UNL     1       2.792   5.985  19.442  0.00  0.00    +0.000 A 
ATOM     13  C   UNL     1       3.545   4.900  18.942  0.00  0.00    +0.000 A 
ATOM     14 CL   UNL     1       3.582   3.394  19.816  0.00  0.00    +0.000 Cl
ATOM     15  C   UNL     1       4.281   5.018  17.754  0.00  0.00    +0.000 A 
ATOM     16  C   UNL     1       4.289   6.270  17.142  0.00  0.00    +0.000 A 
ATOM     17  N   UNL     1       3.619   7.337  17.633  0.00  0.00    +0.000 NA
ATOM     18  C   UNL     1       2.896   7.207  18.754  0.00  0.00    +0.000 A 
ATOM     19  C   UNL     1       2.246   8.328  19.260  0.00  0.00    +0.000 A 
ATOM     20  C   UNL     1       4.992   6.498  15.830  0.00  0.00    +0.000 C 
ATOM     21  C   UNL     1       6.059   5.450  15.526  0.00  0.00    +0.000 C 
ATOM     22  C   UNL     1       5.486   4.058  15.734  0.00  0.00    +0.000 C 
ATOM     23  C   UNL     1       5.077   3.866  17.192  0.00  0.00    +0.000 C 
ENDBRANCH   5   9
BRANCH   1  28
ATOM     24  C   UNL     1      -7.478  13.168  17.360  0.00  0.00    +0.000 C 
ATOM     25  C   UNL     1      -6.121  12.696  17.784  0.00  0.00    +0.000 A 
ATOM     26  C   UNL     1      -5.705  12.792  19.102  0.00  0.00    +0.000 A 
ATOM     27  C   UNL     1      -4.430  12.344  19.466  0.00  0.00    +0.000 A 
ATOM     28  C   UNL     1      -3.521  11.753  18.557  0.00  0.00    +0.000 A 
ATOM     29  C   UNL     1      -3.965  11.644  17.220  0.00  0.00    +0.000 A 
ATOM     30  C   UNL     1      -3.196  11.001  16.096  0.00  0.00    +0.000 C 
ATOM     31  C   UNL     1      -5.243  12.137  16.854  0.00  0.00    +0.000 A 
ENDBRANCH   1  28
TORSDOF 2
ENDMDL
MODEL 5
REMARK VINA RESULT:      -8.0      3.334      5.177
REMARK  Name = 
REMARK  4 active torsions:
REMARK  status: ('A' for Active; 'I' for Inactive)
REMARK    1  A    between atoms: C_1  and  C_2
REMARK    2  A    between atoms: C_5  and  N_6
REMARK    3  A    between atoms: C_10  and  C_12
REMARK    4  A    between atoms: C_29  and  C_30
REMARK                            x       y       z     vdW  Elec       q    Type
REMARK                         _______ _______ _______ _____ _____    ______ ____
ROOT
ATOM      1  N   UNL     1       1.486  12.823  19.878  0.00  0.00    +0.000 N 
ATOM      2  C   UNL     1       1.161  12.591  21.300  0.00  0.00    +0.000 C 
ATOM      3  C   UNL     1       0.228  11.371  21.496  0.00  0.00    +0.000 C 
ATOM      4  N   UNL     1       0.659  10.210  20.710  0.00  0.00    +0.000 N 
ATOM      5  C   UNL     1       0.928   9.009  21.362  0.00  0.00    +0.000 C 
ATOM      6  O   UNL     1       0.742   8.855  22.568  0.00  0.00    +0.000 OA
ATOM      7  C   UNL     1       0.817  10.537  19.284  0.00  0.00    +0.000 C 
ATOM      8  C   UNL     1       1.906  11.615  19.140  0.00  0.00    +0.000 C 
ENDROOT
BRANCH   5   9
ATOM      9  C   UNL     1       1.423   7.834  20.598  0.00  0.00    +0.000 A 
ATOM     10  C   UNL     1       1.046   6.535  20.913  0.00  0.00    +0.000 A 
ATOM     11  C   UNL     1       1.668   5.464  20.285  0.00  0.00    +0.000 A 
ATOM     12  C   UNL     1       2.587   5.673  19.232  0.00  0.00    +0.000 A 
ATOM     13  C   UNL     1       3.263   4.636  18.551  0.00  0.00    +0.000 A 
ATOM     14 CL   UNL     1       3.105   2.991  19.101  0.00  0.00    +0.000 Cl
ATOM     15  C   UNL     1       4.076   4.910  17.442  0.00  0.00    +0.000 A 
ATOM     16  C   UNL     1       4.239   6.252  17.099  0.00  0.00    +0.000 A 
ATOM     17  N   UNL     1       3.645   7.263  17.771  0.00  0.00    +0.000 NA
ATOM     18  C   UNL     1       2.847   6.990  18.812  0.00  0.00    +0.000 A 
ATOM     19  C   UNL     1       2.277   8.049  19.510  0.00  0.00    +0.000 A 
ATOM     20  C   UNL     1       5.039   6.660  15.890  0.00  0.00    +0.000 C 
ATOM     21  C   UNL     1       6.018   5.589  15.421  0.00  0.00    +0.000 C 
ATOM     22  C   UNL     1       5.304   4.250  15.318  0.00  0.00    +0.000 C 
ATOM     23  C   UNL     1       4.793   3.816  16.689  0.00  0.00    +0.000 C 
ENDBRANCH   5   9
BRANCH   1  28
ATOM     24  C   UNL     1       1.461  17.920  17.212  0.00  0.00    +0.000 C 
ATOM     25  C   UNL     1       1.456  16.589  17.898  0.00  0.00    +0.000 A 
ATOM     26  C   UNL     1       2.614  15.835  18.015  0.00  0.00    +0.000 A 
ATOM     27  C   UNL     1       2.576  14.594  18.659  0.00  0.00    +0.000 A 
ATOM     28  C   UNL     1       1.408  14.053  19.245  0.00  0.00    +0.000 A 
ATOM     29  C   UNL     1       0.239  14.840  19.135  0.00  0.00    +0.000 A 
ATOM     30  C   UNL     1      -1.102  14.496  19.730  0.00  0.00    +0.000 C 
ATOM     31  C   UNL     1       0.279  16.077  18.447  0.00  0.00    +0.000 A 
ENDBRANCH   1  28
TORSDOF 2
ENDMDL
MODEL 6
REMARK VINA RESULT:      -7.9      1.975      3.362
REMARK  Name = 
REMARK  4 active torsions:
REMARK  status: ('A' for Active; 'I' for Inactive)
REMARK    1  A    between atoms: C_1  and  C_2
REMARK    2  A    between atoms: C_5  and  N_6
REMARK    3  A    between atoms: C_10  and  C_12
REMARK    4  A    between atoms: C_29  and  C_30
REMARK                            x       y       z     vdW  Elec       q    Type
REMARK                         _______ _______ _______ _____ _____    ______ ____
ROOT
ATOM      1  N   UNL     1      -2.288  11.432  19.265  0.00  0.00    +0.000 N 
ATOM      2  C   UNL     1      -1.425  12.139  20.233  0.00  0.00    +0.000 C 
ATOM      3  C   UNL     1      -0.896  11.196  21.343  0.00  0.00    +0.000 C 
ATOM      4  N   UNL     1      -0.397   9.927  20.804  0.00  0.00    +0.000 N 
ATOM      5  C   UNL     1       0.916   9.547  21.064  0.00  0.00    +0.000 C 
ATOM      6  O   UNL     1       1.659  10.194  21.800  0.00  0.00    +0.000 OA
ATOM      7  C   UNL     1      -1.400   9.253  19.964  0.00  0.00    +0.000 C 
ATOM      8  C   UNL     1      -1.734  10.158  18.765  0.00  0.00    +0.000 C 
ENDROOT
BRANCH   5   9
ATOM      9  C   UNL     1       1.466   8.295  20.482  0.00  0.00    +0.000 A 
ATOM     10  C   UNL     1       1.216   7.047  21.039  0.00  0.00    +0.000 A 
ATOM     11  C   UNL     1       1.892   5.931  20.563  0.00  0.00    +0.000 A 
ATOM     12  C   UNL     1       2.733   6.018  19.431  0.00  0.00    +0.000 A 
ATOM     13  C   UNL     1       3.455   4.930  18.894  0.00  0.00    +0.000 A 
ATOM     14 CL   UNL     1       3.466   3.400  19.726  0.00  0.00    +0.000 Cl
ATOM     15  C   UNL     1       4.183   5.064  17.703  0.00  0.00    +0.000 A 
ATOM     16  C   UNL     1       4.215   6.332  17.124  0.00  0.00    +0.000 A 
ATOM     17  N   UNL     1       3.575   7.399  17.652  0.00  0.00    +0.000 NA
ATOM     18  C   UNL     1       2.859   7.256  18.775  0.00  0.00    +0.000 A 
ATOM     19  C   UNL     1       2.240   8.377  19.318  0.00  0.00    +0.000 A 
ATOM     20  C   UNL     1       4.911   6.579  15.812  0.00  0.00    +0.000 C 
ATOM     21  C   UNL     1       5.951   5.516  15.469  0.00  0.00    +0.000 C 
ATOM     22  C   UNL     1       5.347   4.131  15.645  0.00  0.00    +0.000 C 
ATOM     23  C   UNL     1       4.947   3.910  17.101  0.00  0.00    +0.000 C 
ENDBRANCH   5   9
BRANCH   1  28
ATOM     24  C   UNL     1      -7.358  13.221  17.223  0.00  0.00    +0.000 C 
ATOM     25  C   UNL     1      -6.045  12.749  17.766  0.00  0.00    +0.000 A 
ATOM     26  C   UNL     1      -5.137  12.073  16.966  0.00  0.00    +0.000 A 
ATOM     27  C   UNL     1      -3.920  11.642  17.503  0.00  0.00    +0.000 A 
ATOM     28  C   UNL     1      -3.526  11.885  18.841  0.00  0.00    +0.000 A 
ATOM     29  C   UNL     1      -4.453  12.592  19.639  0.00  0.00    +0.000 A 
ATOM     30  C   UNL     1      -4.228  13.013  21.069  0.00  0.00    +0.000 C 
ATOM     31  C   UNL     1      -5.700  12.989  19.097  0.00  0.00    +0.000 A 
ENDBRANCH   1  28
TORSDOF 2
ENDMDL
MODEL 7
REMARK VINA RESULT:      -7.8      1.803      3.078
REMARK  Name = 
REMARK  4 active torsions:
REMARK  status: ('A' for Active; 'I' for Inactive)
REMARK    1  A    between atoms: C_1  and  C_2
REMARK    2  A    between atoms: C_5  and  N_6
REMARK    3  A    between atoms: C_10  and  C_12
REMARK    4  A    between atoms: C_29  and  C_30
REMARK                            x       y       z     vdW  Elec       q    Type
REMARK                         _______ _______ _______ _____ _____    ______ ____
ROOT
ATOM      1  N   UNL     1      -2.319  11.656  18.321  0.00  0.00    +0.000 N 
ATOM      2  C   UNL     1      -1.263  12.652  18.049  0.00  0.00    +0.000 C 
ATOM      3  C   UNL     1      -0.008  12.429  18.929  0.00  0.00    +0.000 C 
ATOM      4  N   UNL     1       0.397  11.020  18.974  0.00  0.00    +0.000 N 
ATOM      5  C   UNL     1       1.684  10.669  18.574  0.00  0.00    +0.000 C 
ATOM      6  O   UNL     1       2.530  11.504  18.259  0.00  0.00    +0.000 OA
ATOM      7  C   UNL     1      -0.708  10.142  19.389  0.00  0.00    +0.000 C 
ATOM      8  C   UNL     1      -1.847  10.257  18.361  0.00  0.00    +0.000 C 
ENDROOT
BRANCH   5   9
ATOM      9  C   UNL     1       2.102   9.243  18.554  0.00  0.00    +0.000 A 
ATOM     10  C   UNL     1       1.660   8.329  19.501  0.00  0.00    +0.000 A 
ATOM     11  C   UNL     1       2.214   7.056  19.543  0.00  0.00    +0.000 A 
ATOM     12  C   UNL     1       3.125   6.627  18.552  0.00  0.00    +0.000 A 
ATOM     13  C   UNL     1       3.732   5.352  18.530  0.00  0.00    +0.000 A 
ATOM     14 CL   UNL     1       3.496   4.256  19.864  0.00  0.00    +0.000 Cl
ATOM     15  C   UNL     1       4.541   4.954  17.456  0.00  0.00    +0.000 A 
ATOM     16  C   UNL     1       4.770   5.901  16.459  0.00  0.00    +0.000 A 
ATOM     17  N   UNL     1       4.243   7.145  16.487  0.00  0.00    +0.000 NA
ATOM     18  C   UNL     1       3.449   7.507  17.503  0.00  0.00    +0.000 A 
ATOM     19  C   UNL     1       2.948   8.804  17.528  0.00  0.00    +0.000 A 
ATOM     20  C   UNL     1       5.570   5.565  15.227  0.00  0.00    +0.000 C 
ATOM     21  C   UNL     1       6.483   4.356  15.410  0.00  0.00    +0.000 C 
ATOM     22  C   UNL     1       5.696   3.206  16.019  0.00  0.00    +0.000 C 
ATOM     23  C   UNL     1       5.185   3.590  17.405  0.00  0.00    +0.000 C 
ENDBRANCH   5   9
BRANCH   1  28
ATOM     24  C   UNL     1      -7.907  12.877  18.925  0.00  0.00    +0.000 C 
ATOM     25  C   UNL     1      -6.453  12.551  18.780  0.00  0.00    +0.000 A 
ATOM     26  C   UNL     1      -5.939  12.069  17.586  0.00  0.00    +0.000 A 
ATOM     27  C   UNL     1      -4.576  11.771  17.483  0.00  0.00    +0.000 A 
ATOM     28  C   UNL     1      -3.652  11.964  18.537  0.00  0.00    +0.000 A 
ATOM     29  C   UNL     1      -4.186  12.474  19.742  0.00  0.00    +0.000 A 
ATOM     30  C   UNL     1      -3.387  12.813  20.974  0.00  0.00    +0.000 C 
ATOM     31  C   UNL     1      -5.574  12.735  19.849  0.00  0.00    +0.000 A 
ENDBRANCH   1  28
TORSDOF 2
ENDMDL
MODEL 8
REMARK VINA RESULT:      -7.8      1.821      2.773
REMARK  Name = 
REMARK  4 active torsions:
REMARK  status: ('A' for Active; 'I' for Inactive)
REMARK    1  A    between atoms: C_1  and  C_2
REMARK    2  A    between atoms: C_5  and  N_6
REMARK    3  A    between atoms: C_10  and  C_12
REMARK    4  A    between atoms: C_29  and  C_30
REMARK                            x       y       z     vdW  Elec       q    Type
REMARK                         _______ _______ _______ _____ _____    ______ ____
ROOT
ATOM      1  N   UNL     1      -2.441  11.818  18.877  0.00  0.00    +0.000 N 
ATOM      2  C   UNL     1      -1.426  12.793  18.428  0.00  0.00    +0.000 C 
ATOM      3  C   UNL     1      -0.071  12.605  19.154  0.00  0.00    +0.000 C 
ATOM      4  N   UNL     1       0.336  11.197  19.216  0.00  0.00    +0.000 N 
ATOM      5  C   UNL     1       1.562  10.818  18.676  0.00  0.00    +0.000 C 
ATOM      6  O   UNL     1       2.363  11.632  18.218  0.00  0.00    +0.000 OA
ATOM      7  C   UNL     1      -0.709  10.347  19.808  0.00  0.00    +0.000 C 
ATOM      8  C   UNL     1      -1.968  10.420  18.925  0.00  0.00    +0.000 C 
ENDROOT
BRANCH   5   9
ATOM      9  C   UNL     1       1.973   9.390  18.673  0.00  0.00    +0.000 A 
ATOM     10  C   UNL     1       1.519   8.487  19.625  0.00  0.00    +0.000 A 
ATOM     11  C   UNL     1       2.066   7.212  19.683  0.00  0.00    +0.000 A 
ATOM     12  C   UNL     1       2.984   6.769  18.704  0.00  0.00    +0.000 A 
ATOM     13  C   UNL     1       3.586   5.491  18.701  0.00  0.00    +0.000 A 
ATOM     14 CL   UNL     1       3.332   4.409  20.042  0.00  0.00    +0.000 Cl
ATOM     15  C   UNL     1       4.402   5.080  17.638  0.00  0.00    +0.000 A 
ATOM     16  C   UNL     1       4.645   6.016  16.633  0.00  0.00    +0.000 A 
ATOM     17  N   UNL     1       4.124   7.263  16.645  0.00  0.00    +0.000 NA
ATOM     18  C   UNL     1       3.322   7.638  17.651  0.00  0.00    +0.000 A 
ATOM     19  C   UNL     1       2.827   8.938  17.659  0.00  0.00    +0.000 A 
ATOM     20  C   UNL     1       5.455   5.665  15.413  0.00  0.00    +0.000 C 
ATOM     21  C   UNL     1       6.360   4.454  15.615  0.00  0.00    +0.000 C 
ATOM     22  C   UNL     1       5.562   3.313  16.227  0.00  0.00    +0.000 C 
ATOM     23  C   UNL     1       5.040   3.713  17.604  0.00  0.00    +0.000 C 
ENDBRANCH   5   9
BRANCH   1  28
ATOM     24  C   UNL     1      -7.718  13.226  20.679  0.00  0.00    +0.000 C 
ATOM     25  C   UNL     1      -6.346  12.868  20.198  0.00  0.00    +0.000 A 
ATOM     26  C   UNL     1      -5.242  12.973  21.029  0.00  0.00    +0.000 A 
ATOM     27  C   UNL     1      -3.972  12.634  20.549  0.00  0.00    +0.000 A 
ATOM     28  C   UNL     1      -3.736  12.145  19.243  0.00  0.00    +0.000 A 
ATOM     29  C   UNL     1      -4.873  12.025  18.412  0.00  0.00    +0.000 A 
ATOM     30  C   UNL     1      -4.872  11.475  17.009  0.00  0.00    +0.000 C 
ATOM     31  C   UNL     1      -6.148  12.409  18.895  0.00  0.00    +0.000 A 
ENDBRANCH   1  28
TORSDOF 2
ENDMDL
MODEL 9
REMARK VINA RESULT:      -7.8      7.042      8.998
REMARK  Name = 
REMARK  4 active torsions:
REMARK  status: ('A' for Active; 'I' for Inactive)
REMARK    1  A    between atoms: C_1  and  C_2
REMARK    2  A    between atoms: C_5  and  N_6
REMARK    3  A    between atoms: C_10  and  C_12
REMARK    4  A    between atoms: C_29  and  C_30
REMARK                            x       y       z     vdW  Elec       q    Type
REMARK                         _______ _______ _______ _____ _____    ______ ____
ROOT
ATOM      1  N   UNL     1       1.560  14.165  20.563  0.00  0.00    +0.000 N 
ATOM      2  C   UNL     1       1.409  15.139  19.463  0.00  0.00    +0.000 C 
ATOM      3  C   UNL     1       2.299  16.391  19.663  0.00  0.00    +0.000 C 
ATOM      4  N   UNL     1       3.665  16.044  20.067  0.00  0.00    +0.000 N 
ATOM      5  C   UNL     1       4.736  16.479  19.290  0.00  0.00    +0.000 C 
ATOM      6  O   UNL     1       4.590  17.217  18.317  0.00  0.00    +0.000 OA
ATOM      7  C   UNL     1       3.685  15.180  21.257  0.00  0.00    +0.000 C 
ATOM      8  C   UNL     1       2.958  13.864  20.928  0.00  0.00    +0.000 C 
ENDROOT
BRANCH   5   9
ATOM      9  C   UNL     1       6.127  16.093  19.643  0.00  0.00    +0.000 A 
ATOM     10  C   UNL     1       6.897  16.831  20.532  0.00  0.00    +0.000 A 
ATOM     11  C   UNL     1       8.243  16.531  20.694  0.00  0.00    +0.000 A 
ATOM     12  C   UNL     1       8.815  15.399  20.071  0.00  0.00    +0.000 A 
ATOM     13  C   UNL     1      10.174  15.032  20.185  0.00  0.00    +0.000 A 
ATOM     14 CL   UNL     1      11.291  16.086  21.008  0.00  0.00    +0.000 Cl
ATOM     15  C   UNL     1      10.649  13.835  19.630  0.00  0.00    +0.000 A 
ATOM     16  C   UNL     1       9.734  13.072  18.906  0.00  0.00    +0.000 A 
ATOM     17  N   UNL     1       8.442  13.432  18.739  0.00  0.00    +0.000 NA
ATOM     18  C   UNL     1       7.990  14.564  19.296  0.00  0.00    +0.000 A 
ATOM     19  C   UNL     1       6.666  14.930  19.080  0.00  0.00    +0.000 A 
ATOM     20  C   UNL     1      10.114  11.738  18.320  0.00  0.00    +0.000 C 
ATOM     21  C   UNL     1      11.620  11.561  18.147  0.00  0.00    +0.000 C 
ATOM     22  C   UNL     1      12.333  11.943  19.434  0.00  0.00    +0.000 C 
ATOM     23  C   UNL     1      12.093  13.415  19.755  0.00  0.00    +0.000 C 
ENDBRANCH   5   9
BRANCH   1  28
ATOM     24  C   UNL     1      -2.839  11.935  23.523  0.00  0.00    +0.000 C 
ATOM     25  C   UNL     1      -1.700  12.511  22.740  0.00  0.00    +0.000 A 
ATOM     26  C   UNL     1      -1.247  13.800  22.972  0.00  0.00    +0.000 A 
ATOM     27  C   UNL     1      -0.183  14.312  22.222  0.00  0.00    +0.000 A 
ATOM     28  C   UNL     1       0.504  13.569  21.233  0.00  0.00    +0.000 A 
ATOM     29  C   UNL     1       0.045  12.250  21.020  0.00  0.00    +0.000 A 
ATOM     30  C   UNL     1       0.656  11.258  20.064  0.00  0.00    +0.000 C 
ATOM     31  C   UNL     1      -1.059  11.755  21.757  0.00  0.00    +0.000 A 
ENDBRANCH   1  28
TORSDOF 2
ENDMDL
