MODEL 1
REMARK VINA RESULT:      -7.1      0.000      0.000
REMARK  Name = 
REMARK  3 active torsions:
REMARK  status: ('A' for Active; 'I' for Inactive)
REMARK    1  A    between atoms: C_1  and  N_2
REMARK    2  A    between atoms: C_4  and  N_5
REMARK    3  A    between atoms: N_18  and  C_19
REMARK                            x       y       z     vdW  Elec       q    Type
REMARK                         _______ _______ _______ _____ _____    ______ ____
ROOT
ATOM      1  N   UNL     1      -3.432  14.688  25.407  0.00  0.00    +0.000 N 
ATOM      2  C   UNL     1      -3.833  14.014  24.239  0.00  0.00    +0.000 A 
ATOM      3  C   UNL     1      -2.935  13.857  23.195  0.00  0.00    +0.000 A 
ATOM      4  C   UNL     1      -3.317  13.263  21.982  0.00  0.00    +0.000 A 
ATOM      5  C   UNL     1      -2.456  13.115  20.887  0.00  0.00    +0.000 A 
ATOM      6  N   UNL     1      -1.121  13.496  20.957  0.00  0.00    +0.000 N 
ATOM      7  C   UNL     1      -0.459  13.984  19.736  0.00  0.00    +0.000 C 
ATOM      8  C   UNL     1       0.619  13.018  19.233  0.00  0.00    +0.000 C 
ATOM      9  O   UNL     1       1.538  12.661  20.279  0.00  0.00    +0.000 OA
ATOM     10  C   UNL     1       0.833  11.984  21.325  0.00  0.00    +0.000 C 
ATOM     11  C   UNL     1      -0.234  12.883  21.960  0.00  0.00    +0.000 C 
ATOM     12  N   UNL     1      -2.928  12.670  19.718  0.00  0.00    +0.000 NA
ATOM     13  C   UNL     1      -4.227  12.340  19.619  0.00  0.00    +0.000 A 
ATOM     14  N   UNL     1      -4.727  11.953  18.375  0.00  0.00    +0.000 N 
ATOM     15  N   UNL     1      -5.097  12.404  20.635  0.00  0.00    +0.000 NA
ATOM     16  C   UNL     1      -4.635  12.863  21.810  0.00  0.00    +0.000 A 
ATOM     17  C   UNL     1      -5.445  13.002  22.936  0.00  0.00    +0.000 A 
ATOM     18  N   UNL     1      -5.082  13.538  24.142  0.00  0.00    +0.000 NA
ATOM     19  H   UNL     1      -4.159  14.605  26.111  0.00  0.00    +0.000 HD
ATOM     20  H   UNL     1      -5.706  11.717  18.460  0.00  0.00    +0.000 HD
ENDROOT
BRANCH   1  24
ATOM     21  C   UNL     1       0.583  17.278  26.371  0.00  0.00    +0.000 C 
ATOM     22  N   UNL     1      -0.727  16.865  25.925  0.00  0.00    +0.000 N 
ATOM     23  C   UNL     1      -1.257  15.614  26.026  0.00  0.00    +0.000 A 
ATOM     24  C   UNL     1      -2.523  15.690  25.494  0.00  0.00    +0.000 A 
ATOM     25  C   UNL     1      -2.651  17.026  25.069  0.00  0.00    +0.000 A 
ATOM     26  N   UNL     1      -1.559  17.753  25.347  0.00  0.00    +0.000 NA
ENDBRANCH   1  24
BRANCH  14  27
ATOM     27  C   UNL     1      -4.041  11.232  17.382  0.00  0.00    +0.000 A 
ATOM     28  C   UNL     1      -3.050  10.289  17.695  0.00  0.00    +0.000 A 
ATOM     29  C   UNL     1      -2.389   9.579  16.692  0.00  0.00    +0.000 A 
ATOM     30  C   UNL     1      -2.704   9.813  15.358  0.00  0.00    +0.000 A 
ATOM     31  C   UNL     1      -3.688  10.745  15.030  0.00  0.00    +0.000 A 
ATOM     32  C   UNL     1      -4.358  11.444  16.035  0.00  0.00    +0.000 A 
ENDBRANCH  14  27
TORSDOF 2
ENDMDL
MODEL 2
REMARK VINA RESULT:      -6.5      7.085     10.007
REMARK  Name = 
REMARK  3 active torsions:
REMARK  status: ('A' for Active; 'I' for Inactive)
REMARK    1  A    between atoms: C_1  and  N_2
REMARK    2  A    between atoms: C_4  and  N_5
REMARK    3  A    between atoms: N_18  and  C_19
REMARK                            x       y       z     vdW  Elec       q    Type
REMARK                         _______ _______ _______ _____ _____    ______ ____
ROOT
ATOM      1  N   UNL     1       1.664  16.191  20.263  0.00  0.00    +0.000 N 
ATOM      2  C   UNL     1       2.821  15.750  19.596  0.00  0.00    +0.000 A 
ATOM      3  C   UNL     1       3.959  15.446  20.325  0.00  0.00    +0.000 A 
ATOM      4  C   UNL     1       5.159  15.080  19.695  0.00  0.00    +0.000 A 
ATOM      5  C   UNL     1       6.343  14.798  20.387  0.00  0.00    +0.000 A 
ATOM      6  N   UNL     1       6.390  14.798  21.776  0.00  0.00    +0.000 N 
ATOM      7  C   UNL     1       7.642  15.190  22.442  0.00  0.00    +0.000 C 
ATOM      8  C   UNL     1       8.309  14.015  23.167  0.00  0.00    +0.000 C 
ATOM      9  O   UNL     1       7.385  13.338  24.035  0.00  0.00    +0.000 OA
ATOM     10  C   UNL     1       6.313  12.790  23.260  0.00  0.00    +0.000 C 
ATOM     11  C   UNL     1       5.520  13.887  22.540  0.00  0.00    +0.000 C 
ATOM     12  N   UNL     1       7.481  14.596  19.714  0.00  0.00    +0.000 NA
ATOM     13  C   UNL     1       7.464  14.638  18.371  0.00  0.00    +0.000 A 
ATOM     14  N   UNL     1       8.671  14.504  17.682  0.00  0.00    +0.000 N 
ATOM     15  N   UNL     1       6.362  14.848  17.640  0.00  0.00    +0.000 NA
ATOM     16  C   UNL     1       5.216  15.066  18.308  0.00  0.00    +0.000 A 
ATOM     17  C   UNL     1       4.007  15.323  17.664  0.00  0.00    +0.000 A 
ATOM     18  N   UNL     1       2.815  15.638  18.260  0.00  0.00    +0.000 NA
ATOM     19  H   UNL     1       0.894  16.249  19.604  0.00  0.00    +0.000 HD
ATOM     20  H   UNL     1       8.499  14.535  16.687  0.00  0.00    +0.000 HD
ENDROOT
BRANCH   1  24
ATOM     21  C   UNL     1       0.942  17.525  24.896  0.00  0.00    +0.000 C 
ATOM     22  N   UNL     1       1.290  17.512  23.495  0.00  0.00    +0.000 N 
ATOM     23  C   UNL     1       1.196  16.449  22.648  0.00  0.00    +0.000 A 
ATOM     24  C   UNL     1       1.613  16.901  21.418  0.00  0.00    +0.000 A 
ATOM     25  C   UNL     1       1.968  18.246  21.634  0.00  0.00    +0.000 A 
ATOM     26  N   UNL     1       1.756  18.629  22.901  0.00  0.00    +0.000 NA
ENDBRANCH   1  24
BRANCH  14  27
ATOM     27  C   UNL     1       9.769  13.711  18.057  0.00  0.00    +0.000 A 
ATOM     28  C   UNL     1      10.891  14.250  18.706  0.00  0.00    +0.000 A 
ATOM     29  C   UNL     1      11.965  13.440  19.078  0.00  0.00    +0.000 A 
ATOM     30  C   UNL     1      11.935  12.080  18.794  0.00  0.00    +0.000 A 
ATOM     31  C   UNL     1      10.826  11.528  18.154  0.00  0.00    +0.000 A 
ATOM     32  C   UNL     1       9.746  12.336  17.795  0.00  0.00    +0.000 A 
ENDBRANCH  14  27
TORSDOF 2
ENDMDL
MODEL 3
REMARK VINA RESULT:      -6.4      0.894      1.248
REMARK  Name = 
REMARK  3 active torsions:
REMARK  status: ('A' for Active; 'I' for Inactive)
REMARK    1  A    between atoms: C_1  and  N_2
REMARK    2  A    between atoms: C_4  and  N_5
REMARK    3  A    between atoms: N_18  and  C_19
REMARK                            x       y       z     vdW  Elec       q    Type
REMARK                         _______ _______ _______ _____ _____    ______ ____
ROOT
ATOM      1  N   UNL     1      -2.605  15.171  25.451  0.00  0.00    +0.000 N 
ATOM      2  C   UNL     1      -3.066  14.373  24.389  0.00  0.00    +0.000 A 
ATOM      3  C   UNL     1      -2.334  14.302  23.215  0.00  0.00    +0.000 A 
ATOM      4  C   UNL     1      -2.798  13.583  22.102  0.00  0.00    +0.000 A 
ATOM      5  C   UNL     1      -2.111  13.513  20.884  0.00  0.00    +0.000 A 
ATOM      6  N   UNL     1      -0.867  14.110  20.716  0.00  0.00    +0.000 N 
ATOM      7  C   UNL     1      -0.502  14.625  19.387  0.00  0.00    +0.000 C 
ATOM      8  C   UNL     1       0.631  13.820  18.741  0.00  0.00    +0.000 C 
ATOM      9  O   UNL     1       1.752  13.681  19.629  0.00  0.00    +0.000 OA
ATOM     10  C   UNL     1       1.350  12.962  20.799  0.00  0.00    +0.000 C 
ATOM     11  C   UNL     1       0.261  13.710  21.576  0.00  0.00    +0.000 C 
ATOM     12  N   UNL     1      -2.681  12.928  19.825  0.00  0.00    +0.000 NA
ATOM     13  C   UNL     1      -3.903  12.385  19.957  0.00  0.00    +0.000 A 
ATOM     14  N   UNL     1      -4.523  11.848  18.827  0.00  0.00    +0.000 N 
ATOM     15  N   UNL     1      -4.598  12.366  21.101  0.00  0.00    +0.000 NA
ATOM     16  C   UNL     1      -4.039  12.964  22.167  0.00  0.00    +0.000 A 
ATOM     17  C   UNL     1      -4.670  13.035  23.408  0.00  0.00    +0.000 A 
ATOM     18  N   UNL     1      -4.215  13.694  24.519  0.00  0.00    +0.000 NA
ATOM     19  H   UNL     1      -3.184  15.013  26.270  0.00  0.00    +0.000 HD
ATOM     20  H   UNL     1      -5.420  11.461  19.082  0.00  0.00    +0.000 HD
ENDROOT
BRANCH   1  24
ATOM     21  C   UNL     1       1.004  18.355  24.679  0.00  0.00    +0.000 C 
ATOM     22  N   UNL     1      -0.264  17.751  25.013  0.00  0.00    +0.000 N 
ATOM     23  C   UNL     1      -0.582  16.430  24.910  0.00  0.00    +0.000 A 
ATOM     24  C   UNL     1      -1.878  16.312  25.352  0.00  0.00    +0.000 A 
ATOM     25  C   UNL     1      -2.266  17.627  25.673  0.00  0.00    +0.000 A 
ATOM     26  N   UNL     1      -1.275  18.508  25.482  0.00  0.00    +0.000 NA
ENDBRANCH   1  24
BRANCH  14  27
ATOM     27  C   UNL     1      -3.891  11.191  17.756  0.00  0.00    +0.000 A 
ATOM     28  C   UNL     1      -4.388  11.253  16.446  0.00  0.00    +0.000 A 
ATOM     29  C   UNL     1      -3.738  10.600  15.397  0.00  0.00    +0.000 A 
ATOM     30  C   UNL     1      -2.585   9.866  15.650  0.00  0.00    +0.000 A 
ATOM     31  C   UNL     1      -2.075   9.797  16.946  0.00  0.00    +0.000 A 
ATOM     32  C   UNL     1      -2.719  10.462  17.991  0.00  0.00    +0.000 A 
ENDBRANCH  14  27
TORSDOF 2
ENDMDL
MODEL 4
REMARK VINA RESULT:      -6.3      3.874      7.278
REMARK  Name = 
REMARK  3 active torsions:
REMARK  status: ('A' for Active; 'I' for Inactive)
REMARK    1  A    between atoms: C_1  and  N_2
REMARK    2  A    between atoms: C_4  and  N_5
REMARK    3  A    between atoms: N_18  and  C_19
REMARK                            x       y       z     vdW  Elec       q    Type
REMARK                         _______ _______ _______ _____ _____    ______ ____
ROOT
ATOM      1  N   UNL     1       3.824  14.175  17.600  0.00  0.00    +0.000 N 
ATOM      2  C   UNL     1       2.731  13.566  18.242  0.00  0.00    +0.000 A 
ATOM      3  C   UNL     1       1.880  14.333  19.022  0.00  0.00    +0.000 A 
ATOM      4  C   UNL     1       0.825  13.754  19.745  0.00  0.00    +0.000 A 
ATOM      5  C   UNL     1      -0.038  14.481  20.573  0.00  0.00    +0.000 A 
ATOM      6  N   UNL     1       0.056  15.863  20.684  0.00  0.00    +0.000 N 
ATOM      7  C   UNL     1      -0.307  16.498  21.961  0.00  0.00    +0.000 C 
ATOM      8  C   UNL     1      -1.581  17.344  21.849  0.00  0.00    +0.000 C 
ATOM      9  O   UNL     1      -1.506  18.268  20.752  0.00  0.00    +0.000 OA
ATOM     10  C   UNL     1      -1.383  17.543  19.523  0.00  0.00    +0.000 C 
ATOM     11  C   UNL     1      -0.098  16.708  19.487  0.00  0.00    +0.000 C 
ATOM     12  N   UNL     1      -0.928  13.843  21.340  0.00  0.00    +0.000 NA
ATOM     13  C   UNL     1      -1.002  12.503  21.280  0.00  0.00    +0.000 A 
ATOM     14  N   UNL     1      -1.880  11.841  22.141  0.00  0.00    +0.000 N 
ATOM     15  N   UNL     1      -0.249  11.744  20.474  0.00  0.00    +0.000 NA
ATOM     16  C   UNL     1       0.658  12.376  19.710  0.00  0.00    +0.000 A 
ATOM     17  C   UNL     1       1.520  11.698  18.849  0.00  0.00    +0.000 A 
ATOM     18  N   UNL     1       2.527  12.249  18.102  0.00  0.00    +0.000 NA
ATOM     19  H   UNL     1       4.266  13.505  16.976  0.00  0.00    +0.000 HD
ATOM     20  H   UNL     1      -1.841  10.847  21.968  0.00  0.00    +0.000 HD
ENDROOT
BRANCH   1  24
ATOM     21  C   UNL     1       7.362  17.064  19.301  0.00  0.00    +0.000 C 
ATOM     22  N   UNL     1       6.106  16.557  18.803  0.00  0.00    +0.000 N 
ATOM     23  C   UNL     1       5.847  15.277  18.415  0.00  0.00    +0.000 A 
ATOM     24  C   UNL     1       4.526  15.251  18.036  0.00  0.00    +0.000 A 
ATOM     25  C   UNL     1       4.081  16.575  18.203  0.00  0.00    +0.000 A 
ATOM     26  N   UNL     1       5.041  17.375  18.689  0.00  0.00    +0.000 NA
ENDBRANCH   1  24
BRANCH  14  27
ATOM     27  C   UNL     1      -3.131  12.305  22.584  0.00  0.00    +0.000 A 
ATOM     28  C   UNL     1      -3.457  12.384  23.946  0.00  0.00    +0.000 A 
ATOM     29  C   UNL     1      -4.702  12.858  24.362  0.00  0.00    +0.000 A 
ATOM     30  C   UNL     1      -5.644  13.248  23.416  0.00  0.00    +0.000 A 
ATOM     31  C   UNL     1      -5.334  13.180  22.058  0.00  0.00    +0.000 A 
ATOM     32  C   UNL     1      -4.083  12.720  21.644  0.00  0.00    +0.000 A 
ENDBRANCH  14  27
TORSDOF 2
ENDMDL
MODEL 5
REMARK VINA RESULT:      -6.3      1.123      1.219
REMARK  Name = 
REMARK  3 active torsions:
REMARK  status: ('A' for Active; 'I' for Inactive)
REMARK    1  A    between atoms: C_1  and  N_2
REMARK    2  A    between atoms: C_4  and  N_5
REMARK    3  A    between atoms: N_18  and  C_19
REMARK                            x       y       z     vdW  Elec       q    Type
REMARK                         _______ _______ _______ _____ _____    ______ ____
ROOT
ATOM      1  N   UNL     1      -1.912  15.331  25.471  0.00  0.00    +0.000 N 
ATOM      2  C   UNL     1      -2.453  14.519  24.457  0.00  0.00    +0.000 A 
ATOM      3  C   UNL     1      -1.808  14.430  23.233  0.00  0.00    +0.000 A 
ATOM      4  C   UNL     1      -2.353  13.697  22.168  0.00  0.00    +0.000 A 
ATOM      5  C   UNL     1      -1.757  13.606  20.904  0.00  0.00    +0.000 A 
ATOM      6  N   UNL     1      -0.528  14.196  20.638  0.00  0.00    +0.000 N 
ATOM      7  C   UNL     1      -0.259  14.692  19.278  0.00  0.00    +0.000 C 
ATOM      8  C   UNL     1       0.822  13.873  18.563  0.00  0.00    +0.000 C 
ATOM      9  O   UNL     1       2.004  13.742  19.369  0.00  0.00    +0.000 OA
ATOM     10  C   UNL     1       1.686  13.040  20.576  0.00  0.00    +0.000 C 
ATOM     11  C   UNL     1       0.659  13.804  21.418  0.00  0.00    +0.000 C 
ATOM     12  N   UNL     1      -2.405  13.009  19.898  0.00  0.00    +0.000 NA
ATOM     13  C   UNL     1      -3.616  12.473  20.126  0.00  0.00    +0.000 A 
ATOM     14  N   UNL     1      -4.317  11.923  19.052  0.00  0.00    +0.000 N 
ATOM     15  N   UNL     1      -4.225  12.473  21.318  0.00  0.00    +0.000 NA
ATOM     16  C   UNL     1      -3.588  13.083  22.332  0.00  0.00    +0.000 A 
ATOM     17  C   UNL     1      -4.127  13.175  23.614  0.00  0.00    +0.000 A 
ATOM     18  N   UNL     1      -3.591  13.847  24.679  0.00  0.00    +0.000 NA
ATOM     19  H   UNL     1      -2.431  15.187  26.332  0.00  0.00    +0.000 HD
ATOM     20  H   UNL     1      -5.195  11.543  19.377  0.00  0.00    +0.000 HD
ENDROOT
BRANCH   1  24
ATOM     21  C   UNL     1       1.691  18.612  25.450  0.00  0.00    +0.000 C 
ATOM     22  N   UNL     1       0.418  17.950  25.292  0.00  0.00    +0.000 N 
ATOM     23  C   UNL     1       0.140  16.651  25.594  0.00  0.00    +0.000 A 
ATOM     24  C   UNL     1      -1.192  16.467  25.303  0.00  0.00    +0.000 A 
ATOM     25  C   UNL     1      -1.622  17.710  24.802  0.00  0.00    +0.000 A 
ATOM     26  N   UNL     1      -0.643  18.626  24.809  0.00  0.00    +0.000 NA
ENDBRANCH   1  24
BRANCH  14  27
ATOM     27  C   UNL     1      -3.767  11.249  17.947  0.00  0.00    +0.000 A 
ATOM     28  C   UNL     1      -2.878  10.174  18.097  0.00  0.00    +0.000 A 
ATOM     29  C   UNL     1      -2.352   9.514  16.985  0.00  0.00    +0.000 A 
ATOM     30  C   UNL     1      -2.703   9.931  15.706  0.00  0.00    +0.000 A 
ATOM     31  C   UNL     1      -3.588  10.994  15.539  0.00  0.00    +0.000 A 
ATOM     32  C   UNL     1      -4.124  11.644  16.652  0.00  0.00    +0.000 A 
ENDBRANCH  14  27
TORSDOF 2
ENDMDL
MODEL 6
REMARK VINA RESULT:      -6.2      2.608      7.901
REMARK  Name = 
REMARK  3 active torsions:
REMARK  status: ('A' for Active; 'I' for Inactive)
REMARK    1  A    between atoms: C_1  and  N_2
REMARK    2  A    between atoms: C_4  and  N_5
REMARK    3  A    between atoms: N_18  and  C_19
REMARK                            x       y       z     vdW  Elec       q    Type
REMARK                         _______ _______ _______ _____ _____    ______ ____
ROOT
ATOM      1  N   UNL     1      -7.584  12.950  19.733  0.00  0.00    +0.000 N 
ATOM      2  C   UNL     1      -6.894  13.847  20.569  0.00  0.00    +0.000 A 
ATOM      3  C   UNL     1      -5.627  13.522  21.027  0.00  0.00    +0.000 A 
ATOM      4  C   UNL     1      -4.937  14.350  21.925  0.00  0.00    +0.000 A 
ATOM      5  C   UNL     1      -3.672  14.047  22.443  0.00  0.00    +0.000 A 
ATOM      6  N   UNL     1      -2.976  12.914  22.041  0.00  0.00    +0.000 N 
ATOM      7  C   UNL     1      -2.078  12.255  23.003  0.00  0.00    +0.000 C 
ATOM      8  C   UNL     1      -0.603  12.387  22.609  0.00  0.00    +0.000 C 
ATOM      9  O   UNL     1      -0.382  11.979  21.249  0.00  0.00    +0.000 OA
ATOM     10  C   UNL     1      -1.123  12.830  20.367  0.00  0.00    +0.000 C 
ATOM     11  C   UNL     1      -2.632  12.729  20.621  0.00  0.00    +0.000 C 
ATOM     12  N   UNL     1      -3.139  14.811  23.402  0.00  0.00    +0.000 NA
ATOM     13  C   UNL     1      -3.819  15.886  23.836  0.00  0.00    +0.000 A 
ATOM     14  N   UNL     1      -3.290  16.632  24.892  0.00  0.00    +0.000 N 
ATOM     15  N   UNL     1      -5.007  16.269  23.353  0.00  0.00    +0.000 NA
ATOM     16  C   UNL     1      -5.557  15.499  22.398  0.00  0.00    +0.000 A 
ATOM     17  C   UNL     1      -6.800  15.775  21.832  0.00  0.00    +0.000 A 
ATOM     18  N   UNL     1      -7.472  15.004  20.921  0.00  0.00    +0.000 NA
ATOM     19  H   UNL     1      -8.433  13.390  19.391  0.00  0.00    +0.000 HD
ATOM     20  H   UNL     1      -3.897  17.414  25.093  0.00  0.00    +0.000 HD
ENDROOT
BRANCH   1  24
ATOM     21  C   UNL     1      -7.815   8.255  21.023  0.00  0.00    +0.000 C 
ATOM     22  N   UNL     1      -7.579   9.486  20.307  0.00  0.00    +0.000 N 
ATOM     23  C   UNL     1      -7.916  10.739  20.721  0.00  0.00    +0.000 A 
ATOM     24  C   UNL     1      -7.484  11.597  19.737  0.00  0.00    +0.000 A 
ATOM     25  C   UNL     1      -6.924  10.759  18.754  0.00  0.00    +0.000 A 
ATOM     26  N   UNL     1      -6.965   9.467  19.108  0.00  0.00    +0.000 NA
ENDBRANCH   1  24
BRANCH  14  27
ATOM     27  C   UNL     1      -1.929  16.870  25.152  0.00  0.00    +0.000 A 
ATOM     28  C   UNL     1      -1.134  17.657  24.306  0.00  0.00    +0.000 A 
ATOM     29  C   UNL     1       0.212  17.887  24.590  0.00  0.00    +0.000 A 
ATOM     30  C   UNL     1       0.785  17.320  25.724  0.00  0.00    +0.000 A 
ATOM     31  C   UNL     1       0.008  16.539  26.577  0.00  0.00    +0.000 A 
ATOM     32  C   UNL     1      -1.342  16.321  26.299  0.00  0.00    +0.000 A 
ENDBRANCH  14  27
TORSDOF 2
ENDMDL
MODEL 7
REMARK VINA RESULT:      -6.2      4.005      6.378
REMARK  Name = 
REMARK  3 active torsions:
REMARK  status: ('A' for Active; 'I' for Inactive)
REMARK    1  A    between atoms: C_1  and  N_2
REMARK    2  A    between atoms: C_4  and  N_5
REMARK    3  A    between atoms: N_18  and  C_19
REMARK                            x       y       z     vdW  Elec       q    Type
REMARK                         _______ _______ _______ _____ _____    ______ ____
ROOT
ATOM      1  N   UNL     1      -4.190  12.453  23.671  0.00  0.00    +0.000 N 
ATOM      2  C   UNL     1      -2.881  12.446  23.156  0.00  0.00    +0.000 A 
ATOM      3  C   UNL     1      -2.422  13.535  22.433  0.00  0.00    +0.000 A 
ATOM      4  C   UNL     1      -1.153  13.537  21.833  0.00  0.00    +0.000 A 
ATOM      5  C   UNL     1      -0.661  14.599  21.065  0.00  0.00    +0.000 A 
ATOM      6  N   UNL     1      -1.388  15.772  20.897  0.00  0.00    +0.000 N 
ATOM      7  C   UNL     1      -1.244  16.520  19.638  0.00  0.00    +0.000 C 
ATOM      8  C   UNL     1      -0.542  17.868  19.839  0.00  0.00    +0.000 C 
ATOM      9  O   UNL     1      -1.155  18.631  20.891  0.00  0.00    +0.000 OA
ATOM     10  C   UNL     1      -1.041  17.917  22.128  0.00  0.00    +0.000 C 
ATOM     11  C   UNL     1      -1.773  16.571  22.073  0.00  0.00    +0.000 C 
ATOM     12  N   UNL     1       0.497  14.471  20.408  0.00  0.00    +0.000 NA
ATOM     13  C   UNL     1       1.191  13.327  20.521  0.00  0.00    +0.000 A 
ATOM     14  N   UNL     1       2.358  13.174  19.770  0.00  0.00    +0.000 N 
ATOM     15  N   UNL     1       0.812  12.290  21.279  0.00  0.00    +0.000 NA
ATOM     16  C   UNL     1      -0.358  12.404  21.932  0.00  0.00    +0.000 A 
ATOM     17  C   UNL     1      -0.876  11.386  22.731  0.00  0.00    +0.000 A 
ATOM     18  N   UNL     1      -2.092  11.382  23.361  0.00  0.00    +0.000 NA
ATOM     19  H   UNL     1      -4.321  11.645  24.273  0.00  0.00    +0.000 HD
ATOM     20  H   UNL     1       2.778  12.278  19.974  0.00  0.00    +0.000 HD
ENDROOT
BRANCH   1  24
ATOM     21  C   UNL     1      -7.871  13.703  20.731  0.00  0.00    +0.000 C 
ATOM     22  N   UNL     1      -6.924  13.645  21.819  0.00  0.00    +0.000 N 
ATOM     23  C   UNL     1      -5.927  12.730  21.975  0.00  0.00    +0.000 A 
ATOM     24  C   UNL     1      -5.270  13.072  23.133  0.00  0.00    +0.000 A 
ATOM     25  C   UNL     1      -5.968  14.193  23.621  0.00  0.00    +0.000 A 
ATOM     26  N   UNL     1      -6.971  14.557  22.810  0.00  0.00    +0.000 NA
ENDBRANCH   1  24
BRANCH  14  27
ATOM     27  C   UNL     1       3.276  14.182  19.431  0.00  0.00    +0.000 A 
ATOM     28  C   UNL     1       3.392  14.676  18.122  0.00  0.00    +0.000 A 
ATOM     29  C   UNL     1       4.304  15.685  17.812  0.00  0.00    +0.000 A 
ATOM     30  C   UNL     1       5.123  16.206  18.807  0.00  0.00    +0.000 A 
ATOM     31  C   UNL     1       5.018  15.730  20.113  0.00  0.00    +0.000 A 
ATOM     32  C   UNL     1       4.095  14.730  20.425  0.00  0.00    +0.000 A 
ENDBRANCH  14  27
TORSDOF 2
ENDMDL
MODEL 8
REMARK VINA RESULT:      -6.1      3.077      5.264
REMARK  Name = 
REMARK  3 active torsions:
REMARK  status: ('A' for Active; 'I' for Inactive)
REMARK    1  A    between atoms: C_1  and  N_2
REMARK    2  A    between atoms: C_4  and  N_5
REMARK    3  A    between atoms: N_18  and  C_19
REMARK                            x       y       z     vdW  Elec       q    Type
REMARK                         _______ _______ _______ _____ _____    ______ ____
ROOT
ATOM      1  N   UNL     1       2.121  15.296  21.890  0.00  0.00    +0.000 N 
ATOM      2  C   UNL     1       0.768  14.927  21.999  0.00  0.00    +0.000 A 
ATOM      3  C   UNL     1       0.205  14.094  21.046  0.00  0.00    +0.000 A 
ATOM      4  C   UNL     1      -1.159  13.765  21.071  0.00  0.00    +0.000 A 
ATOM      5  C   UNL     1      -1.780  12.957  20.111  0.00  0.00    +0.000 A 
ATOM      6  N   UNL     1      -1.055  12.362  19.085  0.00  0.00    +0.000 N 
ATOM      7  C   UNL     1      -1.714  12.141  17.788  0.00  0.00    +0.000 C 
ATOM      8  C   UNL     1      -1.928  10.652  17.489  0.00  0.00    +0.000 C 
ATOM      9  O   UNL     1      -0.713   9.903  17.649  0.00  0.00    +0.000 OA
ATOM     10  C   UNL     1      -0.270   9.992  19.008  0.00  0.00    +0.000 C 
ATOM     11  C   UNL     1       0.047  11.438  19.405  0.00  0.00    +0.000 C 
ATOM     12  N   UNL     1      -3.108  12.804  20.120  0.00  0.00    +0.000 NA
ATOM     13  C   UNL     1      -3.830  13.410  21.078  0.00  0.00    +0.000 A 
ATOM     14  N   UNL     1      -5.222  13.309  21.032  0.00  0.00    +0.000 N 
ATOM     15  N   UNL     1      -3.304  14.153  22.059  0.00  0.00    +0.000 NA
ATOM     16  C   UNL     1      -1.971  14.323  22.050  0.00  0.00    +0.000 A 
ATOM     17  C   UNL     1      -1.304  15.095  23.000  0.00  0.00    +0.000 A 
ATOM     18  N   UNL     1       0.033  15.392  23.019  0.00  0.00    +0.000 NA
ATOM     19  H   UNL     1       2.403  15.800  22.725  0.00  0.00    +0.000 HD
ATOM     20  H   UNL     1      -5.624  13.793  21.822  0.00  0.00    +0.000 HD
ENDROOT
BRANCH   1  24
ATOM     21  C   UNL     1       5.250  14.614  18.215  0.00  0.00    +0.000 C 
ATOM     22  N   UNL     1       4.235  15.151  19.091  0.00  0.00    +0.000 N 
ATOM     23  C   UNL     1       3.767  14.576  20.233  0.00  0.00    +0.000 A 
ATOM     24  C   UNL     1       2.832  15.445  20.744  0.00  0.00    +0.000 A 
ATOM     25  C   UNL     1       2.786  16.504  19.818  0.00  0.00    +0.000 A 
ATOM     26  N   UNL     1       3.657  16.336  18.813  0.00  0.00    +0.000 NA
ENDBRANCH   1  24
BRANCH  14  27
ATOM     27  C   UNL     1      -5.969  12.204  20.586  0.00  0.00    +0.000 A 
ATOM     28  C   UNL     1      -5.739  11.602  19.340  0.00  0.00    +0.000 A 
ATOM     29  C   UNL     1      -6.488  10.501  18.923  0.00  0.00    +0.000 A 
ATOM     30  C   UNL     1      -7.487   9.994  19.746  0.00  0.00    +0.000 A 
ATOM     31  C   UNL     1      -7.726  10.578  20.989  0.00  0.00    +0.000 A 
ATOM     32  C   UNL     1      -6.967  11.671  21.411  0.00  0.00    +0.000 A 
ENDBRANCH  14  27
TORSDOF 2
ENDMDL
MODEL 9
REMARK VINA RESULT:      -6.1      3.077      5.232
REMARK  Name = 
REMARK  3 active torsions:
REMARK  status: ('A' for Active; 'I' for Inactive)
REMARK    1  A    between atoms: C_1  and  N_2
REMARK    2  A    between atoms: C_4  and  N_5
REMARK    3  A    between atoms: N_18  and  C_19
REMARK                            x       y       z     vdW  Elec       q    Type
REMARK                         _______ _______ _______ _____ _____    ______ ____
ROOT
ATOM      1  N   UNL     1       1.556  16.047  21.315  0.00  0.00    +0.000 N 
ATOM      2  C   UNL     1       0.228  15.602  21.444  0.00  0.00    +0.000 A 
ATOM      3  C   UNL     1      -0.226  14.557  20.655  0.00  0.00    +0.000 A 
ATOM      4  C   UNL     1      -1.564  14.135  20.693  0.00  0.00    +0.000 A 
ATOM      5  C   UNL     1      -2.076  13.108  19.890  0.00  0.00    +0.000 A 
ATOM      6  N   UNL     1      -1.259  12.383  19.031  0.00  0.00    +0.000 N 
ATOM      7  C   UNL     1      -1.832  11.862  17.780  0.00  0.00    +0.000 C 
ATOM      8  C   UNL     1      -1.927  10.331  17.775  0.00  0.00    +0.000 C 
ATOM      9  O   UNL     1      -0.673   9.724  18.127  0.00  0.00    +0.000 OA
ATOM     10  C   UNL     1      -0.310  10.112  19.457  0.00  0.00    +0.000 C 
ATOM     11  C   UNL     1      -0.114  11.628  19.570  0.00  0.00    +0.000 C 
ATOM     12  N   UNL     1      -3.389  12.857  19.879  0.00  0.00    +0.000 NA
ATOM     13  C   UNL     1      -4.201  13.580  20.669  0.00  0.00    +0.000 A 
ATOM     14  N   UNL     1      -5.578  13.364  20.592  0.00  0.00    +0.000 N 
ATOM     15  N   UNL     1      -3.779  14.539  21.503  0.00  0.00    +0.000 NA
ATOM     16  C   UNL     1      -2.462  14.808  21.510  0.00  0.00    +0.000 A 
ATOM     17  C   UNL     1      -1.900  15.800  22.313  0.00  0.00    +0.000 A 
ATOM     18  N   UNL     1      -0.590  16.198  22.323  0.00  0.00    +0.000 NA
ATOM     19  H   UNL     1       1.758  16.724  22.044  0.00  0.00    +0.000 HD
ATOM     20  H   UNL     1      -6.053  13.961  21.254  0.00  0.00    +0.000 HD
ENDROOT
BRANCH   1  24
ATOM     21  C   UNL     1       4.916  14.909  17.972  0.00  0.00    +0.000 C 
ATOM     22  N   UNL     1       3.820  15.524  18.683  0.00  0.00    +0.000 N 
ATOM     23  C   UNL     1       3.334  15.150  19.900  0.00  0.00    +0.000 A 
ATOM     24  C   UNL     1       2.314  16.024  20.190  0.00  0.00    +0.000 A 
ATOM     25  C   UNL     1       2.242  16.873  19.069  0.00  0.00    +0.000 A 
ATOM     26  N   UNL     1       3.174  16.581  18.152  0.00  0.00    +0.000 NA
ENDBRANCH   1  24
BRANCH  14  27
ATOM     27  C   UNL     1      -6.222  12.139  20.346  0.00  0.00    +0.000 A 
ATOM     28  C   UNL     1      -7.140  11.585  21.251  0.00  0.00    +0.000 A 
ATOM     29  C   UNL     1      -7.775  10.372  20.981  0.00  0.00    +0.000 A 
ATOM     30  C   UNL     1      -7.490   9.691  19.803  0.00  0.00    +0.000 A 
ATOM     31  C   UNL     1      -6.583  10.229  18.891  0.00  0.00    +0.000 A 
ATOM     32  C   UNL     1      -5.959  11.449  19.156  0.00  0.00    +0.000 A 
ENDBRANCH  14  27
TORSDOF 2
ENDMDL
