MODEL 1
REMARK VINA RESULT:      -7.3      0.000      0.000
REMARK  Name = 
REMARK  8 active torsions:
REMARK  status: ('A' for Active; 'I' for Inactive)
REMARK    1  A    between atoms: C_1  and  C_2
REMARK    2  A    between atoms: C_6  and  C_7
REMARK    3  A    between atoms: C_8  and  N_9
REMARK    4  A    between atoms: N_9  and  C_10
REMARK    5  A    between atoms: C_10  and  N_12
REMARK    6  A    between atoms: N_12  and  N_13
REMARK    7  A    between atoms: C_14  and  C_15
REMARK    8  A    between atoms: C_18  and  N_19
REMARK                            x       y       z     vdW  Elec       q    Type
REMARK                         _______ _______ _______ _____ _____    ______ ____
ROOT
ATOM      1  C   UNL     1       5.377   5.035  18.804  0.00  0.00    +0.000 C 
ATOM      2  S   UNL     1       6.954   5.518  18.989  0.00  0.00    +0.000 S 
ENDROOT
BRANCH   1   3
ATOM      3  N   UNL     1       4.495   4.308  19.584  0.00  0.00    +0.000 N 
ATOM      4  H   UNL     1       5.013   4.037  20.414  0.00  0.00    +0.000 HD
BRANCH   3  12
ATOM      5  C   UNL     1       3.836   1.577  18.055  0.00  0.00    +0.000 C 
ATOM      6  C   UNL     1       2.898   2.464  18.817  0.00  0.00    +0.000 A 
ATOM      7  C   UNL     1       1.565   1.978  18.845  0.00  0.00    +0.000 A 
ATOM      8  C   UNL     1       0.532   2.678  19.445  0.00  0.00    +0.000 A 
ATOM      9  C   UNL     1       0.812   3.893  20.037  0.00  0.00    +0.000 A 
ATOM     10  C   UNL     1       2.125   4.408  20.048  0.00  0.00    +0.000 A 
ATOM     11  C   UNL     1       2.296   5.720  20.780  0.00  0.00    +0.000 C 
ATOM     12  C   UNL     1       3.214   3.689  19.448  0.00  0.00    +0.000 A 
ENDBRANCH   3  12
ENDBRANCH   1   3
BRANCH   1  13
ATOM     13  N   UNL     1       4.754   5.519  17.648  0.00  0.00    +0.000 N 
ATOM     14  H   UNL     1       4.461   6.494  17.668  0.00  0.00    +0.000 HD
BRANCH  13  15
ATOM     15  N   UNL     1       4.923   4.887  16.455  0.00  0.00    +0.000 NA
ATOM     16  C   UNL     1       5.508   5.557  15.511  0.00  0.00    +0.000 C 
BRANCH  16  17
ATOM     17  C   UNL     1       5.954   4.802  14.369  0.00  0.00    +0.000 A 
ATOM     18  C   UNL     1       7.186   4.840  13.743  0.00  0.00    +0.000 A 
ATOM     19  C   UNL     1       7.088   4.035  12.591  0.00  0.00    +0.000 A 
ATOM     20  C   UNL     1       5.809   3.532  12.610  0.00  0.00    +0.000 A 
ATOM     21  O   UNL     1       5.100   3.979  13.690  0.00  0.00    +0.000 OA
BRANCH  20  22
ATOM     22  N   UNL     1       5.133   2.685  11.681  0.00  0.00    +0.000 N 
ATOM     23  O   UNL     1       5.687   1.613  11.408  0.00  0.00    +0.000 OA
ATOM     24  O   UNL     1       4.051   3.081  11.223  0.00  0.00    +0.000 OA
ENDBRANCH  20  22
ENDBRANCH  16  17
ENDBRANCH  13  15
ENDBRANCH   1  13
TORSDOF 6
ENDMDL
MODEL 2
REMARK VINA RESULT:      -7.2      1.668      2.369
REMARK  Name = 
REMARK  8 active torsions:
REMARK  status: ('A' for Active; 'I' for Inactive)
REMARK    1  A    between atoms: C_1  and  C_2
REMARK    2  A    between atoms: C_6  and  C_7
REMARK    3  A    between atoms: C_8  and  N_9
REMARK    4  A    between atoms: N_9  and  C_10
REMARK    5  A    between atoms: C_10  and  N_12
REMARK    6  A    between atoms: N_12  and  N_13
REMARK    7  A    between atoms: C_14  and  C_15
REMARK    8  A    between atoms: C_18  and  N_19
REMARK                            x       y       z     vdW  Elec       q    Type
REMARK                         _______ _______ _______ _____ _____    ______ ____
ROOT
ATOM      1  C   UNL     1       6.911   5.546  18.444  0.00  0.00    +0.000 C 
ATOM      2  S   UNL     1       7.454   7.067  18.065  0.00  0.00    +0.000 S 
ENDROOT
BRANCH   1   3
ATOM      3  N   UNL     1       5.779   5.056  19.071  0.00  0.00    +0.000 N 
ATOM      4  H   UNL     1       6.110   4.531  19.876  0.00  0.00    +0.000 HD
BRANCH   3  12
ATOM      5  C   UNL     1       3.862   7.204  17.678  0.00  0.00    +0.000 C 
ATOM      6  C   UNL     1       3.523   5.819  18.141  0.00  0.00    +0.000 A 
ATOM      7  C   UNL     1       2.172   5.461  17.894  0.00  0.00    +0.000 A 
ATOM      8  C   UNL     1       1.641   4.248  18.299  0.00  0.00    +0.000 A 
ATOM      9  C   UNL     1       2.456   3.357  18.966  0.00  0.00    +0.000 A 
ATOM     10  C   UNL     1       3.809   3.664  19.220  0.00  0.00    +0.000 A 
ATOM     11  C   UNL     1       4.598   2.573  19.909  0.00  0.00    +0.000 C 
ATOM     12  C   UNL     1       4.385   4.907  18.792  0.00  0.00    +0.000 A 
ENDBRANCH   3  12
ENDBRANCH   1   3
BRANCH   1  13
ATOM     13  N   UNL     1       7.719   4.506  17.969  0.00  0.00    +0.000 N 
ATOM     14  H   UNL     1       8.011   3.813  18.654  0.00  0.00    +0.000 HD
BRANCH  13  15
ATOM     15  N   UNL     1       7.745   4.201  16.643  0.00  0.00    +0.000 NA
ATOM     16  C   UNL     1       6.602   4.048  16.051  0.00  0.00    +0.000 C 
BRANCH  16  17
ATOM     17  C   UNL     1       6.621   4.029  14.611  0.00  0.00    +0.000 A 
ATOM     18  C   UNL     1       7.315   4.861  13.752  0.00  0.00    +0.000 A 
ATOM     19  C   UNL     1       6.895   4.544  12.444  0.00  0.00    +0.000 A 
ATOM     20  C   UNL     1       5.997   3.515  12.593  0.00  0.00    +0.000 A 
ATOM     21  O   UNL     1       5.819   3.177  13.905  0.00  0.00    +0.000 OA
BRANCH  20  22
ATOM     22  N   UNL     1       5.225   2.812  11.620  0.00  0.00    +0.000 N 
ATOM     23  O   UNL     1       5.647   1.700  11.279  0.00  0.00    +0.000 OA
ATOM     24  O   UNL     1       4.197   3.360  11.195  0.00  0.00    +0.000 OA
ENDBRANCH  20  22
ENDBRANCH  16  17
ENDBRANCH  13  15
ENDBRANCH   1  13
TORSDOF 6
ENDMDL
MODEL 3
REMARK VINA RESULT:      -7.2      3.074      4.675
REMARK  Name = 
REMARK  8 active torsions:
REMARK  status: ('A' for Active; 'I' for Inactive)
REMARK    1  A    between atoms: C_1  and  C_2
REMARK    2  A    between atoms: C_6  and  C_7
REMARK    3  A    between atoms: C_8  and  N_9
REMARK    4  A    between atoms: N_9  and  C_10
REMARK    5  A    between atoms: C_10  and  N_12
REMARK    6  A    between atoms: N_12  and  N_13
REMARK    7  A    between atoms: C_14  and  C_15
REMARK    8  A    between atoms: C_18  and  N_19
REMARK                            x       y       z     vdW  Elec       q    Type
REMARK                         _______ _______ _______ _____ _____    ______ ____
ROOT
ATOM      1  C   UNL     1       2.280   5.164  20.340  0.00  0.00    +0.000 C 
ATOM      2  S   UNL     1       0.917   4.223  20.248  0.00  0.00    +0.000 S 
ENDROOT
BRANCH   1   3
ATOM      3  N   UNL     1       2.508   6.528  20.383  0.00  0.00    +0.000 N 
ATOM      4  H   UNL     1       2.933   6.713  21.287  0.00  0.00    +0.000 HD
BRANCH   3  12
ATOM      5  C   UNL     1       3.360   7.268  17.390  0.00  0.00    +0.000 C 
ATOM      6  C   UNL     1       2.457   8.029  18.313  0.00  0.00    +0.000 A 
ATOM      7  C   UNL     1       1.930   9.212  17.733  0.00  0.00    +0.000 A 
ATOM      8  C   UNL     1       1.122  10.088  18.438  0.00  0.00    +0.000 A 
ATOM      9  C   UNL     1       0.821   9.799  19.753  0.00  0.00    +0.000 A 
ATOM     10  C   UNL     1       1.309   8.626  20.367  0.00  0.00    +0.000 A 
ATOM     11  C   UNL     1       0.854   8.408  21.792  0.00  0.00    +0.000 C 
ATOM     12  C   UNL     1       2.133   7.695  19.648  0.00  0.00    +0.000 A 
ENDBRANCH   3  12
ENDBRANCH   1   3
BRANCH   1  13
ATOM     13  N   UNL     1       3.472   4.445  20.483  0.00  0.00    +0.000 N 
ATOM     14  H   UNL     1       3.391   3.509  20.875  0.00  0.00    +0.000 HD
BRANCH  13  15
ATOM     15  N   UNL     1       4.575   4.782  19.760  0.00  0.00    +0.000 NA
ATOM     16  C   UNL     1       4.817   4.083  18.695  0.00  0.00    +0.000 C 
BRANCH  16  17
ATOM     17  C   UNL     1       5.789   4.623  17.780  0.00  0.00    +0.000 A 
ATOM     18  C   UNL     1       6.680   5.659  17.987  0.00  0.00    +0.000 A 
ATOM     19  C   UNL     1       7.312   5.913  16.754  0.00  0.00    +0.000 A 
ATOM     20  C   UNL     1       6.787   4.989  15.882  0.00  0.00    +0.000 A 
ATOM     21  O   UNL     1       5.862   4.185  16.487  0.00  0.00    +0.000 OA
BRANCH  20  22
ATOM     22  N   UNL     1       7.027   4.788  14.490  0.00  0.00    +0.000 N 
ATOM     23  O   UNL     1       6.415   3.856  13.954  0.00  0.00    +0.000 OA
ATOM     24  O   UNL     1       7.820   5.556  13.926  0.00  0.00    +0.000 OA
ENDBRANCH  20  22
ENDBRANCH  16  17
ENDBRANCH  13  15
ENDBRANCH   1  13
TORSDOF 6
ENDMDL
MODEL 4
REMARK VINA RESULT:      -7.2      0.732      2.063
REMARK  Name = 
REMARK  8 active torsions:
REMARK  status: ('A' for Active; 'I' for Inactive)
REMARK    1  A    between atoms: C_1  and  C_2
REMARK    2  A    between atoms: C_6  and  C_7
REMARK    3  A    between atoms: C_8  and  N_9
REMARK    4  A    between atoms: N_9  and  C_10
REMARK    5  A    between atoms: C_10  and  N_12
REMARK    6  A    between atoms: N_12  and  N_13
REMARK    7  A    between atoms: C_14  and  C_15
REMARK    8  A    between atoms: C_18  and  N_19
REMARK                            x       y       z     vdW  Elec       q    Type
REMARK                         _______ _______ _______ _____ _____    ______ ____
ROOT
ATOM      1  C   UNL     1       5.408   5.072  18.249  0.00  0.00    +0.000 C 
ATOM      2  S   UNL     1       6.709   5.447  19.208  0.00  0.00    +0.000 S 
ENDROOT
BRANCH   1   3
ATOM      3  N   UNL     1       4.390   4.139  18.329  0.00  0.00    +0.000 N 
ATOM      4  H   UNL     1       4.485   3.550  17.506  0.00  0.00    +0.000 HD
BRANCH   3  12
ATOM      5  C   UNL     1       2.614   6.374  19.771  0.00  0.00    +0.000 C 
ATOM      6  C   UNL     1       2.363   4.899  19.690  0.00  0.00    +0.000 A 
ATOM      7  C   UNL     1       1.168   4.496  20.341  0.00  0.00    +0.000 A 
ATOM      8  C   UNL     1       0.783   3.170  20.434  0.00  0.00    +0.000 A 
ATOM      9  C   UNL     1       1.594   2.204  19.873  0.00  0.00    +0.000 A 
ATOM     10  C   UNL     1       2.785   2.558  19.203  0.00  0.00    +0.000 A 
ATOM     11  C   UNL     1       3.545   1.404  18.589  0.00  0.00    +0.000 C 
ATOM     12  C   UNL     1       3.192   3.929  19.079  0.00  0.00    +0.000 A 
ENDBRANCH   3  12
ENDBRANCH   1   3
BRANCH   1  13
ATOM     13  N   UNL     1       5.234   5.921  17.150  0.00  0.00    +0.000 N 
ATOM     14  H   UNL     1       5.382   6.914  17.319  0.00  0.00    +0.000 HD
BRANCH  13  15
ATOM     15  N   UNL     1       5.299   5.433  15.882  0.00  0.00    +0.000 NA
ATOM     16  C   UNL     1       6.412   5.607  15.240  0.00  0.00    +0.000 C 
BRANCH  16  17
ATOM     17  C   UNL     1       6.586   4.838  14.035  0.00  0.00    +0.000 A 
ATOM     18  C   UNL     1       7.616   4.903  13.116  0.00  0.00    +0.000 A 
ATOM     19  C   UNL     1       7.263   4.065  12.040  0.00  0.00    +0.000 A 
ATOM     20  C   UNL     1       6.052   3.517  12.391  0.00  0.00    +0.000 A 
ATOM     21  O   UNL     1       5.622   3.968  13.608  0.00  0.00    +0.000 OA
BRANCH  20  22
ATOM     22  N   UNL     1       5.198   2.623  11.679  0.00  0.00    +0.000 N 
ATOM     23  O   UNL     1       4.080   3.054  11.373  0.00  0.00    +0.000 OA
ATOM     24  O   UNL     1       5.636   1.493  11.421  0.00  0.00    +0.000 OA
ENDBRANCH  20  22
ENDBRANCH  16  17
ENDBRANCH  13  15
ENDBRANCH   1  13
TORSDOF 6
ENDMDL
MODEL 5
REMARK VINA RESULT:      -7.2      1.357      2.150
REMARK  Name = 
REMARK  8 active torsions:
REMARK  status: ('A' for Active; 'I' for Inactive)
REMARK    1  A    between atoms: C_1  and  C_2
REMARK    2  A    between atoms: C_6  and  C_7
REMARK    3  A    between atoms: C_8  and  N_9
REMARK    4  A    between atoms: N_9  and  C_10
REMARK    5  A    between atoms: C_10  and  N_12
REMARK    6  A    between atoms: N_12  and  N_13
REMARK    7  A    between atoms: C_14  and  C_15
REMARK    8  A    between atoms: C_18  and  N_19
REMARK                            x       y       z     vdW  Elec       q    Type
REMARK                         _______ _______ _______ _____ _____    ______ ____
ROOT
ATOM      1  C   UNL     1       6.165   5.810  18.599  0.00  0.00    +0.000 C 
ATOM      2  S   UNL     1       7.775   5.783  19.000  0.00  0.00    +0.000 S 
ENDROOT
BRANCH   1   3
ATOM      3  N   UNL     1       5.014   5.338  19.204  0.00  0.00    +0.000 N 
ATOM      4  H   UNL     1       5.243   5.218  20.187  0.00  0.00    +0.000 HD
BRANCH   3  12
ATOM      5  C   UNL     1       2.564   6.936  17.909  0.00  0.00    +0.000 C 
ATOM      6  C   UNL     1       2.666   5.469  18.201  0.00  0.00    +0.000 A 
ATOM      7  C   UNL     1       1.507   4.741  17.825  0.00  0.00    +0.000 A 
ATOM      8  C   UNL     1       1.373   3.384  18.064  0.00  0.00    +0.000 A 
ATOM      9  C   UNL     1       2.405   2.717  18.691  0.00  0.00    +0.000 A 
ATOM     10  C   UNL     1       3.582   3.396  19.069  0.00  0.00    +0.000 A 
ATOM     11  C   UNL     1       4.651   2.530  19.695  0.00  0.00    +0.000 C 
ATOM     12  C   UNL     1       3.749   4.799  18.814  0.00  0.00    +0.000 A 
ENDBRANCH   3  12
ENDBRANCH   1   3
BRANCH   1  13
ATOM     13  N   UNL     1       5.870   6.528  17.435  0.00  0.00    +0.000 N 
ATOM     14  H   UNL     1       5.595   7.500  17.562  0.00  0.00    +0.000 HD
BRANCH  13  15
ATOM     15  N   UNL     1       6.333   6.107  16.226  0.00  0.00    +0.000 NA
ATOM     16  C   UNL     1       6.246   4.839  15.971  0.00  0.00    +0.000 C 
BRANCH  16  17
ATOM     17  C   UNL     1       6.447   4.444  14.601  0.00  0.00    +0.000 A 
ATOM     18  C   UNL     1       7.440   4.849  13.729  0.00  0.00    +0.000 A 
ATOM     19  C   UNL     1       7.127   4.305  12.467  0.00  0.00    +0.000 A 
ATOM     20  C   UNL     1       5.979   3.576  12.663  0.00  0.00    +0.000 A 
ATOM     21  O   UNL     1       5.549   3.638  13.959  0.00  0.00    +0.000 OA
BRANCH  20  22
ATOM     22  N   UNL     1       5.183   2.834  11.739  0.00  0.00    +0.000 N 
ATOM     23  O   UNL     1       4.129   3.366  11.368  0.00  0.00    +0.000 OA
ATOM     24  O   UNL     1       5.604   1.726  11.378  0.00  0.00    +0.000 OA
ENDBRANCH  20  22
ENDBRANCH  16  17
ENDBRANCH  13  15
ENDBRANCH   1  13
TORSDOF 6
ENDMDL
MODEL 6
REMARK VINA RESULT:      -7.2      1.335      1.401
REMARK  Name = 
REMARK  8 active torsions:
REMARK  status: ('A' for Active; 'I' for Inactive)
REMARK    1  A    between atoms: C_1  and  C_2
REMARK    2  A    between atoms: C_6  and  C_7
REMARK    3  A    between atoms: C_8  and  N_9
REMARK    4  A    between atoms: N_9  and  C_10
REMARK    5  A    between atoms: C_10  and  N_12
REMARK    6  A    between atoms: N_12  and  N_13
REMARK    7  A    between atoms: C_14  and  C_15
REMARK    8  A    between atoms: C_18  and  N_19
REMARK                            x       y       z     vdW  Elec       q    Type
REMARK                         _______ _______ _______ _____ _____    ______ ____
ROOT
ATOM      1  C   UNL     1       6.259   5.710  18.775  0.00  0.00    +0.000 C 
ATOM      2  S   UNL     1       7.797   5.553  19.378  0.00  0.00    +0.000 S 
ENDROOT
BRANCH   1   3
ATOM      3  N   UNL     1       4.997   5.462  19.282  0.00  0.00    +0.000 N 
ATOM      4  H   UNL     1       4.995   5.837  20.226  0.00  0.00    +0.000 HD
BRANCH   3  12
ATOM      5  C   UNL     1       4.554   2.351  19.880  0.00  0.00    +0.000 C 
ATOM      6  C   UNL     1       3.606   3.316  19.235  0.00  0.00    +0.000 A 
ATOM      7  C   UNL     1       2.365   2.728  18.875  0.00  0.00    +0.000 A 
ATOM      8  C   UNL     1       1.375   3.433  18.214  0.00  0.00    +0.000 A 
ATOM      9  C   UNL     1       1.604   4.755  17.892  0.00  0.00    +0.000 A 
ATOM     10  C   UNL     1       2.816   5.386  18.244  0.00  0.00    +0.000 A 
ATOM     11  C   UNL     1       2.907   6.851  17.880  0.00  0.00    +0.000 C 
ATOM     12  C   UNL     1       3.849   4.679  18.947  0.00  0.00    +0.000 A 
ENDBRANCH   3  12
ENDBRANCH   1   3
BRANCH   1  13
ATOM     13  N   UNL     1       6.191   6.292  17.504  0.00  0.00    +0.000 N 
ATOM     14  H   UNL     1       6.128   7.307  17.475  0.00  0.00    +0.000 HD
BRANCH  13  15
ATOM     15  N   UNL     1       6.618   5.609  16.407  0.00  0.00    +0.000 NA
ATOM     16  C   UNL     1       5.737   4.892  15.780  0.00  0.00    +0.000 C 
BRANCH  16  17
ATOM     17  C   UNL     1       6.106   4.423  14.470  0.00  0.00    +0.000 A 
ATOM     18  C   UNL     1       7.179   4.811  13.690  0.00  0.00    +0.000 A 
ATOM     19  C   UNL     1       7.029   4.182  12.438  0.00  0.00    +0.000 A 
ATOM     20  C   UNL     1       5.888   3.424  12.550  0.00  0.00    +0.000 A 
ATOM     21  O   UNL     1       5.311   3.548  13.783  0.00  0.00    +0.000 OA
BRANCH  20  22
ATOM     22  N   UNL     1       5.225   2.600  11.592  0.00  0.00    +0.000 N 
ATOM     23  O   UNL     1       5.799   1.549  11.278  0.00  0.00    +0.000 OA
ATOM     24  O   UNL     1       4.135   2.992  11.151  0.00  0.00    +0.000 OA
ENDBRANCH  20  22
ENDBRANCH  16  17
ENDBRANCH  13  15
ENDBRANCH   1  13
TORSDOF 6
ENDMDL
MODEL 7
REMARK VINA RESULT:      -7.0      1.395      2.427
REMARK  Name = 
REMARK  8 active torsions:
REMARK  status: ('A' for Active; 'I' for Inactive)
REMARK    1  A    between atoms: C_1  and  C_2
REMARK    2  A    between atoms: C_6  and  C_7
REMARK    3  A    between atoms: C_8  and  N_9
REMARK    4  A    between atoms: N_9  and  C_10
REMARK    5  A    between atoms: C_10  and  N_12
REMARK    6  A    between atoms: N_12  and  N_13
REMARK    7  A    between atoms: C_14  and  C_15
REMARK    8  A    between atoms: C_18  and  N_19
REMARK                            x       y       z     vdW  Elec       q    Type
REMARK                         _______ _______ _______ _____ _____    ______ ____
ROOT
ATOM      1  C   UNL     1       3.893   6.161  17.580  0.00  0.00    +0.000 C 
ATOM      2  S   UNL     1       3.588   7.792  17.601  0.00  0.00    +0.000 S 
ENDROOT
BRANCH   1   3
ATOM      3  N   UNL     1       3.121   5.034  17.792  0.00  0.00    +0.000 N 
ATOM      4  H   UNL     1       2.768   4.760  16.879  0.00  0.00    +0.000 HD
BRANCH   3  12
ATOM      5  C   UNL     1       1.893   6.313  20.455  0.00  0.00    +0.000 C 
ATOM      6  C   UNL     1       1.954   4.868  20.061  0.00  0.00    +0.000 A 
ATOM      7  C   UNL     1       1.367   4.000  21.019  0.00  0.00    +0.000 A 
ATOM      8  C   UNL     1       1.372   2.624  20.876  0.00  0.00    +0.000 A 
ATOM      9  C   UNL     1       1.970   2.076  19.760  0.00  0.00    +0.000 A 
ATOM     10  C   UNL     1       2.553   2.899  18.773  0.00  0.00    +0.000 A 
ATOM     11  C   UNL     1       3.121   2.167  17.578  0.00  0.00    +0.000 C 
ATOM     12  C   UNL     1       2.542   4.330  18.893  0.00  0.00    +0.000 A 
ENDBRANCH   3  12
ENDBRANCH   1   3
BRANCH   1  13
ATOM     13  N   UNL     1       5.194   5.820  17.189  0.00  0.00    +0.000 N 
ATOM     14  H   UNL     1       5.786   5.406  17.906  0.00  0.00    +0.000 HD
BRANCH  13  15
ATOM     15  N   UNL     1       5.497   5.644  15.874  0.00  0.00    +0.000 NA
ATOM     16  C   UNL     1       6.471   4.834  15.598  0.00  0.00    +0.000 C 
BRANCH  16  17
ATOM     17  C   UNL     1       6.591   4.419  14.224  0.00  0.00    +0.000 A 
ATOM     18  C   UNL     1       7.405   4.941  13.237  0.00  0.00    +0.000 A 
ATOM     19  C   UNL     1       7.055   4.300  12.032  0.00  0.00    +0.000 A 
ATOM     20  C   UNL     1       6.071   3.403  12.372  0.00  0.00    +0.000 A 
ATOM     21  O   UNL     1       5.776   3.451  13.706  0.00  0.00    +0.000 OA
BRANCH  20  22
ATOM     22  N   UNL     1       5.317   2.503  11.561  0.00  0.00    +0.000 N 
ATOM     23  O   UNL     1       4.185   2.877  11.229  0.00  0.00    +0.000 OA
ATOM     24  O   UNL     1       5.847   1.427  11.251  0.00  0.00    +0.000 OA
ENDBRANCH  20  22
ENDBRANCH  16  17
ENDBRANCH  13  15
ENDBRANCH   1  13
TORSDOF 6
ENDMDL
MODEL 8
REMARK VINA RESULT:      -7.0      1.730      2.762
REMARK  Name = 
REMARK  8 active torsions:
REMARK  status: ('A' for Active; 'I' for Inactive)
REMARK    1  A    between atoms: C_1  and  C_2
REMARK    2  A    between atoms: C_6  and  C_7
REMARK    3  A    between atoms: C_8  and  N_9
REMARK    4  A    between atoms: N_9  and  C_10
REMARK    5  A    between atoms: C_10  and  N_12
REMARK    6  A    between atoms: N_12  and  N_13
REMARK    7  A    between atoms: C_14  and  C_15
REMARK    8  A    between atoms: C_18  and  N_19
REMARK                            x       y       z     vdW  Elec       q    Type
REMARK                         _______ _______ _______ _____ _____    ______ ____
ROOT
ATOM      1  C   UNL     1       4.355   3.599  18.691  0.00  0.00    +0.000 C 
ATOM      2  S   UNL     1       4.488   2.281  19.691  0.00  0.00    +0.000 S 
ENDROOT
BRANCH   1   3
ATOM      3  N   UNL     1       3.358   4.525  18.446  0.00  0.00    +0.000 N 
ATOM      4  H   UNL     1       3.226   4.535  17.439  0.00  0.00    +0.000 HD
BRANCH   3  12
ATOM      5  C   UNL     1       1.427   4.170  20.972  0.00  0.00    +0.000 C 
ATOM      6  C   UNL     1       1.844   5.439  20.293  0.00  0.00    +0.000 A 
ATOM      7  C   UNL     1       1.295   6.603  20.894  0.00  0.00    +0.000 A 
ATOM      8  C   UNL     1       1.508   7.872  20.384  0.00  0.00    +0.000 A 
ATOM      9  C   UNL     1       2.281   8.009  19.250  0.00  0.00    +0.000 A 
ATOM     10  C   UNL     1       2.860   6.883  18.627  0.00  0.00    +0.000 A 
ATOM     11  C   UNL     1       3.728   7.187  17.427  0.00  0.00    +0.000 C 
ATOM     12  C   UNL     1       2.667   5.560  19.150  0.00  0.00    +0.000 A 
ENDBRANCH   3  12
ENDBRANCH   1   3
BRANCH   1  13
ATOM     13  N   UNL     1       5.522   3.909  17.984  0.00  0.00    +0.000 N 
ATOM     14  H   UNL     1       6.402   3.732  18.464  0.00  0.00    +0.000 HD
BRANCH  13  15
ATOM     15  N   UNL     1       5.501   4.016  16.627  0.00  0.00    +0.000 NA
ATOM     16  C   UNL     1       6.590   4.420  16.051  0.00  0.00    +0.000 C 
BRANCH  16  17
ATOM     17  C   UNL     1       6.666   4.243  14.624  0.00  0.00    +0.000 A 
ATOM     18  C   UNL     1       7.446   4.931  13.714  0.00  0.00    +0.000 A 
ATOM     19  C   UNL     1       7.059   4.499  12.429  0.00  0.00    +0.000 A 
ATOM     20  C   UNL     1       6.089   3.549  12.645  0.00  0.00    +0.000 A 
ATOM     21  O   UNL     1       5.838   3.369  13.977  0.00  0.00    +0.000 OA
BRANCH  20  22
ATOM     22  N   UNL     1       5.312   2.792  11.718  0.00  0.00    +0.000 N 
ATOM     23  O   UNL     1       5.812   1.736  11.312  0.00  0.00    +0.000 OA
ATOM     24  O   UNL     1       4.203   3.243  11.394  0.00  0.00    +0.000 OA
ENDBRANCH  20  22
ENDBRANCH  16  17
ENDBRANCH  13  15
ENDBRANCH   1  13
TORSDOF 6
ENDMDL
MODEL 9
REMARK VINA RESULT:      -7.0      1.500      2.164
REMARK  Name = 
REMARK  8 active torsions:
REMARK  status: ('A' for Active; 'I' for Inactive)
REMARK    1  A    between atoms: C_1  and  C_2
REMARK    2  A    between atoms: C_6  and  C_7
REMARK    3  A    between atoms: C_8  and  N_9
REMARK    4  A    between atoms: N_9  and  C_10
REMARK    5  A    between atoms: C_10  and  N_12
REMARK    6  A    between atoms: N_12  and  N_13
REMARK    7  A    between atoms: C_14  and  C_15
REMARK    8  A    between atoms: C_18  and  N_19
REMARK                            x       y       z     vdW  Elec       q    Type
REMARK                         _______ _______ _______ _____ _____    ______ ____
ROOT
ATOM      1  C   UNL     1       7.010   5.006  18.240  0.00  0.00    +0.000 C 
ATOM      2  S   UNL     1       7.755   6.115  19.224  0.00  0.00    +0.000 S 
ENDROOT
BRANCH   1   3
ATOM      3  N   UNL     1       5.693   4.651  18.013  0.00  0.00    +0.000 N 
ATOM      4  H   UNL     1       5.626   4.444  17.020  0.00  0.00    +0.000 HD
BRANCH   3  12
ATOM      5  C   UNL     1       4.470   2.429  19.963  0.00  0.00    +0.000 C 
ATOM      6  C   UNL     1       3.893   3.764  19.598  0.00  0.00    +0.000 A 
ATOM      7  C   UNL     1       2.653   4.033  20.235  0.00  0.00    +0.000 A 
ATOM      8  C   UNL     1       1.926   5.184  19.988  0.00  0.00    +0.000 A 
ATOM      9  C   UNL     1       2.425   6.102  19.088  0.00  0.00    +0.000 A 
ATOM     10  C   UNL     1       3.660   5.886  18.442  0.00  0.00    +0.000 A 
ATOM     11  C   UNL     1       4.111   7.001  17.525  0.00  0.00    +0.000 C 
ATOM     12  C   UNL     1       4.440   4.708  18.698  0.00  0.00    +0.000 A 
ENDBRANCH   3  12
ENDBRANCH   1   3
BRANCH   1  13
ATOM     13  N   UNL     1       7.877   4.315  17.385  0.00  0.00    +0.000 N 
ATOM     14  H   UNL     1       8.669   3.851  17.824  0.00  0.00    +0.000 HD
BRANCH  13  15
ATOM     15  N   UNL     1       7.464   3.926  16.148  0.00  0.00    +0.000 NA
ATOM     16  C   UNL     1       7.164   4.864  15.305  0.00  0.00    +0.000 C 
BRANCH  16  17
ATOM     17  C   UNL     1       7.024   4.468  13.927  0.00  0.00    +0.000 A 
ATOM     18  C   UNL     1       7.634   5.012  12.812  0.00  0.00    +0.000 A 
ATOM     19  C   UNL     1       7.067   4.384  11.685  0.00  0.00    +0.000 A 
ATOM     20  C   UNL     1       6.172   3.473  12.191  0.00  0.00    +0.000 A 
ATOM     21  O   UNL     1       6.134   3.499  13.558  0.00  0.00    +0.000 OA
BRANCH  20  22
ATOM     22  N   UNL     1       5.285   2.576  11.524  0.00  0.00    +0.000 N 
ATOM     23  O   UNL     1       4.145   2.998  11.293  0.00  0.00    +0.000 OA
ATOM     24  O   UNL     1       5.718   1.454  11.225  0.00  0.00    +0.000 OA
ENDBRANCH  20  22
ENDBRANCH  16  17
ENDBRANCH  13  15
ENDBRANCH   1  13
TORSDOF 6
ENDMDL
