MODEL 1
REMARK VINA RESULT:      -7.0      0.000      0.000
REMARK  Name = 
REMARK  20 active torsions:
REMARK  status: ('A' for Active; 'I' for Inactive)
REMARK    1  A    between atoms: C_1  and  O_2
REMARK    2  A    between atoms: O_2  and  C_3
REMARK    3  A    between atoms: C_7  and  C_8
REMARK    4  A    between atoms: C_9  and  C_10
REMARK    5  A    between atoms: C_10  and  C_12
REMARK    6  A    between atoms: C_13  and  O_14
REMARK    7  A    between atoms: C_15  and  C_16
REMARK    8  A    between atoms: C_16  and  C_17
REMARK    9  A    between atoms: C_18  and  C_19
REMARK   10  A    between atoms: C_18  and  C_20
REMARK   11  A    between atoms: C_21  and  O_22
REMARK   12  A    between atoms: O_22  and  C_23
REMARK   13  A    between atoms: C_24  and  C_25
REMARK   14  A    between atoms: C_25  and  C_26
REMARK   15  A    between atoms: C_27  and  C_28
REMARK   16  A    between atoms: C_27  and  C_29
REMARK   17  A    between atoms: C_30  and  O_31
REMARK   18  A    between atoms: O_31  and  C_32
REMARK   19  A    between atoms: C_33  and  O_34
REMARK   20  A    between atoms: O_34  and  C_35
REMARK                            x       y       z     vdW  Elec       q    Type
REMARK                         _______ _______ _______ _____ _____    ______ ____
ROOT
ATOM      1  C   UNL     1       0.338  10.114  21.328  0.00  0.00    +0.000 A 
ATOM      2  C   UNL     1      -0.439  10.717  22.323  0.00  0.00    +0.000 A 
ATOM      3  C   UNL     1      -1.431  11.658  21.999  0.00  0.00    +0.000 A 
ATOM      4  C   UNL     1      -1.603  12.089  20.654  0.00  0.00    +0.000 A 
ATOM      5  C   UNL     1      -0.899  11.436  19.614  0.00  0.00    +0.000 A 
ATOM      6  C   UNL     1       0.108  10.472  19.973  0.00  0.00    +0.000 A 
ENDROOT
BRANCH   1   7
ATOM      7  C   UNL     1       1.240   8.993  21.714  0.00  0.00    +0.000 C 
ATOM      8  O   UNL     1       2.154   9.157  22.513  0.00  0.00    +0.000 OA
BRANCH   7  10
ATOM      9  C   UNL     1       2.038   6.942  20.640  0.00  0.00    +0.000 C 
ATOM     10  C   UNL     1       0.997   7.666  21.075  0.00  0.00    +0.000 C 
BRANCH   9  15
ATOM     11  C   UNL     1       1.843   3.895  18.357  0.00  0.00    +0.000 A 
ATOM     12  C   UNL     1       1.416   2.955  19.307  0.00  0.00    +0.000 A 
ATOM     13  C   UNL     1       1.158   3.328  20.624  0.00  0.00    +0.000 A 
ATOM     14  C   UNL     1       1.373   4.640  21.017  0.00  0.00    +0.000 A 
ATOM     15  C   UNL     1       1.861   5.586  20.101  0.00  0.00    +0.000 A 
ATOM     16  C   UNL     1       2.126   5.219  18.762  0.00  0.00    +0.000 A 
BRANCH  11  18
ATOM     17  C   UNL     1       3.077   2.608  16.807  0.00  0.00    +0.000 C 
ATOM     18  O   UNL     1       1.993   3.508  17.050  0.00  0.00    +0.000 OA
ENDBRANCH  11  18
BRANCH  16  19
ATOM     19  O   UNL     1       2.614   6.235  17.974  0.00  0.00    +0.000 OA
ATOM     20  C   UNL     1       3.988   6.258  17.611  0.00  0.00    +0.000 C 
ENDBRANCH  16  19
ENDBRANCH   9  15
ENDBRANCH   7  10
ENDBRANCH   1   7
BRANCH   2  21
ATOM     21  O   UNL     1      -0.309  10.420  23.659  0.00  0.00    +0.000 OA
ATOM     22  H   UNL     1      -0.860   9.656  23.902  0.00  0.00    +0.000 HD
ENDBRANCH   2  21
BRANCH   4  23
ATOM     23  O   UNL     1      -2.481  13.133  20.594  0.00  0.00    +0.000 OA
ATOM     24  C   UNL     1      -2.143  14.494  20.437  0.00  0.00    +0.000 C 
ENDBRANCH   4  23
BRANCH   6  25
ATOM     25  O   UNL     1       0.708   9.815  18.923  0.00  0.00    +0.000 OA
ATOM     26  C   UNL     1       1.919  10.368  18.410  0.00  0.00    +0.000 C 
ENDBRANCH   6  25
BRANCH   3  27
ATOM     27  C   UNL     1      -2.407  12.103  23.090  0.00  0.00    +0.000 C 
BRANCH  27  28
ATOM     28  C   UNL     1      -1.960  13.352  23.830  0.00  0.00    +0.000 C 
ATOM     29  C   UNL     1      -2.699  14.403  24.242  0.00  0.00    +0.000 C 
ATOM     30  C   UNL     1      -4.176  14.567  24.013  0.00  0.00    +0.000 C 
ATOM     31  C   UNL     1      -2.069  15.531  25.020  0.00  0.00    +0.000 C 
ENDBRANCH  27  28
ENDBRANCH   3  27
BRANCH   5  32
ATOM     32  C   UNL     1      -1.254  11.582  18.134  0.00  0.00    +0.000 C 
BRANCH  32  33
ATOM     33  C   UNL     1      -2.716  11.738  17.792  0.00  0.00    +0.000 C 
ATOM     34  C   UNL     1      -3.394  10.986  16.898  0.00  0.00    +0.000 C 
ATOM     35  C   UNL     1      -2.784   9.898  16.047  0.00  0.00    +0.000 C 
ATOM     36  C   UNL     1      -4.873  11.173  16.669  0.00  0.00    +0.000 C 
ENDBRANCH  32  33
ENDBRANCH   5  32
TORSDOF 12
ENDMDL
MODEL 2
REMARK VINA RESULT:      -6.9      1.605      2.222
REMARK  Name = 
REMARK  20 active torsions:
REMARK  status: ('A' for Active; 'I' for Inactive)
REMARK    1  A    between atoms: C_1  and  O_2
REMARK    2  A    between atoms: O_2  and  C_3
REMARK    3  A    between atoms: C_7  and  C_8
REMARK    4  A    between atoms: C_9  and  C_10
REMARK    5  A    between atoms: C_10  and  C_12
REMARK    6  A    between atoms: C_13  and  O_14
REMARK    7  A    between atoms: C_15  and  C_16
REMARK    8  A    between atoms: C_16  and  C_17
REMARK    9  A    between atoms: C_18  and  C_19
REMARK   10  A    between atoms: C_18  and  C_20
REMARK   11  A    between atoms: C_21  and  O_22
REMARK   12  A    between atoms: O_22  and  C_23
REMARK   13  A    between atoms: C_24  and  C_25
REMARK   14  A    between atoms: C_25  and  C_26
REMARK   15  A    between atoms: C_27  and  C_28
REMARK   16  A    between atoms: C_27  and  C_29
REMARK   17  A    between atoms: C_30  and  O_31
REMARK   18  A    between atoms: O_31  and  C_32
REMARK   19  A    between atoms: C_33  and  O_34
REMARK   20  A    between atoms: O_34  and  C_35
REMARK                            x       y       z     vdW  Elec       q    Type
REMARK                         _______ _______ _______ _____ _____    ______ ____
ROOT
ATOM      1  C   UNL     1      -0.267  10.115  21.179  0.00  0.00    +0.000 A 
ATOM      2  C   UNL     1      -0.489  11.010  22.231  0.00  0.00    +0.000 A 
ATOM      3  C   UNL     1      -0.918  12.325  21.987  0.00  0.00    +0.000 A 
ATOM      4  C   UNL     1      -1.047  12.805  20.654  0.00  0.00    +0.000 A 
ATOM      5  C   UNL     1      -0.918  11.904  19.570  0.00  0.00    +0.000 A 
ATOM      6  C   UNL     1      -0.482  10.561  19.848  0.00  0.00    +0.000 A 
ENDROOT
BRANCH   1   7
ATOM      7  C   UNL     1       0.006   8.687  21.507  0.00  0.00    +0.000 C 
ATOM      8  O   UNL     1      -0.684   8.076  22.314  0.00  0.00    +0.000 OA
BRANCH   7  10
ATOM      9  C   UNL     1       1.220   6.701  20.747  0.00  0.00    +0.000 C 
ATOM     10  C   UNL     1       1.166   8.037  20.827  0.00  0.00    +0.000 C 
BRANCH   9  15
ATOM     11  C   UNL     1       3.851   4.217  19.547  0.00  0.00    +0.000 A 
ATOM     12  C   UNL     1       4.329   4.942  18.444  0.00  0.00    +0.000 A 
ATOM     13  C   UNL     1       3.836   6.211  18.149  0.00  0.00    +0.000 A 
ATOM     14  C   UNL     1       2.823   6.749  18.927  0.00  0.00    +0.000 A 
ATOM     15  C   UNL     1       2.283   6.017  19.996  0.00  0.00    +0.000 A 
ATOM     16  C   UNL     1       2.775   4.728  20.306  0.00  0.00    +0.000 A 
BRANCH  11  18
ATOM     17  C   UNL     1       3.986   1.907  19.070  0.00  0.00    +0.000 C 
ATOM     18  O   UNL     1       4.429   3.014  19.860  0.00  0.00    +0.000 OA
ENDBRANCH  11  18
BRANCH  16  19
ATOM     19  O   UNL     1       2.150   4.115  21.366  0.00  0.00    +0.000 OA
ATOM     20  C   UNL     1       1.272   3.020  21.139  0.00  0.00    +0.000 C 
ENDBRANCH  16  19
ENDBRANCH   9  15
ENDBRANCH   7  10
ENDBRANCH   1   7
BRANCH   2  21
ATOM     21  O   UNL     1      -0.331  10.666  23.553  0.00  0.00    +0.000 OA
ATOM     22  H   UNL     1      -0.876   9.892  23.781  0.00  0.00    +0.000 HD
ENDBRANCH   2  21
BRANCH   4  23
ATOM     23  O   UNL     1      -1.290  14.148  20.651  0.00  0.00    +0.000 OA
ATOM     24  C   UNL     1      -0.415  15.149  20.174  0.00  0.00    +0.000 C 
ENDBRANCH   4  23
BRANCH   6  25
ATOM     25  O   UNL     1      -0.446   9.709  18.768  0.00  0.00    +0.000 OA
ATOM     26  C   UNL     1       0.745   9.696  17.982  0.00  0.00    +0.000 C 
ENDBRANCH   6  25
BRANCH   3  27
ATOM     27  C   UNL     1      -1.375  13.181  23.171  0.00  0.00    +0.000 C 
BRANCH  27  28
ATOM     28  C   UNL     1      -2.763  13.770  22.993  0.00  0.00    +0.000 C 
ATOM     29  C   UNL     1      -3.912  13.437  23.617  0.00  0.00    +0.000 C 
ATOM     30  C   UNL     1      -4.058  12.344  24.639  0.00  0.00    +0.000 C 
ATOM     31  C   UNL     1      -5.189  14.190  23.336  0.00  0.00    +0.000 C 
ENDBRANCH  27  28
ENDBRANCH   3  27
BRANCH   5  32
ATOM     32  C   UNL     1      -1.364  12.231  18.145  0.00  0.00    +0.000 C 
BRANCH  32  33
ATOM     33  C   UNL     1      -2.822  12.019  17.817  0.00  0.00    +0.000 C 
ATOM     34  C   UNL     1      -3.300  11.139  16.911  0.00  0.00    +0.000 C 
ATOM     35  C   UNL     1      -2.445  10.258  16.031  0.00  0.00    +0.000 C 
ATOM     36  C   UNL     1      -4.781  10.950  16.697  0.00  0.00    +0.000 C 
ENDBRANCH  32  33
ENDBRANCH   5  32
TORSDOF 12
ENDMDL
MODEL 3
REMARK VINA RESULT:      -6.9      1.540      4.751
REMARK  Name = 
REMARK  20 active torsions:
REMARK  status: ('A' for Active; 'I' for Inactive)
REMARK    1  A    between atoms: C_1  and  O_2
REMARK    2  A    between atoms: O_2  and  C_3
REMARK    3  A    between atoms: C_7  and  C_8
REMARK    4  A    between atoms: C_9  and  C_10
REMARK    5  A    between atoms: C_10  and  C_12
REMARK    6  A    between atoms: C_13  and  O_14
REMARK    7  A    between atoms: C_15  and  C_16
REMARK    8  A    between atoms: C_16  and  C_17
REMARK    9  A    between atoms: C_18  and  C_19
REMARK   10  A    between atoms: C_18  and  C_20
REMARK   11  A    between atoms: C_21  and  O_22
REMARK   12  A    between atoms: O_22  and  C_23
REMARK   13  A    between atoms: C_24  and  C_25
REMARK   14  A    between atoms: C_25  and  C_26
REMARK   15  A    between atoms: C_27  and  C_28
REMARK   16  A    between atoms: C_27  and  C_29
REMARK   17  A    between atoms: C_30  and  O_31
REMARK   18  A    between atoms: O_31  and  C_32
REMARK   19  A    between atoms: C_33  and  O_34
REMARK   20  A    between atoms: O_34  and  C_35
REMARK                            x       y       z     vdW  Elec       q    Type
REMARK                         _______ _______ _______ _____ _____    ______ ____
ROOT
ATOM      1  C   UNL     1       0.517   9.884  19.683  0.00  0.00    +0.000 A 
ATOM      2  C   UNL     1      -0.228  10.383  18.609  0.00  0.00    +0.000 A 
ATOM      3  C   UNL     1      -1.232  11.345  18.806  0.00  0.00    +0.000 A 
ATOM      4  C   UNL     1      -1.578  11.766  20.120  0.00  0.00    +0.000 A 
ATOM      5  C   UNL     1      -0.788  11.351  21.219  0.00  0.00    +0.000 A 
ATOM      6  C   UNL     1       0.238  10.369  20.988  0.00  0.00    +0.000 A 
ENDROOT
BRANCH   1   7
ATOM      7  C   UNL     1       1.687   9.010  19.390  0.00  0.00    +0.000 C 
ATOM      8  O   UNL     1       2.638   9.416  18.734  0.00  0.00    +0.000 OA
BRANCH   7  10
ATOM      9  C   UNL     1       2.275   6.637  19.243  0.00  0.00    +0.000 C 
ATOM     10  C   UNL     1       1.645   7.612  19.913  0.00  0.00    +0.000 C 
BRANCH   9  15
ATOM     11  C   UNL     1       3.306   3.042  19.981  0.00  0.00    +0.000 A 
ATOM     12  C   UNL     1       2.270   2.711  20.869  0.00  0.00    +0.000 A 
ATOM     13  C   UNL     1       1.257   3.619  21.164  0.00  0.00    +0.000 A 
ATOM     14  C   UNL     1       1.295   4.890  20.611  0.00  0.00    +0.000 A 
ATOM     15  C   UNL     1       2.355   5.267  19.771  0.00  0.00    +0.000 A 
ATOM     16  C   UNL     1       3.389   4.353  19.463  0.00  0.00    +0.000 A 
BRANCH  11  18
ATOM     17  C   UNL     1       3.871   1.269  18.525  0.00  0.00    +0.000 C 
ATOM     18  O   UNL     1       4.230   2.087  19.642  0.00  0.00    +0.000 OA
ENDBRANCH  11  18
BRANCH  16  19
ATOM     19  O   UNL     1       4.372   4.854  18.642  0.00  0.00    +0.000 OA
ATOM     20  C   UNL     1       5.656   5.157  19.172  0.00  0.00    +0.000 C 
ENDBRANCH  16  19
ENDBRANCH   9  15
ENDBRANCH   7  10
ENDBRANCH   1   7
BRANCH   2  21
ATOM     21  O   UNL     1      -0.017   9.994  17.306  0.00  0.00    +0.000 OA
ATOM     22  H   UNL     1      -0.133  10.743  16.695  0.00  0.00    +0.000 HD
ENDBRANCH   2  21
BRANCH   4  23
ATOM     23  O   UNL     1      -2.693  12.553  20.092  0.00  0.00    +0.000 OA
ATOM     24  C   UNL     1      -4.027  12.110  20.227  0.00  0.00    +0.000 C 
ENDBRANCH   4  23
BRANCH   6  25
ATOM     25  O   UNL     1       1.024  10.059  22.075  0.00  0.00    +0.000 OA
ATOM     26  C   UNL     1       0.459   9.207  23.070  0.00  0.00    +0.000 C 
ENDBRANCH   6  25
BRANCH   3  27
ATOM     27  C   UNL     1      -1.846  12.029  17.582  0.00  0.00    +0.000 C 
BRANCH  27  28
ATOM     28  C   UNL     1      -2.369  11.054  16.542  0.00  0.00    +0.000 C 
ATOM     29  C   UNL     1      -3.639  10.853  16.132  0.00  0.00    +0.000 C 
ATOM     30  C   UNL     1      -4.848  11.568  16.671  0.00  0.00    +0.000 C 
ATOM     31  C   UNL     1      -3.948   9.866  15.035  0.00  0.00    +0.000 C 
ENDBRANCH  27  28
ENDBRANCH   3  27
BRANCH   5  32
ATOM     32  C   UNL     1      -0.858  12.002  22.601  0.00  0.00    +0.000 C 
BRANCH  32  33
ATOM     33  C   UNL     1      -2.122  11.784  23.397  0.00  0.00    +0.000 C 
ATOM     34  C   UNL     1      -3.006  12.746  23.738  0.00  0.00    +0.000 C 
ATOM     35  C   UNL     1      -2.846  14.214  23.425  0.00  0.00    +0.000 C 
ATOM     36  C   UNL     1      -4.278  12.422  24.482  0.00  0.00    +0.000 C 
ENDBRANCH  32  33
ENDBRANCH   5  32
TORSDOF 12
ENDMDL
MODEL 4
REMARK VINA RESULT:      -6.8      2.339      3.648
REMARK  Name = 
REMARK  20 active torsions:
REMARK  status: ('A' for Active; 'I' for Inactive)
REMARK    1  A    between atoms: C_1  and  O_2
REMARK    2  A    between atoms: O_2  and  C_3
REMARK    3  A    between atoms: C_7  and  C_8
REMARK    4  A    between atoms: C_9  and  C_10
REMARK    5  A    between atoms: C_10  and  C_12
REMARK    6  A    between atoms: C_13  and  O_14
REMARK    7  A    between atoms: C_15  and  C_16
REMARK    8  A    between atoms: C_16  and  C_17
REMARK    9  A    between atoms: C_18  and  C_19
REMARK   10  A    between atoms: C_18  and  C_20
REMARK   11  A    between atoms: C_21  and  O_22
REMARK   12  A    between atoms: O_22  and  C_23
REMARK   13  A    between atoms: C_24  and  C_25
REMARK   14  A    between atoms: C_25  and  C_26
REMARK   15  A    between atoms: C_27  and  C_28
REMARK   16  A    between atoms: C_27  and  C_29
REMARK   17  A    between atoms: C_30  and  O_31
REMARK   18  A    between atoms: O_31  and  C_32
REMARK   19  A    between atoms: C_33  and  O_34
REMARK   20  A    between atoms: O_34  and  C_35
REMARK                            x       y       z     vdW  Elec       q    Type
REMARK                         _______ _______ _______ _____ _____    ______ ____
ROOT
ATOM      1  C   UNL     1       0.250  10.186  21.349  0.00  0.00    +0.000 A 
ATOM      2  C   UNL     1      -0.466  10.860  22.343  0.00  0.00    +0.000 A 
ATOM      3  C   UNL     1      -0.646  12.253  22.291  0.00  0.00    +0.000 A 
ATOM      4  C   UNL     1      -0.021  13.022  21.270  0.00  0.00    +0.000 A 
ATOM      5  C   UNL     1       0.634  12.365  20.201  0.00  0.00    +0.000 A 
ATOM      6  C   UNL     1       0.800  10.937  20.277  0.00  0.00    +0.000 A 
ENDROOT
BRANCH   1   7
ATOM      7  C   UNL     1       0.248   8.696  21.360  0.00  0.00    +0.000 C 
ATOM      8  O   UNL     1      -0.693   8.063  21.821  0.00  0.00    +0.000 OA
BRANCH   7  10
ATOM      9  C   UNL     1       1.350   6.730  20.399  0.00  0.00    +0.000 C 
ATOM     10  C   UNL     1       1.449   8.005  20.802  0.00  0.00    +0.000 C 
BRANCH   9  15
ATOM     11  C   UNL     1       4.102   4.261  19.473  0.00  0.00    +0.000 A 
ATOM     12  C   UNL     1       4.630   4.948  18.369  0.00  0.00    +0.000 A 
ATOM     13  C   UNL     1       4.128   6.190  17.987  0.00  0.00    +0.000 A 
ATOM     14  C   UNL     1       3.058   6.737  18.677  0.00  0.00    +0.000 A 
ATOM     15  C   UNL     1       2.471   6.040  19.745  0.00  0.00    +0.000 A 
ATOM     16  C   UNL     1       2.971   4.779  20.143  0.00  0.00    +0.000 A 
BRANCH  11  18
ATOM     17  C   UNL     1       4.164   1.910  19.257  0.00  0.00    +0.000 C 
ATOM     18  O   UNL     1       4.686   3.088  19.876  0.00  0.00    +0.000 OA
ENDBRANCH  11  18
BRANCH  16  19
ATOM     19  O   UNL     1       2.297   4.199  21.191  0.00  0.00    +0.000 OA
ATOM     20  C   UNL     1       1.280   3.238  20.940  0.00  0.00    +0.000 C 
ENDBRANCH  16  19
ENDBRANCH   9  15
ENDBRANCH   7  10
ENDBRANCH   1   7
BRANCH   2  21
ATOM     21  O   UNL     1      -1.056  10.220  23.408  0.00  0.00    +0.000 OA
ATOM     22  H   UNL     1      -1.650   9.511  23.104  0.00  0.00    +0.000 HD
ENDBRANCH   2  21
BRANCH   4  23
ATOM     23  O   UNL     1      -0.171  14.356  21.516  0.00  0.00    +0.000 OA
ATOM     24  C   UNL     1      -0.433  15.354  20.553  0.00  0.00    +0.000 C 
ENDBRANCH   4  23
BRANCH   6  25
ATOM     25  O   UNL     1       1.376  10.343  19.177  0.00  0.00    +0.000 OA
ATOM     26  C   UNL     1       0.505   9.928  18.125  0.00  0.00    +0.000 C 
ENDBRANCH   6  25
BRANCH   3  27
ATOM     27  C   UNL     1      -1.632  12.904  23.263  0.00  0.00    +0.000 C 
BRANCH  27  28
ATOM     28  C   UNL     1      -3.050  12.983  22.726  0.00  0.00    +0.000 C 
ATOM     29  C   UNL     1      -4.217  12.819  23.385  0.00  0.00    +0.000 C 
ATOM     30  C   UNL     1      -4.348  12.480  24.844  0.00  0.00    +0.000 C 
ATOM     31  C   UNL     1      -5.535  12.996  22.674  0.00  0.00    +0.000 C 
ENDBRANCH  27  28
ENDBRANCH   3  27
BRANCH   5  32
ATOM     32  C   UNL     1       1.035  13.064  18.901  0.00  0.00    +0.000 C 
BRANCH  32  33
ATOM     33  C   UNL     1       2.510  13.276  18.663  0.00  0.00    +0.000 C 
ATOM     34  C   UNL     1       3.095  14.462  18.394  0.00  0.00    +0.000 C 
ATOM     35  C   UNL     1       2.358  15.769  18.228  0.00  0.00    +0.000 C 
ATOM     36  C   UNL     1       4.590  14.588  18.234  0.00  0.00    +0.000 C 
ENDBRANCH  32  33
ENDBRANCH   5  32
TORSDOF 12
ENDMDL
MODEL 5
REMARK VINA RESULT:      -6.8      1.705      2.633
REMARK  Name = 
REMARK  20 active torsions:
REMARK  status: ('A' for Active; 'I' for Inactive)
REMARK    1  A    between atoms: C_1  and  O_2
REMARK    2  A    between atoms: O_2  and  C_3
REMARK    3  A    between atoms: C_7  and  C_8
REMARK    4  A    between atoms: C_9  and  C_10
REMARK    5  A    between atoms: C_10  and  C_12
REMARK    6  A    between atoms: C_13  and  O_14
REMARK    7  A    between atoms: C_15  and  C_16
REMARK    8  A    between atoms: C_16  and  C_17
REMARK    9  A    between atoms: C_18  and  C_19
REMARK   10  A    between atoms: C_18  and  C_20
REMARK   11  A    between atoms: C_21  and  O_22
REMARK   12  A    between atoms: O_22  and  C_23
REMARK   13  A    between atoms: C_24  and  C_25
REMARK   14  A    between atoms: C_25  and  C_26
REMARK   15  A    between atoms: C_27  and  C_28
REMARK   16  A    between atoms: C_27  and  C_29
REMARK   17  A    between atoms: C_30  and  O_31
REMARK   18  A    between atoms: O_31  and  C_32
REMARK   19  A    between atoms: C_33  and  O_34
REMARK   20  A    between atoms: O_34  and  C_35
REMARK                            x       y       z     vdW  Elec       q    Type
REMARK                         _______ _______ _______ _____ _____    ______ ____
ROOT
ATOM      1  C   UNL     1      -0.345  10.046  21.109  0.00  0.00    +0.000 A 
ATOM      2  C   UNL     1      -0.604  10.812  22.250  0.00  0.00    +0.000 A 
ATOM      3  C   UNL     1      -1.274  12.044  22.160  0.00  0.00    +0.000 A 
ATOM      4  C   UNL     1      -1.621  12.585  20.890  0.00  0.00    +0.000 A 
ATOM      5  C   UNL     1      -1.455  11.797  19.726  0.00  0.00    +0.000 A 
ATOM      6  C   UNL     1      -0.771  10.537  19.846  0.00  0.00    +0.000 A 
ENDROOT
BRANCH   1   7
ATOM      7  C   UNL     1       0.199   8.670  21.287  0.00  0.00    +0.000 C 
ATOM      8  O   UNL     1      -0.331   7.868  22.046  0.00  0.00    +0.000 OA
BRANCH   7  10
ATOM      9  C   UNL     1       1.613   7.047  20.118  0.00  0.00    +0.000 C 
ATOM     10  C   UNL     1       1.427   8.313  20.516  0.00  0.00    +0.000 C 
BRANCH   9  15
ATOM     11  C   UNL     1       4.689   5.341  18.648  0.00  0.00    +0.000 A 
ATOM     12  C   UNL     1       4.863   6.166  17.526  0.00  0.00    +0.000 A 
ATOM     13  C   UNL     1       4.032   7.261  17.301  0.00  0.00    +0.000 A 
ATOM     14  C   UNL     1       2.984   7.514  18.172  0.00  0.00    +0.000 A 
ATOM     15  C   UNL     1       2.749   6.666  19.266  0.00  0.00    +0.000 A 
ATOM     16  C   UNL     1       3.586   5.552  19.506  0.00  0.00    +0.000 A 
BRANCH  11  18
ATOM     17  C   UNL     1       6.936   4.625  18.517  0.00  0.00    +0.000 C 
ATOM     18  O   UNL     1       5.586   4.332  18.886  0.00  0.00    +0.000 OA
ENDBRANCH  11  18
BRANCH  16  19
ATOM     19  O   UNL     1       3.237   4.797  20.600  0.00  0.00    +0.000 OA
ATOM     20  C   UNL     1       2.624   3.526  20.423  0.00  0.00    +0.000 C 
ENDBRANCH  16  19
ENDBRANCH   9  15
ENDBRANCH   7  10
ENDBRANCH   1   7
BRANCH   2  21
ATOM     21  O   UNL     1      -0.253  10.412  23.518  0.00  0.00    +0.000 OA
ATOM     22  H   UNL     1       0.127   9.516  23.508  0.00  0.00    +0.000 HD
ENDBRANCH   2  21
BRANCH   4  23
ATOM     23  O   UNL     1      -2.087  13.861  21.025  0.00  0.00    +0.000 OA
ATOM     24  C   UNL     1      -1.442  15.032  20.572  0.00  0.00    +0.000 C 
ENDBRANCH   4  23
BRANCH   6  25
ATOM     25  O   UNL     1      -0.704   9.781  18.698  0.00  0.00    +0.000 OA
ATOM     26  C   UNL     1       0.422   9.981  17.846  0.00  0.00    +0.000 C 
ENDBRANCH   6  25
BRANCH   3  27
ATOM     27  C   UNL     1      -1.742  12.722  23.449  0.00  0.00    +0.000 C 
BRANCH  27  28
ATOM     28  C   UNL     1      -3.178  12.394  23.819  0.00  0.00    +0.000 C 
ATOM     29  C   UNL     1      -4.247  13.217  23.879  0.00  0.00    +0.000 C 
ATOM     30  C   UNL     1      -4.219  14.696  23.607  0.00  0.00    +0.000 C 
ATOM     31  C   UNL     1      -5.615  12.680  24.216  0.00  0.00    +0.000 C 
ENDBRANCH  27  28
ENDBRANCH   3  27
BRANCH   5  32
ATOM     32  C   UNL     1      -2.097  12.137  18.380  0.00  0.00    +0.000 C 
BRANCH  32  33
ATOM     33  C   UNL     1      -3.368  11.406  18.023  0.00  0.00    +0.000 C 
ATOM     34  C   UNL     1      -4.589  11.665  18.537  0.00  0.00    +0.000 C 
ATOM     35  C   UNL     1      -4.875  12.697  19.602  0.00  0.00    +0.000 C 
ATOM     36  C   UNL     1      -5.817  10.924  18.071  0.00  0.00    +0.000 C 
ENDBRANCH  32  33
ENDBRANCH   5  32
TORSDOF 12
ENDMDL
MODEL 6
REMARK VINA RESULT:      -6.7      2.080      9.404
REMARK  Name = 
REMARK  20 active torsions:
REMARK  status: ('A' for Active; 'I' for Inactive)
REMARK    1  A    between atoms: C_1  and  O_2
REMARK    2  A    between atoms: O_2  and  C_3
REMARK    3  A    between atoms: C_7  and  C_8
REMARK    4  A    between atoms: C_9  and  C_10
REMARK    5  A    between atoms: C_10  and  C_12
REMARK    6  A    between atoms: C_13  and  O_14
REMARK    7  A    between atoms: C_15  and  C_16
REMARK    8  A    between atoms: C_16  and  C_17
REMARK    9  A    between atoms: C_18  and  C_19
REMARK   10  A    between atoms: C_18  and  C_20
REMARK   11  A    between atoms: C_21  and  O_22
REMARK   12  A    between atoms: O_22  and  C_23
REMARK   13  A    between atoms: C_24  and  C_25
REMARK   14  A    between atoms: C_25  and  C_26
REMARK   15  A    between atoms: C_27  and  C_28
REMARK   16  A    between atoms: C_27  and  C_29
REMARK   17  A    between atoms: C_30  and  O_31
REMARK   18  A    between atoms: O_31  and  C_32
REMARK   19  A    between atoms: C_33  and  O_34
REMARK   20  A    between atoms: O_34  and  C_35
REMARK                            x       y       z     vdW  Elec       q    Type
REMARK                         _______ _______ _______ _____ _____    ______ ____
ROOT
ATOM      1  C   UNL     1       1.528   9.180  19.335  0.00  0.00    +0.000 A 
ATOM      2  C   UNL     1       2.342   8.937  18.223  0.00  0.00    +0.000 A 
ATOM      3  C   UNL     1       2.940   7.682  18.021  0.00  0.00    +0.000 A 
ATOM      4  C   UNL     1       2.805   6.654  18.996  0.00  0.00    +0.000 A 
ATOM      5  C   UNL     1       1.919   6.835  20.085  0.00  0.00    +0.000 A 
ATOM      6  C   UNL     1       1.315   8.128  20.266  0.00  0.00    +0.000 A 
ENDROOT
BRANCH   1   7
ATOM      7  C   UNL     1       0.776  10.464  19.398  0.00  0.00    +0.000 C 
ATOM      8  O   UNL     1       1.292  11.484  19.838  0.00  0.00    +0.000 OA
BRANCH   7  10
ATOM      9  C   UNL     1      -1.455  11.464  19.251  0.00  0.00    +0.000 C 
ATOM     10  C   UNL     1      -0.638  10.454  18.919  0.00  0.00    +0.000 C 
BRANCH   9  15
ATOM     11  C   UNL     1      -5.146  12.262  18.731  0.00  0.00    +0.000 A 
ATOM     12  C   UNL     1      -5.344  11.545  17.541  0.00  0.00    +0.000 A 
ATOM     13  C   UNL     1      -4.317  10.795  16.973  0.00  0.00    +0.000 A 
ATOM     14  C   UNL     1      -3.064  10.794  17.564  0.00  0.00    +0.000 A 
ATOM     15  C   UNL     1      -2.822  11.555  18.719  0.00  0.00    +0.000 A 
ATOM     16  C   UNL     1      -3.856  12.320  19.305  0.00  0.00    +0.000 A 
BRANCH  11  18
ATOM     17  C   UNL     1      -7.479  12.292  19.097  0.00  0.00    +0.000 C 
ATOM     18  O   UNL     1      -6.207  12.909  19.309  0.00  0.00    +0.000 OA
ENDBRANCH  11  18
BRANCH  16  19
ATOM     19  O   UNL     1      -3.483  13.030  20.422  0.00  0.00    +0.000 OA
ATOM     20  C   UNL     1      -3.974  12.654  21.702  0.00  0.00    +0.000 C 
ENDBRANCH  16  19
ENDBRANCH   9  15
ENDBRANCH   7  10
ENDBRANCH   1   7
BRANCH   2  21
ATOM     21  O   UNL     1       2.589   9.882  17.255  0.00  0.00    +0.000 OA
ATOM     22  H   UNL     1       2.551  10.781  17.626  0.00  0.00    +0.000 HD
ENDBRANCH   2  21
BRANCH   4  23
ATOM     23  O   UNL     1       3.613   5.597  18.691  0.00  0.00    +0.000 OA
ATOM     24  C   UNL     1       4.627   5.061  19.515  0.00  0.00    +0.000 C 
ENDBRANCH   4  23
BRANCH   6  25
ATOM     25  O   UNL     1       0.406   8.224  21.295  0.00  0.00    +0.000 OA
ATOM     26  C   UNL     1       0.746   9.069  22.393  0.00  0.00    +0.000 C 
ENDBRANCH   6  25
BRANCH   3  27
ATOM     27  C   UNL     1       3.616   7.398  16.679  0.00  0.00    +0.000 C 
BRANCH  27  28
ATOM     28  C   UNL     1       5.108   7.135  16.795  0.00  0.00    +0.000 C 
ATOM     29  C   UNL     1       5.826   6.100  16.311  0.00  0.00    +0.000 C 
ATOM     30  C   UNL     1       5.261   4.932  15.551  0.00  0.00    +0.000 C 
ATOM     31  C   UNL     1       7.323   6.052  16.488  0.00  0.00    +0.000 C 
ENDBRANCH  27  28
ENDBRANCH   3  27
BRANCH   5  32
ATOM     32  C   UNL     1       1.446   5.692  20.985  0.00  0.00    +0.000 C 
BRANCH  32  33
ATOM     33  C   UNL     1       0.986   4.427  20.302  0.00  0.00    +0.000 C 
ATOM     34  C   UNL     1       1.438   3.184  20.575  0.00  0.00    +0.000 C 
ATOM     35  C   UNL     1       2.524   2.860  21.573  0.00  0.00    +0.000 C 
ATOM     36  C   UNL     1       0.871   1.968  19.885  0.00  0.00    +0.000 C 
ENDBRANCH  32  33
ENDBRANCH   5  32
TORSDOF 12
ENDMDL
MODEL 7
REMARK VINA RESULT:      -6.7      2.551      4.046
REMARK  Name = 
REMARK  20 active torsions:
REMARK  status: ('A' for Active; 'I' for Inactive)
REMARK    1  A    between atoms: C_1  and  O_2
REMARK    2  A    between atoms: O_2  and  C_3
REMARK    3  A    between atoms: C_7  and  C_8
REMARK    4  A    between atoms: C_9  and  C_10
REMARK    5  A    between atoms: C_10  and  C_12
REMARK    6  A    between atoms: C_13  and  O_14
REMARK    7  A    between atoms: C_15  and  C_16
REMARK    8  A    between atoms: C_16  and  C_17
REMARK    9  A    between atoms: C_18  and  C_19
REMARK   10  A    between atoms: C_18  and  C_20
REMARK   11  A    between atoms: C_21  and  O_22
REMARK   12  A    between atoms: O_22  and  C_23
REMARK   13  A    between atoms: C_24  and  C_25
REMARK   14  A    between atoms: C_25  and  C_26
REMARK   15  A    between atoms: C_27  and  C_28
REMARK   16  A    between atoms: C_27  and  C_29
REMARK   17  A    between atoms: C_30  and  O_31
REMARK   18  A    between atoms: O_31  and  C_32
REMARK   19  A    between atoms: C_33  and  O_34
REMARK   20  A    between atoms: O_34  and  C_35
REMARK                            x       y       z     vdW  Elec       q    Type
REMARK                         _______ _______ _______ _____ _____    ______ ____
ROOT
ATOM      1  C   UNL     1       0.357  11.538  19.688  0.00  0.00    +0.000 A 
ATOM      2  C   UNL     1      -0.380  11.336  20.860  0.00  0.00    +0.000 A 
ATOM      3  C   UNL     1      -0.537  12.363  21.806  0.00  0.00    +0.000 A 
ATOM      4  C   UNL     1       0.133  13.608  21.635  0.00  0.00    +0.000 A 
ATOM      5  C   UNL     1       0.811  13.877  20.422  0.00  0.00    +0.000 A 
ATOM      6  C   UNL     1       0.952  12.809  19.468  0.00  0.00    +0.000 A 
ENDROOT
BRANCH   1   7
ATOM      7  C   UNL     1       0.332  10.478  18.642  0.00  0.00    +0.000 C 
ATOM      8  O   UNL     1      -0.651  10.307  17.932  0.00  0.00    +0.000 OA
BRANCH   7  10
ATOM      9  C   UNL     1       1.459   8.306  18.758  0.00  0.00    +0.000 C 
ATOM     10  C   UNL     1       1.546   9.620  18.506  0.00  0.00    +0.000 C 
BRANCH   9  15
ATOM     11  C   UNL     1       4.073   5.550  19.074  0.00  0.00    +0.000 A 
ATOM     12  C   UNL     1       4.828   5.853  17.930  0.00  0.00    +0.000 A 
ATOM     13  C   UNL     1       4.513   6.947  17.128  0.00  0.00    +0.000 A 
ATOM     14  C   UNL     1       3.406   7.723  17.434  0.00  0.00    +0.000 A 
ATOM     15  C   UNL     1       2.596   7.402  18.536  0.00  0.00    +0.000 A 
ATOM     16  C   UNL     1       2.906   6.295  19.358  0.00  0.00    +0.000 A 
BRANCH  11  18
ATOM     17  C   UNL     1       4.506   3.236  19.270  0.00  0.00    +0.000 C 
ATOM     18  O   UNL     1       4.472   4.524  19.890  0.00  0.00    +0.000 OA
ENDBRANCH  11  18
BRANCH  16  19
ATOM     19  O   UNL     1       2.025   6.084  20.392  0.00  0.00    +0.000 OA
ATOM     20  C   UNL     1       1.287   4.871  20.463  0.00  0.00    +0.000 C 
ENDBRANCH  16  19
ENDBRANCH   9  15
ENDBRANCH   7  10
ENDBRANCH   1   7
BRANCH   2  21
ATOM     21  O   UNL     1      -1.013  10.151  21.152  0.00  0.00    +0.000 OA
ATOM     22  H   UNL     1      -1.202   9.647  20.342  0.00  0.00    +0.000 HD
ENDBRANCH   2  21
BRANCH   4  23
ATOM     23  O   UNL     1      -0.005  14.381  22.751  0.00  0.00    +0.000 OA
ATOM     24  C   UNL     1      -0.746  15.580  22.845  0.00  0.00    +0.000 C 
ENDBRANCH   4  23
BRANCH   6  25
ATOM     25  O   UNL     1       1.553  13.148  18.277  0.00  0.00    +0.000 OA
ATOM     26  C   UNL     1       2.967  12.978  18.185  0.00  0.00    +0.000 C 
ENDBRANCH   6  25
BRANCH   3  27
ATOM     27  C   UNL     1      -1.543  12.170  22.942  0.00  0.00    +0.000 C 
BRANCH  27  28
ATOM     28  C   UNL     1      -2.972  12.497  22.548  0.00  0.00    +0.000 C 
ATOM     29  C   UNL     1      -4.052  12.666  23.340  0.00  0.00    +0.000 C 
ATOM     30  C   UNL     1      -4.059  12.527  24.838  0.00  0.00    +0.000 C 
ATOM     31  C   UNL     1      -5.387  13.047  22.752  0.00  0.00    +0.000 C 
ENDBRANCH  27  28
ENDBRANCH   3  27
BRANCH   5  32
ATOM     32  C   UNL     1       1.263  15.276  20.002  0.00  0.00    +0.000 C 
BRANCH  32  33
ATOM     33  C   UNL     1       0.259  16.129  19.266  0.00  0.00    +0.000 C 
ATOM     34  C   UNL     1       0.546  16.972  18.251  0.00  0.00    +0.000 C 
ATOM     35  C   UNL     1       1.934  17.244  17.721  0.00  0.00    +0.000 C 
ATOM     36  C   UNL     1      -0.535  17.738  17.530  0.00  0.00    +0.000 C 
ENDBRANCH  32  33
ENDBRANCH   5  32
TORSDOF 12
ENDMDL
MODEL 8
REMARK VINA RESULT:      -6.6      2.004      4.468
REMARK  Name = 
REMARK  20 active torsions:
REMARK  status: ('A' for Active; 'I' for Inactive)
REMARK    1  A    between atoms: C_1  and  O_2
REMARK    2  A    between atoms: O_2  and  C_3
REMARK    3  A    between atoms: C_7  and  C_8
REMARK    4  A    between atoms: C_9  and  C_10
REMARK    5  A    between atoms: C_10  and  C_12
REMARK    6  A    between atoms: C_13  and  O_14
REMARK    7  A    between atoms: C_15  and  C_16
REMARK    8  A    between atoms: C_16  and  C_17
REMARK    9  A    between atoms: C_18  and  C_19
REMARK   10  A    between atoms: C_18  and  C_20
REMARK   11  A    between atoms: C_21  and  O_22
REMARK   12  A    between atoms: O_22  and  C_23
REMARK   13  A    between atoms: C_24  and  C_25
REMARK   14  A    between atoms: C_25  and  C_26
REMARK   15  A    between atoms: C_27  and  C_28
REMARK   16  A    between atoms: C_27  and  C_29
REMARK   17  A    between atoms: C_30  and  O_31
REMARK   18  A    between atoms: O_31  and  C_32
REMARK   19  A    between atoms: C_33  and  O_34
REMARK   20  A    between atoms: O_34  and  C_35
REMARK                            x       y       z     vdW  Elec       q    Type
REMARK                         _______ _______ _______ _____ _____    ______ ____
ROOT
ATOM      1  C   UNL     1       0.125  10.784  18.877  0.00  0.00    +0.000 A 
ATOM      2  C   UNL     1      -1.087  10.701  18.183  0.00  0.00    +0.000 A 
ATOM      3  C   UNL     1      -2.173  11.528  18.517  0.00  0.00    +0.000 A 
ATOM      4  C   UNL     1      -2.093  12.407  19.633  0.00  0.00    +0.000 A 
ATOM      5  C   UNL     1      -0.855  12.581  20.299  0.00  0.00    +0.000 A 
ATOM      6  C   UNL     1       0.242  11.725  19.934  0.00  0.00    +0.000 A 
ENDROOT
BRANCH   1   7
ATOM      7  C   UNL     1       1.293  10.017  18.359  0.00  0.00    +0.000 C 
ATOM      8  O   UNL     1       2.095  10.523  17.584  0.00  0.00    +0.000 OA
BRANCH   7  10
ATOM      9  C   UNL     1       2.494   7.883  18.407  0.00  0.00    +0.000 C 
ATOM     10  C   UNL     1       1.436   8.601  18.809  0.00  0.00    +0.000 C 
BRANCH   9  15
ATOM     11  C   UNL     1       3.616   4.261  18.793  0.00  0.00    +0.000 A 
ATOM     12  C   UNL     1       3.025   3.995  20.038  0.00  0.00    +0.000 A 
ATOM     13  C   UNL     1       2.251   4.955  20.687  0.00  0.00    +0.000 A 
ATOM     14  C   UNL     1       2.103   6.211  20.119  0.00  0.00    +0.000 A 
ATOM     15  C   UNL     1       2.737   6.522  18.906  0.00  0.00    +0.000 A 
ATOM     16  C   UNL     1       3.524   5.557  18.238  0.00  0.00    +0.000 A 
BRANCH  11  18
ATOM     17  C   UNL     1       3.562   2.035  18.004  0.00  0.00    +0.000 C 
ATOM     18  O   UNL     1       4.289   3.259  18.142  0.00  0.00    +0.000 OA
ENDBRANCH  11  18
BRANCH  16  19
ATOM     19  O   UNL     1       4.101   5.995  17.069  0.00  0.00    +0.000 OA
ATOM     20  C   UNL     1       5.438   6.478  17.072  0.00  0.00    +0.000 C 
ENDBRANCH  16  19
ENDBRANCH   9  15
ENDBRANCH   7  10
ENDBRANCH   1   7
BRANCH   2  21
ATOM     21  O   UNL     1      -1.291   9.841  17.130  0.00  0.00    +0.000 OA
ATOM     22  H   UNL     1      -1.477   8.939  17.447  0.00  0.00    +0.000 HD
ENDBRANCH   2  21
BRANCH   4  23
ATOM     23  O   UNL     1      -3.310  12.970  19.887  0.00  0.00    +0.000 OA
ATOM     24  C   UNL     1      -4.041  12.859  21.090  0.00  0.00    +0.000 C 
ENDBRANCH   4  23
BRANCH   6  25
ATOM     25  O   UNL     1       1.439  11.988  20.560  0.00  0.00    +0.000 OA
ATOM     26  C   UNL     1       2.251  13.025  20.011  0.00  0.00    +0.000 C 
ENDBRANCH   6  25
BRANCH   3  27
ATOM     27  C   UNL     1      -3.382  11.567  17.581  0.00  0.00    +0.000 C 
BRANCH  27  28
ATOM     28  C   UNL     1      -4.569  10.767  18.089  0.00  0.00    +0.000 C 
ATOM     29  C   UNL     1      -5.841  11.170  18.287  0.00  0.00    +0.000 C 
ATOM     30  C   UNL     1      -6.353  12.566  18.061  0.00  0.00    +0.000 C 
ATOM     31  C   UNL     1      -6.895  10.196  18.750  0.00  0.00    +0.000 C 
ENDBRANCH  27  28
ENDBRANCH   3  27
BRANCH   5  32
ATOM     32  C   UNL     1      -0.576  13.729  21.270  0.00  0.00    +0.000 C 
BRANCH  32  33
ATOM     33  C   UNL     1      -0.766  15.132  20.748  0.00  0.00    +0.000 C 
ATOM     34  C   UNL     1      -1.540  16.079  21.318  0.00  0.00    +0.000 C 
ATOM     35  C   UNL     1      -2.393  15.872  22.546  0.00  0.00    +0.000 C 
ATOM     36  C   UNL     1      -1.619  17.478  20.758  0.00  0.00    +0.000 C 
ENDBRANCH  32  33
ENDBRANCH   5  32
TORSDOF 12
ENDMDL
MODEL 9
REMARK VINA RESULT:      -6.6      0.997      1.688
REMARK  Name = 
REMARK  20 active torsions:
REMARK  status: ('A' for Active; 'I' for Inactive)
REMARK    1  A    between atoms: C_1  and  O_2
REMARK    2  A    between atoms: O_2  and  C_3
REMARK    3  A    between atoms: C_7  and  C_8
REMARK    4  A    between atoms: C_9  and  C_10
REMARK    5  A    between atoms: C_10  and  C_12
REMARK    6  A    between atoms: C_13  and  O_14
REMARK    7  A    between atoms: C_15  and  C_16
REMARK    8  A    between atoms: C_16  and  C_17
REMARK    9  A    between atoms: C_18  and  C_19
REMARK   10  A    between atoms: C_18  and  C_20
REMARK   11  A    between atoms: C_21  and  O_22
REMARK   12  A    between atoms: O_22  and  C_23
REMARK   13  A    between atoms: C_24  and  C_25
REMARK   14  A    between atoms: C_25  and  C_26
REMARK   15  A    between atoms: C_27  and  C_28
REMARK   16  A    between atoms: C_27  and  C_29
REMARK   17  A    between atoms: C_30  and  O_31
REMARK   18  A    between atoms: O_31  and  C_32
REMARK   19  A    between atoms: C_33  and  O_34
REMARK   20  A    between atoms: O_34  and  C_35
REMARK                            x       y       z     vdW  Elec       q    Type
REMARK                         _______ _______ _______ _____ _____    ______ ____
ROOT
ATOM      1  C   UNL     1       0.387  10.039  21.218  0.00  0.00    +0.000 A 
ATOM      2  C   UNL     1      -0.291  10.750  22.214  0.00  0.00    +0.000 A 
ATOM      3  C   UNL     1      -1.217  11.754  21.887  0.00  0.00    +0.000 A 
ATOM      4  C   UNL     1      -1.418  12.134  20.530  0.00  0.00    +0.000 A 
ATOM      5  C   UNL     1      -0.818  11.377  19.495  0.00  0.00    +0.000 A 
ATOM      6  C   UNL     1       0.123  10.351  19.859  0.00  0.00    +0.000 A 
ENDROOT
BRANCH   1   7
ATOM      7  C   UNL     1       1.213   8.866  21.621  0.00  0.00    +0.000 C 
ATOM      8  O   UNL     1       1.451   8.628  22.799  0.00  0.00    +0.000 OA
BRANCH   7  10
ATOM      9  C   UNL     1       1.805   6.674  20.702  0.00  0.00    +0.000 C 
ATOM     10  C   UNL     1       1.755   8.002  20.530  0.00  0.00    +0.000 C 
BRANCH   9  15
ATOM     11  C   UNL     1       2.454   3.626  18.507  0.00  0.00    +0.000 A 
ATOM     12  C   UNL     1       3.174   4.262  17.483  0.00  0.00    +0.000 A 
ATOM     13  C   UNL     1       3.470   5.621  17.548  0.00  0.00    +0.000 A 
ATOM     14  C   UNL     1       3.005   6.372  18.616  0.00  0.00    +0.000 A 
ATOM     15  C   UNL     1       2.229   5.773  19.621  0.00  0.00    +0.000 A 
ATOM     16  C   UNL     1       1.922   4.394  19.567  0.00  0.00    +0.000 A 
BRANCH  11  18
ATOM     17  C   UNL     1       3.466   1.498  18.339  0.00  0.00    +0.000 C 
ATOM     18  O   UNL     1       2.267   2.269  18.453  0.00  0.00    +0.000 OA
ENDBRANCH  11  18
BRANCH  16  19
ATOM     19  O   UNL     1       1.143   3.938  20.604  0.00  0.00    +0.000 OA
ATOM     20  C   UNL     1       1.699   3.076  21.587  0.00  0.00    +0.000 C 
ENDBRANCH  16  19
ENDBRANCH   9  15
ENDBRANCH   7  10
ENDBRANCH   1   7
BRANCH   2  21
ATOM     21  O   UNL     1      -0.122  10.505  23.557  0.00  0.00    +0.000 OA
ATOM     22  H   UNL     1       0.068  11.328  24.041  0.00  0.00    +0.000 HD
ENDBRANCH   2  21
BRANCH   4  23
ATOM     23  O   UNL     1      -2.210  13.243  20.457  0.00  0.00    +0.000 OA
ATOM     24  C   UNL     1      -1.770  14.565  20.224  0.00  0.00    +0.000 C 
ENDBRANCH   4  23
BRANCH   6  25
ATOM     25  O   UNL     1       0.617   9.598  18.817  0.00  0.00    +0.000 OA
ATOM     26  C   UNL     1       1.743  10.117  18.110  0.00  0.00    +0.000 C 
ENDBRANCH   6  25
BRANCH   3  27
ATOM     27  C   UNL     1      -2.101  12.329  22.995  0.00  0.00    +0.000 C 
BRANCH  27  28
ATOM     28  C   UNL     1      -1.497  13.538  23.687  0.00  0.00    +0.000 C 
ATOM     29  C   UNL     1      -2.118  14.524  24.367  0.00  0.00    +0.000 C 
ATOM     30  C   UNL     1      -3.605  14.642  24.559  0.00  0.00    +0.000 C 
ATOM     31  C   UNL     1      -1.324  15.618  25.036  0.00  0.00    +0.000 C 
ENDBRANCH  27  28
ENDBRANCH   3  27
BRANCH   5  32
ATOM     32  C   UNL     1      -1.230  11.483  18.026  0.00  0.00    +0.000 C 
BRANCH  32  33
ATOM     33  C   UNL     1      -2.697  11.696  17.739  0.00  0.00    +0.000 C 
ATOM     34  C   UNL     1      -3.392  11.102  16.746  0.00  0.00    +0.000 C 
ATOM     35  C   UNL     1      -2.801  10.167  15.719  0.00  0.00    +0.000 C 
ATOM     36  C   UNL     1      -4.874  11.327  16.576  0.00  0.00    +0.000 C 
ENDBRANCH  32  33
ENDBRANCH   5  32
TORSDOF 12
ENDMDL
