MODEL 1
REMARK VINA RESULT:      -7.5      0.000      0.000
REMARK  Name = 
REMARK  7 active torsions:
REMARK  status: ('A' for Active; 'I' for Inactive)
REMARK    1  A    between atoms: C_1  and  O_2
REMARK    2  A    between atoms: O_2  and  C_3
REMARK    3  A    between atoms: C_8  and  C_9
REMARK    4  A    between atoms: N_11  and  C_12
REMARK    5  A    between atoms: C_17  and  S_18
REMARK    6  A    between atoms: S_18  and  C_19
REMARK    7  A    between atoms: C_19  and  C_20
REMARK                            x       y       z     vdW  Elec       q    Type
REMARK                         _______ _______ _______ _____ _____    ______ ____
ROOT
ATOM      1  C   UNL     1       1.039   9.004  19.259  0.00  0.00    +0.000 A 
ATOM      2  C   UNL     1       1.665   9.367  18.063  0.00  0.00    +0.000 A 
ATOM      3  C   UNL     1       2.705   8.617  17.507  0.00  0.00    +0.000 A 
ATOM      4  C   UNL     1       3.143   7.458  18.154  0.00  0.00    +0.000 A 
ATOM      5  N   UNL     1       4.189   6.664  17.728  0.00  0.00    +0.000 NA
ATOM      6  C   UNL     1       4.361   5.676  18.570  0.00  0.00    +0.000 A 
ATOM      7  S   UNL     1       3.239   5.591  19.865  0.00  0.00    +0.000 S 
ATOM      8  C   UNL     1       2.489   7.054  19.322  0.00  0.00    +0.000 A 
ATOM      9  C   UNL     1       1.418   7.801  19.879  0.00  0.00    +0.000 A 
ENDROOT
BRANCH   1  12
ATOM     10  C   UNL     1       0.251  10.633  20.975  0.00  0.00    +0.000 C 
ATOM     11  O   UNL     1       1.314  10.689  21.590  0.00  0.00    +0.000 OA
ATOM     12  N   UNL     1       0.038   9.823  19.862  0.00  0.00    +0.000 N 
ATOM     13  H   UNL     1      -0.922   9.726  19.545  0.00  0.00    +0.000 HD
BRANCH  10  19
ATOM     14  C   UNL     1      -1.596  12.451  20.829  0.00  0.00    +0.000 A 
ATOM     15  C   UNL     1      -2.657  13.108  21.486  0.00  0.00    +0.000 A 
ATOM     16  C   UNL     1      -2.958  12.848  22.826  0.00  0.00    +0.000 A 
ATOM     17  C   UNL     1      -2.214  11.917  23.530  0.00  0.00    +0.000 A 
ATOM     18  C   UNL     1      -1.190  11.232  22.881  0.00  0.00    +0.000 A 
ATOM     19  C   UNL     1      -0.871  11.471  21.522  0.00  0.00    +0.000 A 
BRANCH  14  21
ATOM     20  C   UNL     1      -0.582  13.947  19.314  0.00  0.00    +0.000 C 
ATOM     21  O   UNL     1      -1.281  12.715  19.518  0.00  0.00    +0.000 OA
ENDBRANCH  14  21
ENDBRANCH  10  19
ENDBRANCH   1  12
BRANCH   6  22
ATOM     22  S   UNL     1       5.644   4.508  18.317  0.00  0.00    +0.000 S 
BRANCH  22  23
ATOM     23  C   UNL     1       5.424   4.154  16.535  0.00  0.00    +0.000 C 
BRANCH  23  24
ATOM     24  C   UNL     1       6.604   4.642  15.699  0.00  0.00    +0.000 C 
ATOM     25  O   UNL     1       7.615   5.134  16.206  0.00  0.00    +0.000 OA
ATOM     26  N   UNL     1       6.530   4.452  14.332  0.00  0.00    +0.000 N 
ATOM     27  C   UNL     1       5.462   3.850  13.556  0.00  0.00    +0.000 C 
ATOM     28  C   UNL     1       6.169   3.375  12.295  0.00  0.00    +0.000 C 
ATOM     29  C   UNL     1       7.246   4.430  12.067  0.00  0.00    +0.000 C 
ATOM     30  C   UNL     1       7.592   4.932  13.465  0.00  0.00    +0.000 C 
ENDBRANCH  23  24
ENDBRANCH  22  23
ENDBRANCH   6  22
TORSDOF 6
ENDMDL
MODEL 2
REMARK VINA RESULT:      -7.5      3.797     10.767
REMARK  Name = 
REMARK  7 active torsions:
REMARK  status: ('A' for Active; 'I' for Inactive)
REMARK    1  A    between atoms: C_1  and  O_2
REMARK    2  A    between atoms: O_2  and  C_3
REMARK    3  A    between atoms: C_8  and  C_9
REMARK    4  A    between atoms: N_11  and  C_12
REMARK    5  A    between atoms: C_17  and  S_18
REMARK    6  A    between atoms: S_18  and  C_19
REMARK    7  A    between atoms: C_19  and  C_20
REMARK                            x       y       z     vdW  Elec       q    Type
REMARK                         _______ _______ _______ _____ _____    ______ ____
ROOT
ATOM      1  C   UNL     1       1.207   8.927  19.742  0.00  0.00    +0.000 A 
ATOM      2  C   UNL     1       0.758   9.914  18.859  0.00  0.00    +0.000 A 
ATOM      3  C   UNL     1      -0.114  10.931  19.257  0.00  0.00    +0.000 A 
ATOM      4  C   UNL     1      -0.559  10.980  20.581  0.00  0.00    +0.000 A 
ATOM      5  N   UNL     1      -1.455  11.906  21.077  0.00  0.00    +0.000 NA
ATOM      6  C   UNL     1      -1.684  11.659  22.343  0.00  0.00    +0.000 A 
ATOM      7  S   UNL     1      -0.786  10.368  23.029  0.00  0.00    +0.000 S 
ATOM      8  C   UNL     1      -0.076  10.032  21.486  0.00  0.00    +0.000 A 
ATOM      9  C   UNL     1       0.828   9.010  21.093  0.00  0.00    +0.000 A 
ENDROOT
BRANCH   1  12
ATOM     10  C   UNL     1       2.687   7.804  18.078  0.00  0.00    +0.000 C 
ATOM     11  O   UNL     1       2.589   8.677  17.217  0.00  0.00    +0.000 OA
ATOM     12  N   UNL     1       2.028   7.845  19.305  0.00  0.00    +0.000 N 
ATOM     13  H   UNL     1       2.043   6.994  19.859  0.00  0.00    +0.000 HD
BRANCH  10  19
ATOM     14  C   UNL     1       3.327   5.289  18.105  0.00  0.00    +0.000 A 
ATOM     15  C   UNL     1       4.207   4.293  17.634  0.00  0.00    +0.000 A 
ATOM     16  C   UNL     1       5.318   4.612  16.849  0.00  0.00    +0.000 A 
ATOM     17  C   UNL     1       5.564   5.931  16.509  0.00  0.00    +0.000 A 
ATOM     18  C   UNL     1       4.680   6.920  16.934  0.00  0.00    +0.000 A 
ATOM     19  C   UNL     1       3.542   6.621  17.722  0.00  0.00    +0.000 A 
BRANCH  14  21
ATOM     20  C   UNL     1       1.456   3.890  18.419  0.00  0.00    +0.000 C 
ATOM     21  O   UNL     1       2.243   4.986  18.893  0.00  0.00    +0.000 OA
ENDBRANCH  14  21
ENDBRANCH  10  19
ENDBRANCH   1  12
BRANCH   6  22
ATOM     22  S   UNL     1      -2.812  12.649  23.250  0.00  0.00    +0.000 S 
BRANCH  22  23
ATOM     23  C   UNL     1      -3.823  13.333  21.887  0.00  0.00    +0.000 C 
BRANCH  23  24
ATOM     24  C   UNL     1      -5.160  12.610  21.741  0.00  0.00    +0.000 C 
ATOM     25  O   UNL     1      -5.954  12.492  22.678  0.00  0.00    +0.000 OA
ATOM     26  N   UNL     1      -5.488  12.139  20.483  0.00  0.00    +0.000 N 
ATOM     27  C   UNL     1      -4.723  12.224  19.254  0.00  0.00    +0.000 C 
ATOM     28  C   UNL     1      -5.785  12.117  18.170  0.00  0.00    +0.000 C 
ATOM     29  C   UNL     1      -6.817  11.167  18.770  0.00  0.00    +0.000 C 
ATOM     30  C   UNL     1      -6.721  11.400  20.274  0.00  0.00    +0.000 C 
ENDBRANCH  23  24
ENDBRANCH  22  23
ENDBRANCH   6  22
TORSDOF 6
ENDMDL
MODEL 3
REMARK VINA RESULT:      -7.3      5.756      8.506
REMARK  Name = 
REMARK  7 active torsions:
REMARK  status: ('A' for Active; 'I' for Inactive)
REMARK    1  A    between atoms: C_1  and  O_2
REMARK    2  A    between atoms: O_2  and  C_3
REMARK    3  A    between atoms: C_8  and  C_9
REMARK    4  A    between atoms: N_11  and  C_12
REMARK    5  A    between atoms: C_17  and  S_18
REMARK    6  A    between atoms: S_18  and  C_19
REMARK    7  A    between atoms: C_19  and  C_20
REMARK                            x       y       z     vdW  Elec       q    Type
REMARK                         _______ _______ _______ _____ _____    ______ ____
ROOT
ATOM      1  C   UNL     1       8.095   8.519  18.018  0.00  0.00    +0.000 A 
ATOM      2  C   UNL     1       8.518   7.538  18.921  0.00  0.00    +0.000 A 
ATOM      3  C   UNL     1       7.922   6.276  18.984  0.00  0.00    +0.000 A 
ATOM      4  C   UNL     1       6.868   5.965  18.119  0.00  0.00    +0.000 A 
ATOM      5  N   UNL     1       6.173   4.772  18.121  0.00  0.00    +0.000 NA
ATOM      6  C   UNL     1       5.232   4.813  17.211  0.00  0.00    +0.000 A 
ATOM      7  S   UNL     1       5.177   6.234  16.252  0.00  0.00    +0.000 S 
ATOM      8  C   UNL     1       6.472   6.917  17.177  0.00  0.00    +0.000 A 
ATOM      9  C   UNL     1       7.089   8.193  17.093  0.00  0.00    +0.000 A 
ENDROOT
BRANCH   1  12
ATOM     10  C   UNL     1       9.176  10.462  19.148  0.00  0.00    +0.000 C 
ATOM     11  O   UNL     1       9.166   9.971  20.275  0.00  0.00    +0.000 OA
ATOM     12  N   UNL     1       8.652   9.833  18.021  0.00  0.00    +0.000 N 
ATOM     13  H   UNL     1       8.557  10.401  17.184  0.00  0.00    +0.000 HD
BRANCH  10  19
ATOM     14  C   UNL     1       9.249  12.904  18.271  0.00  0.00    +0.000 A 
ATOM     15  C   UNL     1       9.894  14.156  18.326  0.00  0.00    +0.000 A 
ATOM     16  C   UNL     1      11.058  14.345  19.076  0.00  0.00    +0.000 A 
ATOM     17  C   UNL     1      11.592  13.289  19.795  0.00  0.00    +0.000 A 
ATOM     18  C   UNL     1      10.941  12.058  19.781  0.00  0.00    +0.000 A 
ATOM     19  C   UNL     1       9.755  11.844  19.037  0.00  0.00    +0.000 A 
BRANCH  14  21
ATOM     20  C   UNL     1       7.186  13.792  17.553  0.00  0.00    +0.000 C 
ATOM     21  O   UNL     1       8.115  12.705  17.521  0.00  0.00    +0.000 OA
ENDBRANCH  14  21
ENDBRANCH  10  19
ENDBRANCH   1  12
BRANCH   6  22
ATOM     22  S   UNL     1       4.150   3.450  16.992  0.00  0.00    +0.000 S 
BRANCH  22  23
ATOM     23  C   UNL     1       2.536   4.256  17.294  0.00  0.00    +0.000 C 
BRANCH  23  24
ATOM     24  C   UNL     1       2.462   4.902  18.675  0.00  0.00    +0.000 C 
ATOM     25  O   UNL     1       2.464   6.126  18.834  0.00  0.00    +0.000 OA
ATOM     26  N   UNL     1       2.327   4.057  19.761  0.00  0.00    +0.000 N 
ATOM     27  C   UNL     1       2.252   2.608  19.779  0.00  0.00    +0.000 C 
ATOM     28  C   UNL     1       1.520   2.310  21.079  0.00  0.00    +0.000 C 
ATOM     29  C   UNL     1       2.000   3.408  22.022  0.00  0.00    +0.000 C 
ATOM     30  C   UNL     1       2.297   4.593  21.111  0.00  0.00    +0.000 C 
ENDBRANCH  23  24
ENDBRANCH  22  23
ENDBRANCH   6  22
TORSDOF 6
ENDMDL
MODEL 4
REMARK VINA RESULT:      -7.3      3.888     11.809
REMARK  Name = 
REMARK  7 active torsions:
REMARK  status: ('A' for Active; 'I' for Inactive)
REMARK    1  A    between atoms: C_1  and  O_2
REMARK    2  A    between atoms: O_2  and  C_3
REMARK    3  A    between atoms: C_8  and  C_9
REMARK    4  A    between atoms: N_11  and  C_12
REMARK    5  A    between atoms: C_17  and  S_18
REMARK    6  A    between atoms: S_18  and  C_19
REMARK    7  A    between atoms: C_19  and  C_20
REMARK                            x       y       z     vdW  Elec       q    Type
REMARK                         _______ _______ _______ _____ _____    ______ ____
ROOT
ATOM      1  C   UNL     1       1.438   8.728  20.078  0.00  0.00    +0.000 A 
ATOM      2  C   UNL     1       1.246   8.271  21.385  0.00  0.00    +0.000 A 
ATOM      3  C   UNL     1       0.601   9.039  22.358  0.00  0.00    +0.000 A 
ATOM      4  C   UNL     1       0.120  10.309  22.027  0.00  0.00    +0.000 A 
ATOM      5  N   UNL     1      -0.490  11.176  22.912  0.00  0.00    +0.000 NA
ATOM      6  C   UNL     1      -0.795  12.290  22.295  0.00  0.00    +0.000 A 
ATOM      7  S   UNL     1      -0.449  12.335  20.615  0.00  0.00    +0.000 S 
ATOM      8  C   UNL     1       0.256  10.756  20.710  0.00  0.00    +0.000 A 
ATOM      9  C   UNL     1       0.892   9.971  19.713  0.00  0.00    +0.000 A 
ENDROOT
BRANCH   1  12
ATOM     10  C   UNL     1       2.518   6.630  19.270  0.00  0.00    +0.000 C 
ATOM     11  O   UNL     1       2.267   5.967  20.274  0.00  0.00    +0.000 OA
ATOM     12  N   UNL     1       2.174   7.972  19.117  0.00  0.00    +0.000 N 
ATOM     13  H   UNL     1       2.583   8.461  18.326  0.00  0.00    +0.000 HD
BRANCH  10  19
ATOM     14  C   UNL     1       3.186   4.565  17.846  0.00  0.00    +0.000 A 
ATOM     15  C   UNL     1       3.944   4.077  16.762  0.00  0.00    +0.000 A 
ATOM     16  C   UNL     1       4.833   4.899  16.065  0.00  0.00    +0.000 A 
ATOM     17  C   UNL     1       4.970   6.228  16.428  0.00  0.00    +0.000 A 
ATOM     18  C   UNL     1       4.197   6.732  17.471  0.00  0.00    +0.000 A 
ATOM     19  C   UNL     1       3.283   5.922  18.187  0.00  0.00    +0.000 A 
BRANCH  14  21
ATOM     20  C   UNL     1       2.805   2.430  18.771  0.00  0.00    +0.000 C 
ATOM     21  O   UNL     1       2.324   3.758  18.550  0.00  0.00    +0.000 OA
ENDBRANCH  14  21
ENDBRANCH  10  19
ENDBRANCH   1  12
BRANCH   6  22
ATOM     22  S   UNL     1      -1.556  13.607  23.166  0.00  0.00    +0.000 S 
BRANCH  22  23
ATOM     23  C   UNL     1      -3.228  13.574  22.425  0.00  0.00    +0.000 C 
BRANCH  23  24
ATOM     24  C   UNL     1      -4.237  12.845  23.309  0.00  0.00    +0.000 C 
ATOM     25  O   UNL     1      -3.942  11.839  23.959  0.00  0.00    +0.000 OA
ATOM     26  N   UNL     1      -5.501  13.397  23.412  0.00  0.00    +0.000 N 
ATOM     27  C   UNL     1      -6.023  14.592  22.777  0.00  0.00    +0.000 C 
ATOM     28  C   UNL     1      -7.160  15.010  23.697  0.00  0.00    +0.000 C 
ATOM     29  C   UNL     1      -7.724  13.685  24.198  0.00  0.00    +0.000 C 
ATOM     30  C   UNL     1      -6.530  12.737  24.197  0.00  0.00    +0.000 C 
ENDBRANCH  23  24
ENDBRANCH  22  23
ENDBRANCH   6  22
TORSDOF 6
ENDMDL
MODEL 5
REMARK VINA RESULT:      -7.2      3.849     10.850
REMARK  Name = 
REMARK  7 active torsions:
REMARK  status: ('A' for Active; 'I' for Inactive)
REMARK    1  A    between atoms: C_1  and  O_2
REMARK    2  A    between atoms: O_2  and  C_3
REMARK    3  A    between atoms: C_8  and  C_9
REMARK    4  A    between atoms: N_11  and  C_12
REMARK    5  A    between atoms: C_17  and  S_18
REMARK    6  A    between atoms: S_18  and  C_19
REMARK    7  A    between atoms: C_19  and  C_20
REMARK                            x       y       z     vdW  Elec       q    Type
REMARK                         _______ _______ _______ _____ _____    ______ ____
ROOT
ATOM      1  C   UNL     1       1.349   8.702  19.867  0.00  0.00    +0.000 A 
ATOM      2  C   UNL     1       1.363   8.421  21.236  0.00  0.00    +0.000 A 
ATOM      3  C   UNL     1       0.601   9.147  22.155  0.00  0.00    +0.000 A 
ATOM      4  C   UNL     1      -0.213  10.191  21.706  0.00  0.00    +0.000 A 
ATOM      5  N   UNL     1      -0.972  11.006  22.522  0.00  0.00    +0.000 NA
ATOM      6  C   UNL     1      -1.593  11.899  21.793  0.00  0.00    +0.000 A 
ATOM      7  S   UNL     1      -1.374  11.766  20.096  0.00  0.00    +0.000 S 
ATOM      8  C   UNL     1      -0.278  10.447  20.334  0.00  0.00    +0.000 A 
ATOM      9  C   UNL     1       0.478   9.698  19.393  0.00  0.00    +0.000 A 
ENDROOT
BRANCH   1  12
ATOM     10  C   UNL     1       2.562   6.673  19.071  0.00  0.00    +0.000 C 
ATOM     11  O   UNL     1       2.233   5.955  20.014  0.00  0.00    +0.000 OA
ATOM     12  N   UNL     1       2.197   8.012  18.949  0.00  0.00    +0.000 N 
ATOM     13  H   UNL     1       2.667   8.549  18.226  0.00  0.00    +0.000 HD
BRANCH  10  19
ATOM     14  C   UNL     1       3.494   4.677  17.699  0.00  0.00    +0.000 A 
ATOM     15  C   UNL     1       4.354   4.261  16.662  0.00  0.00    +0.000 A 
ATOM     16  C   UNL     1       5.203   5.160  16.012  0.00  0.00    +0.000 A 
ATOM     17  C   UNL     1       5.198   6.496  16.376  0.00  0.00    +0.000 A 
ATOM     18  C   UNL     1       4.324   6.927  17.370  0.00  0.00    +0.000 A 
ATOM     19  C   UNL     1       3.448   6.037  18.038  0.00  0.00    +0.000 A 
BRANCH  14  21
ATOM     20  C   UNL     1       3.157   2.451  18.398  0.00  0.00    +0.000 C 
ATOM     21  O   UNL     1       2.671   3.795  18.356  0.00  0.00    +0.000 OA
ENDBRANCH  14  21
ENDBRANCH  10  19
ENDBRANCH   1  12
BRANCH   6  22
ATOM     22  S   UNL     1      -2.615  13.106  22.549  0.00  0.00    +0.000 S 
BRANCH  22  23
ATOM     23  C   UNL     1      -3.772  13.467  21.179  0.00  0.00    +0.000 C 
BRANCH  23  24
ATOM     24  C   UNL     1      -5.031  12.605  21.244  0.00  0.00    +0.000 C 
ATOM     25  O   UNL     1      -5.670  12.444  22.287  0.00  0.00    +0.000 OA
ATOM     26  N   UNL     1      -5.477  12.050  20.058  0.00  0.00    +0.000 N 
ATOM     27  C   UNL     1      -4.903  12.163  18.731  0.00  0.00    +0.000 C 
ATOM     28  C   UNL     1      -6.088  11.901  17.812  0.00  0.00    +0.000 C 
ATOM     29  C   UNL     1      -6.917  10.876  18.578  0.00  0.00    +0.000 C 
ATOM     30  C   UNL     1      -6.640  11.179  20.047  0.00  0.00    +0.000 C 
ENDBRANCH  23  24
ENDBRANCH  22  23
ENDBRANCH   6  22
TORSDOF 6
ENDMDL
MODEL 6
REMARK VINA RESULT:      -7.2      3.016     10.492
REMARK  Name = 
REMARK  7 active torsions:
REMARK  status: ('A' for Active; 'I' for Inactive)
REMARK    1  A    between atoms: C_1  and  O_2
REMARK    2  A    between atoms: O_2  and  C_3
REMARK    3  A    between atoms: C_8  and  C_9
REMARK    4  A    between atoms: N_11  and  C_12
REMARK    5  A    between atoms: C_17  and  S_18
REMARK    6  A    between atoms: S_18  and  C_19
REMARK    7  A    between atoms: C_19  and  C_20
REMARK                            x       y       z     vdW  Elec       q    Type
REMARK                         _______ _______ _______ _____ _____    ______ ____
ROOT
ATOM      1  C   UNL     1       2.270   7.159  18.887  0.00  0.00    +0.000 A 
ATOM      2  C   UNL     1       2.025   6.872  20.234  0.00  0.00    +0.000 A 
ATOM      3  C   UNL     1       1.404   7.785  21.090  0.00  0.00    +0.000 A 
ATOM      4  C   UNL     1       1.004   9.032  20.599  0.00  0.00    +0.000 A 
ATOM      5  N   UNL     1       0.427  10.030  21.357  0.00  0.00    +0.000 NA
ATOM      6  C   UNL     1       0.200  11.077  20.604  0.00  0.00    +0.000 A 
ATOM      7  S   UNL     1       0.583  10.901  18.941  0.00  0.00    +0.000 S 
ATOM      8  C   UNL     1       1.194   9.309  19.242  0.00  0.00    +0.000 A 
ATOM      9  C   UNL     1       1.804   8.376  18.363  0.00  0.00    +0.000 A 
ENDROOT
BRANCH   1  12
ATOM     10  C   UNL     1       4.208   6.534  17.447  0.00  0.00    +0.000 C 
ATOM     11  O   UNL     1       4.786   7.615  17.542  0.00  0.00    +0.000 OA
ATOM     12  N   UNL     1       2.981   6.253  18.044  0.00  0.00    +0.000 N 
ATOM     13  H   UNL     1       2.518   5.396  17.755  0.00  0.00    +0.000 HD
BRANCH  10  19
ATOM     14  C   UNL     1       5.005   4.132  16.868  0.00  0.00    +0.000 A 
ATOM     15  C   UNL     1       5.625   3.294  15.919  0.00  0.00    +0.000 A 
ATOM     16  C   UNL     1       6.172   3.806  14.739  0.00  0.00    +0.000 A 
ATOM     17  C   UNL     1       6.097   5.164  14.480  0.00  0.00    +0.000 A 
ATOM     18  C   UNL     1       5.451   5.997  15.390  0.00  0.00    +0.000 A 
ATOM     19  C   UNL     1       4.880   5.501  16.588  0.00  0.00    +0.000 A 
BRANCH  14  21
ATOM     20  C   UNL     1       3.632   2.501  17.875  0.00  0.00    +0.000 C 
ATOM     21  O   UNL     1       4.482   3.639  18.039  0.00  0.00    +0.000 OA
ENDBRANCH  14  21
ENDBRANCH  10  19
ENDBRANCH   1  12
BRANCH   6  22
ATOM     22  S   UNL     1      -0.502  12.529  21.292  0.00  0.00    +0.000 S 
BRANCH  22  23
ATOM     23  C   UNL     1      -1.482  13.130  19.869  0.00  0.00    +0.000 C 
BRANCH  23  24
ATOM     24  C   UNL     1      -2.981  12.923  20.072  0.00  0.00    +0.000 C 
ATOM     25  O   UNL     1      -3.605  13.462  20.990  0.00  0.00    +0.000 OA
ATOM     26  N   UNL     1      -3.643  12.149  19.137  0.00  0.00    +0.000 N 
ATOM     27  C   UNL     1      -3.105  11.479  17.969  0.00  0.00    +0.000 C 
ATOM     28  C   UNL     1      -4.315  11.338  17.056  0.00  0.00    +0.000 C 
ATOM     29  C   UNL     1      -5.472  11.120  18.024  0.00  0.00    +0.000 C 
ATOM     30  C   UNL     1      -5.061  11.867  19.288  0.00  0.00    +0.000 C 
ENDBRANCH  23  24
ENDBRANCH  22  23
ENDBRANCH   6  22
TORSDOF 6
ENDMDL
MODEL 7
REMARK VINA RESULT:      -7.2      3.221     11.559
REMARK  Name = 
REMARK  7 active torsions:
REMARK  status: ('A' for Active; 'I' for Inactive)
REMARK    1  A    between atoms: C_1  and  O_2
REMARK    2  A    between atoms: O_2  and  C_3
REMARK    3  A    between atoms: C_8  and  C_9
REMARK    4  A    between atoms: N_11  and  C_12
REMARK    5  A    between atoms: C_17  and  S_18
REMARK    6  A    between atoms: S_18  and  C_19
REMARK    7  A    between atoms: C_19  and  C_20
REMARK                            x       y       z     vdW  Elec       q    Type
REMARK                         _______ _______ _______ _____ _____    ______ ____
ROOT
ATOM      1  C   UNL     1       2.278   7.905  18.681  0.00  0.00    +0.000 A 
ATOM      2  C   UNL     1       2.022   7.528  20.004  0.00  0.00    +0.000 A 
ATOM      3  C   UNL     1       1.177   8.265  20.839  0.00  0.00    +0.000 A 
ATOM      4  C   UNL     1       0.557   9.419  20.350  0.00  0.00    +0.000 A 
ATOM      5  N   UNL     1      -0.257  10.250  21.092  0.00  0.00    +0.000 NA
ATOM      6  C   UNL     1      -0.653  11.253  20.349  0.00  0.00    +0.000 A 
ATOM      7  S   UNL     1      -0.147  11.217  18.709  0.00  0.00    +0.000 S 
ATOM      8  C   UNL     1       0.762   9.775  19.014  0.00  0.00    +0.000 A 
ATOM      9  C   UNL     1       1.601   9.018  18.155  0.00  0.00    +0.000 A 
ENDROOT
BRANCH   1  12
ATOM     10  C   UNL     1       4.008   6.145  18.315  0.00  0.00    +0.000 C 
ATOM     11  O   UNL     1       4.034   5.753  19.481  0.00  0.00    +0.000 OA
ATOM     12  N   UNL     1       3.208   7.194  17.865  0.00  0.00    +0.000 N 
ATOM     13  H   UNL     1       3.397   7.543  16.930  0.00  0.00    +0.000 HD
BRANCH  10  19
ATOM     14  C   UNL     1       4.705   4.252  16.682  0.00  0.00    +0.000 A 
ATOM     15  C   UNL     1       5.680   3.770  15.785  0.00  0.00    +0.000 A 
ATOM     16  C   UNL     1       6.901   4.427  15.613  0.00  0.00    +0.000 A 
ATOM     17  C   UNL     1       7.165   5.586  16.323  0.00  0.00    +0.000 A 
ATOM     18  C   UNL     1       6.193   6.094  17.181  0.00  0.00    +0.000 A 
ATOM     19  C   UNL     1       4.945   5.452  17.366  0.00  0.00    +0.000 A 
BRANCH  14  21
ATOM     20  C   UNL     1       3.583   2.474  17.749  0.00  0.00    +0.000 C 
ATOM     21  O   UNL     1       3.510   3.601  16.872  0.00  0.00    +0.000 OA
ENDBRANCH  14  21
ENDBRANCH  10  19
ENDBRANCH   1  12
BRANCH   6  22
ATOM     22  S   UNL     1      -1.678  12.507  21.022  0.00  0.00    +0.000 S 
BRANCH  22  23
ATOM     23  C   UNL     1      -1.883  11.884  22.730  0.00  0.00    +0.000 C 
BRANCH  23  24
ATOM     24  C   UNL     1      -2.964  12.645  23.496  0.00  0.00    +0.000 C 
ATOM     25  O   UNL     1      -4.094  12.185  23.676  0.00  0.00    +0.000 OA
ATOM     26  N   UNL     1      -2.608  13.862  24.047  0.00  0.00    +0.000 N 
ATOM     27  C   UNL     1      -1.328  14.543  23.993  0.00  0.00    +0.000 C 
ATOM     28  C   UNL     1      -1.358  15.446  25.218  0.00  0.00    +0.000 C 
ATOM     29  C   UNL     1      -2.824  15.848  25.331  0.00  0.00    +0.000 C 
ATOM     30  C   UNL     1      -3.593  14.667  24.749  0.00  0.00    +0.000 C 
ENDBRANCH  23  24
ENDBRANCH  22  23
ENDBRANCH   6  22
TORSDOF 6
ENDMDL
MODEL 8
REMARK VINA RESULT:      -7.1      2.976     11.061
REMARK  Name = 
REMARK  7 active torsions:
REMARK  status: ('A' for Active; 'I' for Inactive)
REMARK    1  A    between atoms: C_1  and  O_2
REMARK    2  A    between atoms: O_2  and  C_3
REMARK    3  A    between atoms: C_8  and  C_9
REMARK    4  A    between atoms: N_11  and  C_12
REMARK    5  A    between atoms: C_17  and  S_18
REMARK    6  A    between atoms: S_18  and  C_19
REMARK    7  A    between atoms: C_19  and  C_20
REMARK                            x       y       z     vdW  Elec       q    Type
REMARK                         _______ _______ _______ _____ _____    ______ ____
ROOT
ATOM      1  C   UNL     1       2.070   7.938  18.492  0.00  0.00    +0.000 A 
ATOM      2  C   UNL     1       1.565   9.044  17.801  0.00  0.00    +0.000 A 
ATOM      3  C   UNL     1       0.825  10.046  18.435  0.00  0.00    +0.000 A 
ATOM      4  C   UNL     1       0.576   9.957  19.808  0.00  0.00    +0.000 A 
ATOM      5  N   UNL     1      -0.179  10.857  20.532  0.00  0.00    +0.000 NA
ATOM      6  C   UNL     1      -0.241  10.471  21.782  0.00  0.00    +0.000 A 
ATOM      7  S   UNL     1       0.661   9.067  22.179  0.00  0.00    +0.000 S 
ATOM      8  C   UNL     1       1.122   8.885  20.519  0.00  0.00    +0.000 A 
ATOM      9  C   UNL     1       1.893   7.876  19.884  0.00  0.00    +0.000 A 
ENDROOT
BRANCH   1  12
ATOM     10  C   UNL     1       4.087   6.924  17.431  0.00  0.00    +0.000 C 
ATOM     11  O   UNL     1       4.812   7.905  17.582  0.00  0.00    +0.000 OA
ATOM     12  N   UNL     1       2.750   6.879  17.819  0.00  0.00    +0.000 N 
ATOM     13  H   UNL     1       2.205   6.088  17.488  0.00  0.00    +0.000 HD
BRANCH  10  19
ATOM     14  C   UNL     1       4.568   4.395  17.098  0.00  0.00    +0.000 A 
ATOM     15  C   UNL     1       5.186   3.409  16.302  0.00  0.00    +0.000 A 
ATOM     16  C   UNL     1       5.985   3.749  15.207  0.00  0.00    +0.000 A 
ATOM     17  C   UNL     1       6.171   5.081  14.879  0.00  0.00    +0.000 A 
ATOM     18  C   UNL     1       5.533   6.063  15.633  0.00  0.00    +0.000 A 
ATOM     19  C   UNL     1       4.711   5.744  16.741  0.00  0.00    +0.000 A 
BRANCH  14  21
ATOM     20  C   UNL     1       4.540   3.635  19.330  0.00  0.00    +0.000 C 
ATOM     21  O   UNL     1       3.797   4.070  18.188  0.00  0.00    +0.000 OA
ENDBRANCH  14  21
ENDBRANCH  10  19
ENDBRANCH   1  12
BRANCH   6  22
ATOM     22  S   UNL     1      -1.163  11.397  22.951  0.00  0.00    +0.000 S 
BRANCH  22  23
ATOM     23  C   UNL     1      -2.194  12.413  21.832  0.00  0.00    +0.000 C 
BRANCH  23  24
ATOM     24  C   UNL     1      -3.619  12.581  22.354  0.00  0.00    +0.000 C 
ATOM     25  O   UNL     1      -3.874  12.703  23.554  0.00  0.00    +0.000 OA
ATOM     26  N   UNL     1      -4.630  12.660  21.413  0.00  0.00    +0.000 N 
ATOM     27  C   UNL     1      -4.532  12.594  19.968  0.00  0.00    +0.000 C 
ATOM     28  C   UNL     1      -5.780  13.325  19.496  0.00  0.00    +0.000 C 
ATOM     29  C   UNL     1      -6.822  12.976  20.554  0.00  0.00    +0.000 C 
ATOM     30  C   UNL     1      -6.016  12.773  21.833  0.00  0.00    +0.000 C 
ENDBRANCH  23  24
ENDBRANCH  22  23
ENDBRANCH   6  22
TORSDOF 6
ENDMDL
MODEL 9
REMARK VINA RESULT:      -7.1      3.740     10.663
REMARK  Name = 
REMARK  7 active torsions:
REMARK  status: ('A' for Active; 'I' for Inactive)
REMARK    1  A    between atoms: C_1  and  O_2
REMARK    2  A    between atoms: O_2  and  C_3
REMARK    3  A    between atoms: C_8  and  C_9
REMARK    4  A    between atoms: N_11  and  C_12
REMARK    5  A    between atoms: C_17  and  S_18
REMARK    6  A    between atoms: S_18  and  C_19
REMARK    7  A    between atoms: C_19  and  C_20
REMARK                            x       y       z     vdW  Elec       q    Type
REMARK                         _______ _______ _______ _____ _____    ______ ____
ROOT
ATOM      1  C   UNL     1       1.439   9.771  18.048  0.00  0.00    +0.000 A 
ATOM      2  C   UNL     1       0.073   9.858  18.335  0.00  0.00    +0.000 A 
ATOM      3  C   UNL     1      -0.514  11.030  18.821  0.00  0.00    +0.000 A 
ATOM      4  C   UNL     1       0.277  12.164  19.029  0.00  0.00    +0.000 A 
ATOM      5  N   UNL     1      -0.179  13.359  19.548  0.00  0.00    +0.000 NA
ATOM      6  C   UNL     1       0.817  14.205  19.641  0.00  0.00    +0.000 A 
ATOM      7  S   UNL     1       2.327  13.654  19.042  0.00  0.00    +0.000 S 
ATOM      8  C   UNL     1       1.633  12.106  18.695  0.00  0.00    +0.000 A 
ATOM      9  C   UNL     1       2.229  10.925  18.180  0.00  0.00    +0.000 A 
ENDROOT
BRANCH   1  12
ATOM     10  C   UNL     1       2.350   7.492  18.493  0.00  0.00    +0.000 C 
ATOM     11  O   UNL     1       2.182   7.527  19.710  0.00  0.00    +0.000 OA
ATOM     12  N   UNL     1       2.042   8.545  17.634  0.00  0.00    +0.000 N 
ATOM     13  H   UNL     1       2.384   8.472  16.681  0.00  0.00    +0.000 HD
BRANCH  10  19
ATOM     14  C   UNL     1       4.252   6.110  17.393  0.00  0.00    +0.000 A 
ATOM     15  C   UNL     1       4.694   4.836  16.979  0.00  0.00    +0.000 A 
ATOM     16  C   UNL     1       3.864   3.715  17.054  0.00  0.00    +0.000 A 
ATOM     17  C   UNL     1       2.580   3.843  17.556  0.00  0.00    +0.000 A 
ATOM     18  C   UNL     1       2.146   5.087  18.006  0.00  0.00    +0.000 A 
ATOM     19  C   UNL     1       2.971   6.236  17.950  0.00  0.00    +0.000 A 
BRANCH  14  21
ATOM     20  C   UNL     1       6.457   6.935  17.265  0.00  0.00    +0.000 C 
ATOM     21  O   UNL     1       5.056   7.221  17.304  0.00  0.00    +0.000 OA
ENDBRANCH  14  21
ENDBRANCH  10  19
ENDBRANCH   1  12
BRANCH   6  22
ATOM     22  S   UNL     1       0.559  15.809  20.300  0.00  0.00    +0.000 S 
BRANCH  22  23
ATOM     23  C   UNL     1       0.315  15.406  22.068  0.00  0.00    +0.000 C 
BRANCH  23  24
ATOM     24  C   UNL     1      -1.162  15.366  22.453  0.00  0.00    +0.000 C 
ATOM     25  O   UNL     1      -1.897  16.352  22.357  0.00  0.00    +0.000 OA
ATOM     26  N   UNL     1      -1.676  14.148  22.859  0.00  0.00    +0.000 N 
ATOM     27  C   UNL     1      -0.995  12.873  22.986  0.00  0.00    +0.000 C 
ATOM     28  C   UNL     1      -2.122  11.859  22.859  0.00  0.00    +0.000 C 
ATOM     29  C   UNL     1      -3.308  12.554  23.521  0.00  0.00    +0.000 C 
ATOM     30  C   UNL     1      -3.060  14.040  23.286  0.00  0.00    +0.000 C 
ENDBRANCH  23  24
ENDBRANCH  22  23
ENDBRANCH   6  22
TORSDOF 6
ENDMDL
