MODEL 1
REMARK VINA RESULT:      -5.7      0.000      0.000
REMARK  Name = 
REMARK  5 active torsions:
REMARK  status: ('A' for Active; 'I' for Inactive)
REMARK    1  A    between atoms: C_1  and  C_2
REMARK    2  A    between atoms: C_2  and  C_3
REMARK    3  A    between atoms: C_2  and  C_4
REMARK    4  A    between atoms: C_2  and  C_5
REMARK    5  A    between atoms: C_13  and  C_14
REMARK                            x       y       z     vdW  Elec       q    Type
REMARK                         _______ _______ _______ _____ _____    ______ ____
ROOT
ATOM      1  C   UNL     1       1.504   8.443  19.765  0.00  0.00    +0.000 A 
ATOM      2  N   UNL     1       1.327   9.073  18.604  0.00  0.00    +0.000 NA
ATOM      3  S   UNL     1       2.383   8.391  17.522  0.00  0.00    +0.000 S 
ATOM      4  C   UNL     1       3.048   7.275  18.674  0.00  0.00    +0.000 A 
ATOM      5  N   UNL     1       4.056   6.393  18.414  0.00  0.00    +0.000 N 
ATOM      6  C   UNL     1       4.386   5.928  17.062  0.00  0.00    +0.000 C 
ATOM      7  C   UNL     1       4.130   4.420  16.890  0.00  0.00    +0.000 C 
ATOM      8  O   UNL     1       4.679   3.618  17.947  0.00  0.00    +0.000 OA
ATOM      9  C   UNL     1       4.250   4.051  19.262  0.00  0.00    +0.000 C 
ATOM     10  C   UNL     1       4.562   5.540  19.496  0.00  0.00    +0.000 C 
ATOM     11  N   UNL     1       2.487   7.459  19.855  0.00  0.00    +0.000 NA
ENDROOT
BRANCH   9  12
ATOM     12  C   UNL     1       2.796   3.691  19.481  0.00  0.00    +0.000 A 
ATOM     13  N   UNL     1       1.974   4.302  20.313  0.00  0.00    +0.000 NA
ATOM     14  C   UNL     1       0.717   3.744  20.244  0.00  0.00    +0.000 A 
ATOM     15  C   UNL     1       0.583   2.702  19.358  0.00  0.00    +0.000 A 
ATOM     16  S   UNL     1       2.081   2.396  18.589  0.00  0.00    +0.000 S 
ENDBRANCH   9  12
BRANCH   1  18
ATOM     17  C   UNL     1      -0.380   7.792  21.332  0.00  0.00    +0.000 C 
ATOM     18  C   UNL     1       0.694   8.849  20.987  0.00  0.00    +0.000 C 
ATOM     19  C   UNL     1      -0.011  10.189  20.704  0.00  0.00    +0.000 C 
ATOM     20  C   UNL     1       1.600   9.012  22.222  0.00  0.00    +0.000 C 
ENDBRANCH   1  18
TORSDOF 2
ENDMDL
MODEL 2
REMARK VINA RESULT:      -5.5      6.275      8.415
REMARK  Name = 
REMARK  5 active torsions:
REMARK  status: ('A' for Active; 'I' for Inactive)
REMARK    1  A    between atoms: C_1  and  C_2
REMARK    2  A    between atoms: C_2  and  C_3
REMARK    3  A    between atoms: C_2  and  C_4
REMARK    4  A    between atoms: C_2  and  C_5
REMARK    5  A    between atoms: C_13  and  C_14
REMARK                            x       y       z     vdW  Elec       q    Type
REMARK                         _______ _______ _______ _____ _____    ______ ____
ROOT
ATOM      1  C   UNL     1      -4.906  12.824  22.199  0.00  0.00    +0.000 A 
ATOM      2  N   UNL     1      -5.893  12.312  21.465  0.00  0.00    +0.000 NA
ATOM      3  S   UNL     1      -5.258  11.988  19.968  0.00  0.00    +0.000 S 
ATOM      4  C   UNL     1      -3.671  12.565  20.370  0.00  0.00    +0.000 A 
ATOM      5  N   UNL     1      -2.615  12.612  19.507  0.00  0.00    +0.000 N 
ATOM      6  C   UNL     1      -2.522  11.773  18.308  0.00  0.00    +0.000 C 
ATOM      7  C   UNL     1      -1.352  10.775  18.389  0.00  0.00    +0.000 C 
ATOM      8  O   UNL     1      -0.112  11.374  18.797  0.00  0.00    +0.000 OA
ATOM      9  C   UNL     1      -0.225  12.114  20.037  0.00  0.00    +0.000 C 
ATOM     10  C   UNL     1      -1.338  13.175  19.962  0.00  0.00    +0.000 C 
ATOM     11  N   UNL     1      -3.658  13.019  21.610  0.00  0.00    +0.000 NA
ENDROOT
BRANCH   9  12
ATOM     12  C   UNL     1      -0.371  11.158  21.203  0.00  0.00    +0.000 A 
ATOM     13  N   UNL     1      -0.929  11.447  22.363  0.00  0.00    +0.000 NA
ATOM     14  C   UNL     1      -0.925  10.343  23.187  0.00  0.00    +0.000 A 
ATOM     15  C   UNL     1      -0.358   9.211  22.652  0.00  0.00    +0.000 A 
ATOM     16  S   UNL     1       0.203   9.535  21.067  0.00  0.00    +0.000 S 
ENDBRANCH   9  12
BRANCH   1  18
ATOM     17  C   UNL     1      -4.260  12.490  24.628  0.00  0.00    +0.000 C 
ATOM     18  C   UNL     1      -5.165  13.254  23.635  0.00  0.00    +0.000 C 
ATOM     19  C   UNL     1      -6.635  12.967  23.992  0.00  0.00    +0.000 C 
ATOM     20  C   UNL     1      -4.891  14.759  23.820  0.00  0.00    +0.000 C 
ENDBRANCH   1  18
TORSDOF 2
ENDMDL
MODEL 3
REMARK VINA RESULT:      -5.5      6.058      8.413
REMARK  Name = 
REMARK  5 active torsions:
REMARK  status: ('A' for Active; 'I' for Inactive)
REMARK    1  A    between atoms: C_1  and  C_2
REMARK    2  A    between atoms: C_2  and  C_3
REMARK    3  A    between atoms: C_2  and  C_4
REMARK    4  A    between atoms: C_2  and  C_5
REMARK    5  A    between atoms: C_13  and  C_14
REMARK                            x       y       z     vdW  Elec       q    Type
REMARK                         _______ _______ _______ _____ _____    ______ ____
ROOT
ATOM      1  C   UNL     1      -4.911  12.730  22.081  0.00  0.00    +0.000 A 
ATOM      2  N   UNL     1      -5.933  12.234  21.384  0.00  0.00    +0.000 NA
ATOM      3  S   UNL     1      -5.356  11.888  19.868  0.00  0.00    +0.000 S 
ATOM      4  C   UNL     1      -3.744  12.435  20.213  0.00  0.00    +0.000 A 
ATOM      5  N   UNL     1      -2.718  12.455  19.314  0.00  0.00    +0.000 N 
ATOM      6  C   UNL     1      -2.683  11.606  18.118  0.00  0.00    +0.000 C 
ATOM      7  C   UNL     1      -1.532  10.585  18.167  0.00  0.00    +0.000 C 
ATOM      8  O   UNL     1      -0.266  11.160  18.528  0.00  0.00    +0.000 OA
ATOM      9  C   UNL     1      -0.322  11.910  19.767  0.00  0.00    +0.000 C 
ATOM     10  C   UNL     1      -1.415  12.993  19.722  0.00  0.00    +0.000 C 
ATOM     11  N   UNL     1      -3.680  12.897  21.448  0.00  0.00    +0.000 NA
ENDROOT
BRANCH   9  12
ATOM     12  C   UNL     1      -0.448  10.965  20.943  0.00  0.00    +0.000 A 
ATOM     13  N   UNL     1      -0.285   9.657  20.894  0.00  0.00    +0.000 NA
ATOM     14  C   UNL     1      -0.440   9.106  22.147  0.00  0.00    +0.000 A 
ATOM     15  C   UNL     1      -0.727   9.998  23.152  0.00  0.00    +0.000 A 
ATOM     16  S   UNL     1      -0.819  11.584  22.513  0.00  0.00    +0.000 S 
ENDBRANCH   9  12
BRANCH   1  18
ATOM     17  C   UNL     1      -4.954  14.704  23.671  0.00  0.00    +0.000 C 
ATOM     18  C   UNL     1      -5.112  13.175  23.522  0.00  0.00    +0.000 C 
ATOM     19  C   UNL     1      -4.065  12.484  24.415  0.00  0.00    +0.000 C 
ATOM     20  C   UNL     1      -6.520  12.802  24.024  0.00  0.00    +0.000 C 
ENDBRANCH   1  18
TORSDOF 2
ENDMDL
MODEL 4
REMARK VINA RESULT:      -5.3      7.515     10.615
REMARK  Name = 
REMARK  5 active torsions:
REMARK  status: ('A' for Active; 'I' for Inactive)
REMARK    1  A    between atoms: C_1  and  C_2
REMARK    2  A    between atoms: C_2  and  C_3
REMARK    3  A    between atoms: C_2  and  C_4
REMARK    4  A    between atoms: C_2  and  C_5
REMARK    5  A    between atoms: C_13  and  C_14
REMARK                            x       y       z     vdW  Elec       q    Type
REMARK                         _______ _______ _______ _____ _____    ______ ____
ROOT
ATOM      1  C   UNL     1      -2.060  12.032  20.482  0.00  0.00    +0.000 A 
ATOM      2  N   UNL     1      -1.393  11.611  21.557  0.00  0.00    +0.000 NA
ATOM      3  S   UNL     1      -2.277  12.075  22.881  0.00  0.00    +0.000 S 
ATOM      4  C   UNL     1      -3.524  12.840  21.945  0.00  0.00    +0.000 A 
ATOM      5  N   UNL     1      -4.602  13.494  22.467  0.00  0.00    +0.000 N 
ATOM      6  C   UNL     1      -5.112  13.246  23.819  0.00  0.00    +0.000 C 
ATOM      7  C   UNL     1      -6.526  12.637  23.802  0.00  0.00    +0.000 C 
ATOM      8  O   UNL     1      -7.440  13.328  22.936  0.00  0.00    +0.000 OA
ATOM      9  C   UNL     1      -6.939  13.467  21.584  0.00  0.00    +0.000 C 
ATOM     10  C   UNL     1      -5.557  14.143  21.561  0.00  0.00    +0.000 C 
ATOM     11  N   UNL     1      -3.235  12.759  20.659  0.00  0.00    +0.000 NA
ENDROOT
BRANCH   9  12
ATOM     12  C   UNL     1      -6.975  12.129  20.875  0.00  0.00    +0.000 A 
ATOM     13  N   UNL     1      -7.463  11.011  21.377  0.00  0.00    +0.000 NA
ATOM     14  C   UNL     1      -7.367   9.989  20.458  0.00  0.00    +0.000 A 
ATOM     15  C   UNL     1      -6.800  10.332  19.254  0.00  0.00    +0.000 A 
ATOM     16  S   UNL     1      -6.357  11.986  19.268  0.00  0.00    +0.000 S 
ENDBRANCH   9  12
BRANCH   1  18
ATOM     17  C   UNL     1      -0.512  10.594  19.079  0.00  0.00    +0.000 C 
ATOM     18  C   UNL     1      -1.500  11.782  19.089  0.00  0.00    +0.000 C 
ATOM     19  C   UNL     1      -0.756  13.043  18.610  0.00  0.00    +0.000 C 
ATOM     20  C   UNL     1      -2.627  11.458  18.090  0.00  0.00    +0.000 C 
ENDBRANCH   1  18
TORSDOF 2
ENDMDL
MODEL 5
REMARK VINA RESULT:      -5.2      6.126      8.147
REMARK  Name = 
REMARK  5 active torsions:
REMARK  status: ('A' for Active; 'I' for Inactive)
REMARK    1  A    between atoms: C_1  and  C_2
REMARK    2  A    between atoms: C_2  and  C_3
REMARK    3  A    between atoms: C_2  and  C_4
REMARK    4  A    between atoms: C_2  and  C_5
REMARK    5  A    between atoms: C_13  and  C_14
REMARK                            x       y       z     vdW  Elec       q    Type
REMARK                         _______ _______ _______ _____ _____    ______ ____
ROOT
ATOM      1  C   UNL     1      -4.364  13.050  22.153  0.00  0.00    +0.000 A 
ATOM      2  N   UNL     1      -5.290  12.695  21.262  0.00  0.00    +0.000 NA
ATOM      3  S   UNL     1      -4.505  12.475  19.818  0.00  0.00    +0.000 S 
ATOM      4  C   UNL     1      -2.941  12.881  20.455  0.00  0.00    +0.000 A 
ATOM      5  N   UNL     1      -1.790  12.931  19.724  0.00  0.00    +0.000 N 
ATOM      6  C   UNL     1      -1.612  12.212  18.458  0.00  0.00    +0.000 C 
ATOM      7  C   UNL     1      -0.530  11.122  18.559  0.00  0.00    +0.000 C 
ATOM      8  O   UNL     1       0.691  11.576  19.164  0.00  0.00    +0.000 OA
ATOM      9  C   UNL     1       0.481  12.193  20.458  0.00  0.00    +0.000 C 
ATOM     10  C   UNL     1      -0.541  13.341  20.377  0.00  0.00    +0.000 C 
ATOM     11  N   UNL     1      -3.045  13.205  21.730  0.00  0.00    +0.000 NA
ENDROOT
BRANCH   9  12
ATOM     12  C   UNL     1       0.134  11.140  21.488  0.00  0.00    +0.000 A 
ATOM     13  N   UNL     1      -0.451  11.368  22.648  0.00  0.00    +0.000 NA
ATOM     14  C   UNL     1      -0.649  10.187  23.328  0.00  0.00    +0.000 A 
ATOM     15  C   UNL     1      -0.207   9.056  22.685  0.00  0.00    +0.000 A 
ATOM     16  S   UNL     1       0.492   9.478  21.180  0.00  0.00    +0.000 S 
ENDBRANCH   9  12
BRANCH   1  18
ATOM     17  C   UNL     1      -6.294  13.301  23.777  0.00  0.00    +0.000 C 
ATOM     18  C   UNL     1      -4.762  13.352  23.590  0.00  0.00    +0.000 C 
ATOM     19  C   UNL     1      -4.269  14.763  23.966  0.00  0.00    +0.000 C 
ATOM     20  C   UNL     1      -4.140  12.331  24.562  0.00  0.00    +0.000 C 
ENDBRANCH   1  18
TORSDOF 2
ENDMDL
MODEL 6
REMARK VINA RESULT:      -5.2      2.460      5.735
REMARK  Name = 
REMARK  5 active torsions:
REMARK  status: ('A' for Active; 'I' for Inactive)
REMARK    1  A    between atoms: C_1  and  C_2
REMARK    2  A    between atoms: C_2  and  C_3
REMARK    3  A    between atoms: C_2  and  C_4
REMARK    4  A    between atoms: C_2  and  C_5
REMARK    5  A    between atoms: C_13  and  C_14
REMARK                            x       y       z     vdW  Elec       q    Type
REMARK                         _______ _______ _______ _____ _____    ______ ____
ROOT
ATOM      1  C   UNL     1       5.640   4.442  17.220  0.00  0.00    +0.000 A 
ATOM      2  N   UNL     1       5.248   3.657  16.217  0.00  0.00    +0.000 NA
ATOM      3  S   UNL     1       3.928   2.812  16.757  0.00  0.00    +0.000 S 
ATOM      4  C   UNL     1       3.945   3.537  18.336  0.00  0.00    +0.000 A 
ATOM      5  N   UNL     1       3.082   3.227  19.346  0.00  0.00    +0.000 N 
ATOM      6  C   UNL     1       1.765   2.623  19.119  0.00  0.00    +0.000 C 
ATOM      7  C   UNL     1       0.618   3.563  19.533  0.00  0.00    +0.000 C 
ATOM      8  O   UNL     1       0.792   4.145  20.834  0.00  0.00    +0.000 OA
ATOM      9  C   UNL     1       2.067   4.815  20.985  0.00  0.00    +0.000 C 
ATOM     10  C   UNL     1       3.241   3.877  20.652  0.00  0.00    +0.000 C 
ATOM     11  N   UNL     1       4.962   4.373  18.436  0.00  0.00    +0.000 NA
ENDROOT
BRANCH   9  12
ATOM     12  C   UNL     1       2.075   6.106  20.194  0.00  0.00    +0.000 A 
ATOM     13  N   UNL     1       2.531   6.247  18.964  0.00  0.00    +0.000 NA
ATOM     14  C   UNL     1       2.360   7.543  18.532  0.00  0.00    +0.000 A 
ATOM     15  C   UNL     1       1.773   8.393  19.439  0.00  0.00    +0.000 A 
ATOM     16  S   UNL     1       1.433   7.551  20.891  0.00  0.00    +0.000 S 
ENDBRANCH   9  12
BRANCH   1  18
ATOM     17  C   UNL     1       6.474   6.836  17.167  0.00  0.00    +0.000 C 
ATOM     18  C   UNL     1       6.855   5.343  17.057  0.00  0.00    +0.000 C 
ATOM     19  C   UNL     1       7.483   5.098  15.672  0.00  0.00    +0.000 C 
ATOM     20  C   UNL     1       7.910   5.051  18.141  0.00  0.00    +0.000 C 
ENDBRANCH   1  18
TORSDOF 2
ENDMDL
MODEL 7
REMARK VINA RESULT:      -5.2      3.287      5.259
REMARK  Name = 
REMARK  5 active torsions:
REMARK  status: ('A' for Active; 'I' for Inactive)
REMARK    1  A    between atoms: C_1  and  C_2
REMARK    2  A    between atoms: C_2  and  C_3
REMARK    3  A    between atoms: C_2  and  C_4
REMARK    4  A    between atoms: C_2  and  C_5
REMARK    5  A    between atoms: C_13  and  C_14
REMARK                            x       y       z     vdW  Elec       q    Type
REMARK                         _______ _______ _______ _____ _____    ______ ____
ROOT
ATOM      1  C   UNL     1       2.847   3.430  19.049  0.00  0.00    +0.000 A 
ATOM      2  N   UNL     1       2.854   2.159  18.647  0.00  0.00    +0.000 NA
ATOM      3  S   UNL     1       3.674   2.116  17.207  0.00  0.00    +0.000 S 
ATOM      4  C   UNL     1       3.979   3.826  17.178  0.00  0.00    +0.000 A 
ATOM      5  N   UNL     1       4.622   4.488  16.172  0.00  0.00    +0.000 N 
ATOM      6  C   UNL     1       5.543   3.829  15.240  0.00  0.00    +0.000 C 
ATOM      7  C   UNL     1       6.986   4.344  15.391  0.00  0.00    +0.000 C 
ATOM      8  O   UNL     1       7.086   5.776  15.418  0.00  0.00    +0.000 OA
ATOM      9  C   UNL     1       6.232   6.381  16.419  0.00  0.00    +0.000 C 
ATOM     10  C   UNL     1       4.766   5.946  16.249  0.00  0.00    +0.000 C 
ATOM     11  N   UNL     1       3.430   4.399  18.233  0.00  0.00    +0.000 NA
ENDROOT
BRANCH   9  12
ATOM     12  C   UNL     1       6.788   6.122  17.804  0.00  0.00    +0.000 A 
ATOM     13  N   UNL     1       6.355   5.198  18.641  0.00  0.00    +0.000 NA
ATOM     14  C   UNL     1       7.100   5.213  19.800  0.00  0.00    +0.000 A 
ATOM     15  C   UNL     1       8.100   6.155  19.846  0.00  0.00    +0.000 A 
ATOM     16  S   UNL     1       8.108   7.066  18.397  0.00  0.00    +0.000 S 
ENDBRANCH   9  12
BRANCH   1  18
ATOM     17  C   UNL     1       0.614   3.666  20.226  0.00  0.00    +0.000 C 
ATOM     18  C   UNL     1       2.147   3.819  20.342  0.00  0.00    +0.000 C 
ATOM     19  C   UNL     1       2.469   5.290  20.669  0.00  0.00    +0.000 C 
ATOM     20  C   UNL     1       2.615   2.934  21.513  0.00  0.00    +0.000 C 
ENDBRANCH   1  18
TORSDOF 2
ENDMDL
MODEL 8
REMARK VINA RESULT:      -5.2      5.897      8.064
REMARK  Name = 
REMARK  5 active torsions:
REMARK  status: ('A' for Active; 'I' for Inactive)
REMARK    1  A    between atoms: C_1  and  C_2
REMARK    2  A    between atoms: C_2  and  C_3
REMARK    3  A    between atoms: C_2  and  C_4
REMARK    4  A    between atoms: C_2  and  C_5
REMARK    5  A    between atoms: C_13  and  C_14
REMARK                            x       y       z     vdW  Elec       q    Type
REMARK                         _______ _______ _______ _____ _____    ______ ____
ROOT
ATOM      1  C   UNL     1      -4.731  12.788  21.504  0.00  0.00    +0.000 A 
ATOM      2  N   UNL     1      -5.705  12.288  20.743  0.00  0.00    +0.000 NA
ATOM      3  S   UNL     1      -5.007  11.838  19.307  0.00  0.00    +0.000 S 
ATOM      4  C   UNL     1      -3.413  12.349  19.769  0.00  0.00    +0.000 A 
ATOM      5  N   UNL     1      -2.310  12.285  18.969  0.00  0.00    +0.000 N 
ATOM      6  C   UNL     1      -2.200  11.369  17.828  0.00  0.00    +0.000 C 
ATOM      7  C   UNL     1      -1.098  10.315  18.037  0.00  0.00    +0.000 C 
ATOM      8  O   UNL     1       0.151  10.867  18.482  0.00  0.00    +0.000 OA
ATOM      9  C   UNL     1       0.012  11.686  19.668  0.00  0.00    +0.000 C 
ATOM     10  C   UNL     1      -1.030  12.801  19.467  0.00  0.00    +0.000 C 
ATOM     11  N   UNL     1      -3.443  12.877  20.979  0.00  0.00    +0.000 NA
ENDROOT
BRANCH   9  12
ATOM     12  C   UNL     1      -0.255  10.814  20.877  0.00  0.00    +0.000 A 
ATOM     13  N   UNL     1      -0.183   9.497  20.900  0.00  0.00    +0.000 NA
ATOM     14  C   UNL     1      -0.456   9.022  22.164  0.00  0.00    +0.000 A 
ATOM     15  C   UNL     1      -0.743   9.983  23.104  0.00  0.00    +0.000 A 
ATOM     16  S   UNL     1      -0.681  11.536  22.388  0.00  0.00    +0.000 S 
ENDBRANCH   9  12
BRANCH   1  18
ATOM     17  C   UNL     1      -6.463  12.913  23.351  0.00  0.00    +0.000 C 
ATOM     18  C   UNL     1      -5.044  13.319  22.895  0.00  0.00    +0.000 C 
ATOM     19  C   UNL     1      -4.955  14.857  22.881  0.00  0.00    +0.000 C 
ATOM     20  C   UNL     1      -4.047  12.771  23.933  0.00  0.00    +0.000 C 
ENDBRANCH   1  18
TORSDOF 2
ENDMDL
MODEL 9
REMARK VINA RESULT:      -5.2      2.548      5.533
REMARK  Name = 
REMARK  5 active torsions:
REMARK  status: ('A' for Active; 'I' for Inactive)
REMARK    1  A    between atoms: C_1  and  C_2
REMARK    2  A    between atoms: C_2  and  C_3
REMARK    3  A    between atoms: C_2  and  C_4
REMARK    4  A    between atoms: C_2  and  C_5
REMARK    5  A    between atoms: C_13  and  C_14
REMARK                            x       y       z     vdW  Elec       q    Type
REMARK                         _______ _______ _______ _____ _____    ______ ____
ROOT
ATOM      1  C   UNL     1       5.294   5.414  16.085  0.00  0.00    +0.000 A 
ATOM      2  N   UNL     1       5.817   6.574  16.482  0.00  0.00    +0.000 NA
ATOM      3  S   UNL     1       4.770   7.216  17.595  0.00  0.00    +0.000 S 
ATOM      4  C   UNL     1       3.641   5.900  17.488  0.00  0.00    +0.000 A 
ATOM      5  N   UNL     1       2.462   5.825  18.170  0.00  0.00    +0.000 N 
ATOM      6  C   UNL     1       2.203   6.569  19.408  0.00  0.00    +0.000 C 
ATOM      7  C   UNL     1       2.014   5.634  20.616  0.00  0.00    +0.000 C 
ATOM      8  O   UNL     1       1.103   4.551  20.369  0.00  0.00    +0.000 OA
ATOM      9  C   UNL     1       1.451   3.782  19.191  0.00  0.00    +0.000 C 
ATOM     10  C   UNL     1       1.573   4.679  17.947  0.00  0.00    +0.000 C 
ATOM     11  N   UNL     1       4.058   5.022  16.594  0.00  0.00    +0.000 NA
ENDROOT
BRANCH   9  12
ATOM     12  C   UNL     1       2.682   2.943  19.461  0.00  0.00    +0.000 A 
ATOM     13  N   UNL     1       3.351   2.909  20.598  0.00  0.00    +0.000 NA
ATOM     14  C   UNL     1       4.399   2.019  20.513  0.00  0.00    +0.000 A 
ATOM     15  C   UNL     1       4.530   1.377  19.305  0.00  0.00    +0.000 A 
ATOM     16  S   UNL     1       3.311   1.908  18.228  0.00  0.00    +0.000 S 
ENDBRANCH   9  12
BRANCH   1  18
ATOM     17  C   UNL     1       5.166   4.440  13.747  0.00  0.00    +0.000 C 
ATOM     18  C   UNL     1       6.007   4.572  15.037  0.00  0.00    +0.000 C 
ATOM     19  C   UNL     1       6.258   3.163  15.605  0.00  0.00    +0.000 C 
ATOM     20  C   UNL     1       7.358   5.202  14.648  0.00  0.00    +0.000 C 
ENDBRANCH   1  18
TORSDOF 2
ENDMDL
