MODEL 1
REMARK VINA RESULT:      -7.7      0.000      0.000
REMARK  Name = 
REMARK  5 active torsions:
REMARK  status: ('A' for Active; 'I' for Inactive)
REMARK    1  A    between atoms: C_1  and  C_2
REMARK    2  A    between atoms: C_2  and  C_3
REMARK    3  A    between atoms: C_2  and  C_4
REMARK    4  A    between atoms: N_13  and  C_14
REMARK    5  A    between atoms: C_14  and  C_15
REMARK                            x       y       z     vdW  Elec       q    Type
REMARK                         _______ _______ _______ _____ _____    ______ ____
ROOT
ATOM      1  C   UNL     1       2.706   3.760  19.417  0.00  0.00    +0.000 A 
ATOM      2  N   UNL     1       2.019   4.834  19.185  0.00  0.00    +0.000 NA
ATOM      3  C   UNL     1       2.688   5.947  18.645  0.00  0.00    +0.000 A 
ATOM      4  C   UNL     1       1.957   7.131  18.501  0.00  0.00    +0.000 A 
ATOM      5  C   UNL     1       2.532   8.242  17.897  0.00  0.00    +0.000 A 
ATOM      6 CL   UNL     1       1.639   9.707  17.766  0.00  0.00    +0.000 Cl
ATOM      7  C   UNL     1       3.826   8.176  17.388  0.00  0.00    +0.000 A 
ATOM      8  C   UNL     1       4.567   6.998  17.527  0.00  0.00    +0.000 A 
ATOM      9  C   UNL     1       4.021   5.882  18.184  0.00  0.00    +0.000 A 
ATOM     10  N   UNL     1       4.782   4.708  18.463  0.00  0.00    +0.000 N 
ATOM     11  C   UNL     1       4.223   3.708  19.252  0.00  0.00    +0.000 A 
ATOM     12  O   UNL     1       4.842   2.791  19.776  0.00  0.00    +0.000 OA
ENDROOT
BRANCH   1  14
ATOM     13  C   UNL     1       1.597   2.591  21.331  0.00  0.00    +0.000 C 
ATOM     14  C   UNL     1       2.024   2.473  19.873  0.00  0.00    +0.000 C 
ATOM     15  C   UNL     1       0.829   2.109  18.994  0.00  0.00    +0.000 C 
ENDBRANCH   1  14
BRANCH  10  16
ATOM     16  C   UNL     1       6.148   4.521  17.974  0.00  0.00    +0.000 C 
BRANCH  16  17
ATOM     17  C   UNL     1       6.203   4.491  16.457  0.00  0.00    +0.000 A 
ATOM     18  C   UNL     1       5.237   3.799  15.712  0.00  0.00    +0.000 A 
ATOM     19  C   UNL     1       5.366   3.671  14.327  0.00  0.00    +0.000 A 
ATOM     20  C   UNL     1       6.449   4.250  13.668  0.00  0.00    +0.000 A 
ATOM     21  C   UNL     1       7.378   4.999  14.386  0.00  0.00    +0.000 A 
ATOM     22  C   UNL     1       7.249   5.130  15.770  0.00  0.00    +0.000 A 
ENDBRANCH  16  17
ENDBRANCH  10  16
TORSDOF 3
ENDMDL
MODEL 2
REMARK VINA RESULT:      -7.7      0.115      1.034
REMARK  Name = 
REMARK  5 active torsions:
REMARK  status: ('A' for Active; 'I' for Inactive)
REMARK    1  A    between atoms: C_1  and  C_2
REMARK    2  A    between atoms: C_2  and  C_3
REMARK    3  A    between atoms: C_2  and  C_4
REMARK    4  A    between atoms: N_13  and  C_14
REMARK    5  A    between atoms: C_14  and  C_15
REMARK                            x       y       z     vdW  Elec       q    Type
REMARK                         _______ _______ _______ _____ _____    ______ ____
ROOT
ATOM      1  C   UNL     1       2.774   3.727  19.440  0.00  0.00    +0.000 A 
ATOM      2  N   UNL     1       2.080   4.791  19.185  0.00  0.00    +0.000 NA
ATOM      3  C   UNL     1       2.745   5.905  18.646  0.00  0.00    +0.000 A 
ATOM      4  C   UNL     1       2.004   7.080  18.477  0.00  0.00    +0.000 A 
ATOM      5  C   UNL     1       2.577   8.191  17.872  0.00  0.00    +0.000 A 
ATOM      6 CL   UNL     1       1.670   9.644  17.710  0.00  0.00    +0.000 Cl
ATOM      7  C   UNL     1       3.881   8.134  17.387  0.00  0.00    +0.000 A 
ATOM      8  C   UNL     1       4.632   6.966  17.550  0.00  0.00    +0.000 A 
ATOM      9  C   UNL     1       4.087   5.851  18.210  0.00  0.00    +0.000 A 
ATOM     10  N   UNL     1       4.857   4.688  18.514  0.00  0.00    +0.000 N 
ATOM     11  C   UNL     1       4.294   3.690  19.303  0.00  0.00    +0.000 A 
ATOM     12  O   UNL     1       4.914   2.786  19.847  0.00  0.00    +0.000 OA
ENDROOT
BRANCH   1  14
ATOM     13  C   UNL     1       1.573   2.592  21.319  0.00  0.00    +0.000 C 
ATOM     14  C   UNL     1       2.099   2.436  19.897  0.00  0.00    +0.000 C 
ATOM     15  C   UNL     1       0.975   2.007  18.956  0.00  0.00    +0.000 C 
ENDBRANCH   1  14
BRANCH  10  16
ATOM     16  C   UNL     1       6.233   4.512  18.051  0.00  0.00    +0.000 C 
BRANCH  16  17
ATOM     17  C   UNL     1       6.307   4.394  16.539  0.00  0.00    +0.000 A 
ATOM     18  C   UNL     1       7.300   5.066  15.810  0.00  0.00    +0.000 A 
ATOM     19  C   UNL     1       7.284   5.054  14.413  0.00  0.00    +0.000 A 
ATOM     20  C   UNL     1       6.291   4.356  13.729  0.00  0.00    +0.000 A 
ATOM     21  C   UNL     1       5.340   3.628  14.441  0.00  0.00    +0.000 A 
ATOM     22  C   UNL     1       5.356   3.636  15.837  0.00  0.00    +0.000 A 
ENDBRANCH  16  17
ENDBRANCH  10  16
TORSDOF 3
ENDMDL
MODEL 3
REMARK VINA RESULT:      -7.5      1.916      2.613
REMARK  Name = 
REMARK  5 active torsions:
REMARK  status: ('A' for Active; 'I' for Inactive)
REMARK    1  A    between atoms: C_1  and  C_2
REMARK    2  A    between atoms: C_2  and  C_3
REMARK    3  A    between atoms: C_2  and  C_4
REMARK    4  A    between atoms: N_13  and  C_14
REMARK    5  A    between atoms: C_14  and  C_15
REMARK                            x       y       z     vdW  Elec       q    Type
REMARK                         _______ _______ _______ _____ _____    ______ ____
ROOT
ATOM      1  C   UNL     1       2.419   4.046  20.008  0.00  0.00    +0.000 A 
ATOM      2  N   UNL     1       1.703   5.062  20.376  0.00  0.00    +0.000 NA
ATOM      3  C   UNL     1       1.991   6.317  19.812  0.00  0.00    +0.000 A 
ATOM      4  C   UNL     1       1.281   7.421  20.298  0.00  0.00    +0.000 A 
ATOM      5  C   UNL     1       1.455   8.675  19.726  0.00  0.00    +0.000 A 
ATOM      6 CL   UNL     1       0.612  10.033  20.361  0.00  0.00    +0.000 Cl
ATOM      7  C   UNL     1       2.304   8.838  18.634  0.00  0.00    +0.000 A 
ATOM      8  C   UNL     1       3.018   7.743  18.139  0.00  0.00    +0.000 A 
ATOM      9  C   UNL     1       2.897   6.479  18.741  0.00  0.00    +0.000 A 
ATOM     10  N   UNL     1       3.701   5.365  18.354  0.00  0.00    +0.000 N 
ATOM     11  C   UNL     1       3.635   4.190  19.096  0.00  0.00    +0.000 A 
ATOM     12  O   UNL     1       4.442   3.272  19.040  0.00  0.00    +0.000 OA
ENDROOT
BRANCH   1  14
ATOM     13  C   UNL     1       1.391   2.677  21.834  0.00  0.00    +0.000 C 
ATOM     14  C   UNL     1       2.079   2.633  20.474  0.00  0.00    +0.000 C 
ATOM     15  C   UNL     1       1.214   1.884  19.463  0.00  0.00    +0.000 C 
ENDBRANCH   1  14
BRANCH  10  16
ATOM     16  C   UNL     1       4.622   5.416  17.219  0.00  0.00    +0.000 C 
BRANCH  16  17
ATOM     17  C   UNL     1       5.948   6.051  17.598  0.00  0.00    +0.000 A 
ATOM     18  C   UNL     1       6.763   5.485  18.589  0.00  0.00    +0.000 A 
ATOM     19  C   UNL     1       7.917   6.144  19.020  0.00  0.00    +0.000 A 
ATOM     20  C   UNL     1       8.282   7.363  18.453  0.00  0.00    +0.000 A 
ATOM     21  C   UNL     1       7.519   7.902  17.420  0.00  0.00    +0.000 A 
ATOM     22  C   UNL     1       6.367   7.244  16.986  0.00  0.00    +0.000 A 
ENDBRANCH  16  17
ENDBRANCH  10  16
TORSDOF 3
ENDMDL
MODEL 4
REMARK VINA RESULT:      -7.2      3.059      4.964
REMARK  Name = 
REMARK  5 active torsions:
REMARK  status: ('A' for Active; 'I' for Inactive)
REMARK    1  A    between atoms: C_1  and  C_2
REMARK    2  A    between atoms: C_2  and  C_3
REMARK    3  A    between atoms: C_2  and  C_4
REMARK    4  A    between atoms: N_13  and  C_14
REMARK    5  A    between atoms: C_14  and  C_15
REMARK                            x       y       z     vdW  Elec       q    Type
REMARK                         _______ _______ _______ _____ _____    ______ ____
ROOT
ATOM      1  C   UNL     1       2.041   7.795  19.206  0.00  0.00    +0.000 A 
ATOM      2  N   UNL     1       1.672   6.948  20.114  0.00  0.00    +0.000 NA
ATOM      3  C   UNL     1       2.129   5.623  20.012  0.00  0.00    +0.000 A 
ATOM      4  C   UNL     1       1.636   4.697  20.939  0.00  0.00    +0.000 A 
ATOM      5  C   UNL     1       2.110   3.392  20.948  0.00  0.00    +0.000 A 
ATOM      6 CL   UNL     1       1.465   2.251  22.062  0.00  0.00    +0.000 Cl
ATOM      7  C   UNL     1       3.113   3.001  20.064  0.00  0.00    +0.000 A 
ATOM      8  C   UNL     1       3.613   3.917  19.133  0.00  0.00    +0.000 A 
ATOM      9  C   UNL     1       3.105   5.226  19.072  0.00  0.00    +0.000 A 
ATOM     10  N   UNL     1       3.492   6.152  18.058  0.00  0.00    +0.000 N 
ATOM     11  C   UNL     1       2.834   7.375  17.970  0.00  0.00    +0.000 A 
ATOM     12  O   UNL     1       2.879   8.135  17.011  0.00  0.00    +0.000 OA
ENDROOT
BRANCH   1  14
ATOM     13  C   UNL     1       0.755   9.692  18.199  0.00  0.00    +0.000 C 
ATOM     14  C   UNL     1       1.696   9.278  19.324  0.00  0.00    +0.000 C 
ATOM     15  C   UNL     1       1.090   9.623  20.683  0.00  0.00    +0.000 C 
ENDBRANCH   1  14
BRANCH  10  16
ATOM     16  C   UNL     1       4.538   5.857  17.080  0.00  0.00    +0.000 C 
BRANCH  16  17
ATOM     17  C   UNL     1       5.907   6.289  17.574  0.00  0.00    +0.000 A 
ATOM     18  C   UNL     1       6.602   5.533  18.529  0.00  0.00    +0.000 A 
ATOM     19  C   UNL     1       7.801   6.003  19.071  0.00  0.00    +0.000 A 
ATOM     20  C   UNL     1       8.330   7.221  18.650  0.00  0.00    +0.000 A 
ATOM     21  C   UNL     1       7.686   7.949  17.652  0.00  0.00    +0.000 A 
ATOM     22  C   UNL     1       6.489   7.480  17.108  0.00  0.00    +0.000 A 
ENDBRANCH  16  17
ENDBRANCH  10  16
TORSDOF 3
ENDMDL
MODEL 5
REMARK VINA RESULT:      -7.1      2.050      2.759
REMARK  Name = 
REMARK  5 active torsions:
REMARK  status: ('A' for Active; 'I' for Inactive)
REMARK    1  A    between atoms: C_1  and  C_2
REMARK    2  A    between atoms: C_2  and  C_3
REMARK    3  A    between atoms: C_2  and  C_4
REMARK    4  A    between atoms: N_13  and  C_14
REMARK    5  A    between atoms: C_14  and  C_15
REMARK                            x       y       z     vdW  Elec       q    Type
REMARK                         _______ _______ _______ _____ _____    ______ ____
ROOT
ATOM      1  C   UNL     1       2.281   3.983  20.036  0.00  0.00    +0.000 A 
ATOM      2  N   UNL     1       1.557   4.965  20.472  0.00  0.00    +0.000 NA
ATOM      3  C   UNL     1       1.827   6.256  19.987  0.00  0.00    +0.000 A 
ATOM      4  C   UNL     1       1.109   7.319  20.547  0.00  0.00    +0.000 A 
ATOM      5  C   UNL     1       1.266   8.609  20.055  0.00  0.00    +0.000 A 
ATOM      6 CL   UNL     1       0.413   9.914  20.780  0.00  0.00    +0.000 Cl
ATOM      7  C   UNL     1       2.105   8.851  18.970  0.00  0.00    +0.000 A 
ATOM      8  C   UNL     1       2.828   7.797  18.402  0.00  0.00    +0.000 A 
ATOM      9  C   UNL     1       2.724   6.496  18.923  0.00  0.00    +0.000 A 
ATOM     10  N   UNL     1       3.538   5.419  18.461  0.00  0.00    +0.000 N 
ATOM     11  C   UNL     1       3.489   4.198  19.128  0.00  0.00    +0.000 A 
ATOM     12  O   UNL     1       4.306   3.294  19.007  0.00  0.00    +0.000 OA
ENDROOT
BRANCH   1  14
ATOM     13  C   UNL     1       1.417   2.474  21.836  0.00  0.00    +0.000 C 
ATOM     14  C   UNL     1       1.959   2.539  20.413  0.00  0.00    +0.000 C 
ATOM     15  C   UNL     1       0.979   1.892  19.438  0.00  0.00    +0.000 C 
ENDBRANCH   1  14
BRANCH  10  16
ATOM     16  C   UNL     1       4.450   5.551  17.326  0.00  0.00    +0.000 C 
BRANCH  16  17
ATOM     17  C   UNL     1       5.766   6.189  17.734  0.00  0.00    +0.000 A 
ATOM     18  C   UNL     1       6.210   7.377  17.134  0.00  0.00    +0.000 A 
ATOM     19  C   UNL     1       7.478   7.888  17.424  0.00  0.00    +0.000 A 
ATOM     20  C   UNL     1       8.308   7.230  18.330  0.00  0.00    +0.000 A 
ATOM     21  C   UNL     1       7.852   6.088  18.984  0.00  0.00    +0.000 A 
ATOM     22  C   UNL     1       6.585   5.578  18.698  0.00  0.00    +0.000 A 
ENDBRANCH  16  17
ENDBRANCH  10  16
TORSDOF 3
ENDMDL
MODEL 6
REMARK VINA RESULT:      -7.0      2.039      2.783
REMARK  Name = 
REMARK  5 active torsions:
REMARK  status: ('A' for Active; 'I' for Inactive)
REMARK    1  A    between atoms: C_1  and  C_2
REMARK    2  A    between atoms: C_2  and  C_3
REMARK    3  A    between atoms: C_2  and  C_4
REMARK    4  A    between atoms: N_13  and  C_14
REMARK    5  A    between atoms: C_14  and  C_15
REMARK                            x       y       z     vdW  Elec       q    Type
REMARK                         _______ _______ _______ _____ _____    ______ ____
ROOT
ATOM      1  C   UNL     1       1.919   4.809  20.307  0.00  0.00    +0.000 A 
ATOM      2  N   UNL     1       1.326   5.944  20.509  0.00  0.00    +0.000 NA
ATOM      3  C   UNL     1       1.761   7.060  19.774  0.00  0.00    +0.000 A 
ATOM      4  C   UNL     1       1.184   8.298  20.079  0.00  0.00    +0.000 A 
ATOM      5  C   UNL     1       1.506   9.426  19.335  0.00  0.00    +0.000 A 
ATOM      6 CL   UNL     1       0.826  10.951  19.749  0.00  0.00    +0.000 Cl
ATOM      7  C   UNL     1       2.372   9.328  18.249  0.00  0.00    +0.000 A 
ATOM      8  C   UNL     1       2.955   8.097  17.933  0.00  0.00    +0.000 A 
ATOM      9  C   UNL     1       2.684   6.957  18.710  0.00  0.00    +0.000 A 
ATOM     10  N   UNL     1       3.353   5.714  18.506  0.00  0.00    +0.000 N 
ATOM     11  C   UNL     1       3.147   4.676  19.409  0.00  0.00    +0.000 A 
ATOM     12  O   UNL     1       3.841   3.672  19.504  0.00  0.00    +0.000 OA
ENDROOT
BRANCH   1  14
ATOM     13  C   UNL     1       0.862   2.575  19.913  0.00  0.00    +0.000 C 
ATOM     14  C   UNL     1       1.414   3.528  20.967  0.00  0.00    +0.000 C 
ATOM     15  C   UNL     1       2.496   2.840  21.796  0.00  0.00    +0.000 C 
ENDBRANCH   1  14
BRANCH  10  16
ATOM     16  C   UNL     1       4.278   5.490  17.394  0.00  0.00    +0.000 C 
BRANCH  16  17
ATOM     17  C   UNL     1       5.682   5.961  17.728  0.00  0.00    +0.000 A 
ATOM     18  C   UNL     1       6.439   5.327  18.724  0.00  0.00    +0.000 A 
ATOM     19  C   UNL     1       7.677   5.845  19.112  0.00  0.00    +0.000 A 
ATOM     20  C   UNL     1       8.183   6.988  18.496  0.00  0.00    +0.000 A 
ATOM     21  C   UNL     1       7.473   7.587  17.458  0.00  0.00    +0.000 A 
ATOM     22  C   UNL     1       6.237   7.070  17.067  0.00  0.00    +0.000 A 
ENDBRANCH  16  17
ENDBRANCH  10  16
TORSDOF 3
ENDMDL
MODEL 7
REMARK VINA RESULT:      -6.9      3.110      5.032
REMARK  Name = 
REMARK  5 active torsions:
REMARK  status: ('A' for Active; 'I' for Inactive)
REMARK    1  A    between atoms: C_1  and  C_2
REMARK    2  A    between atoms: C_2  and  C_3
REMARK    3  A    between atoms: C_2  and  C_4
REMARK    4  A    between atoms: N_13  and  C_14
REMARK    5  A    between atoms: C_14  and  C_15
REMARK                            x       y       z     vdW  Elec       q    Type
REMARK                         _______ _______ _______ _____ _____    ______ ____
ROOT
ATOM      1  C   UNL     1       1.923   7.841  19.228  0.00  0.00    +0.000 A 
ATOM      2  N   UNL     1       1.547   6.981  20.121  0.00  0.00    +0.000 NA
ATOM      3  C   UNL     1       2.041   5.668  20.029  0.00  0.00    +0.000 A 
ATOM      4  C   UNL     1       1.544   4.726  20.937  0.00  0.00    +0.000 A 
ATOM      5  C   UNL     1       2.051   3.433  20.956  0.00  0.00    +0.000 A 
ATOM      6 CL   UNL     1       1.400   2.272  22.045  0.00  0.00    +0.000 Cl
ATOM      7  C   UNL     1       3.091   3.072  20.103  0.00  0.00    +0.000 A 
ATOM      8  C   UNL     1       3.596   4.004  19.191  0.00  0.00    +0.000 A 
ATOM      9  C   UNL     1       3.057   5.300  19.120  0.00  0.00    +0.000 A 
ATOM     10  N   UNL     1       3.451   6.240  18.121  0.00  0.00    +0.000 N 
ATOM     11  C   UNL     1       2.765   7.446  18.017  0.00  0.00    +0.000 A 
ATOM     12  O   UNL     1       2.822   8.211  17.063  0.00  0.00    +0.000 OA
ENDROOT
BRANCH   1  14
ATOM     13  C   UNL     1       0.546   9.684  18.243  0.00  0.00    +0.000 C 
ATOM     14  C   UNL     1       1.537   9.313  19.340  0.00  0.00    +0.000 C 
ATOM     15  C   UNL     1       0.966   9.657  20.714  0.00  0.00    +0.000 C 
ENDBRANCH   1  14
BRANCH  10  16
ATOM     16  C   UNL     1       4.536   5.977  17.176  0.00  0.00    +0.000 C 
BRANCH  16  17
ATOM     17  C   UNL     1       5.873   6.466  17.703  0.00  0.00    +0.000 A 
ATOM     18  C   UNL     1       6.434   7.667  17.246  0.00  0.00    +0.000 A 
ATOM     19  C   UNL     1       7.720   8.045  17.641  0.00  0.00    +0.000 A 
ATOM     20  C   UNL     1       8.450   7.240  18.513  0.00  0.00    +0.000 A 
ATOM     21  C   UNL     1       7.878   6.080  19.028  0.00  0.00    +0.000 A 
ATOM     22  C   UNL     1       6.592   5.701  18.637  0.00  0.00    +0.000 A 
ENDBRANCH  16  17
ENDBRANCH  10  16
TORSDOF 3
ENDMDL
MODEL 8
REMARK VINA RESULT:      -6.9      2.698      6.088
REMARK  Name = 
REMARK  5 active torsions:
REMARK  status: ('A' for Active; 'I' for Inactive)
REMARK    1  A    between atoms: C_1  and  C_2
REMARK    2  A    between atoms: C_2  and  C_3
REMARK    3  A    between atoms: C_2  and  C_4
REMARK    4  A    between atoms: N_13  and  C_14
REMARK    5  A    between atoms: C_14  and  C_15
REMARK                            x       y       z     vdW  Elec       q    Type
REMARK                         _______ _______ _______ _____ _____    ______ ____
ROOT
ATOM      1  C   UNL     1       7.010   5.417  17.879  0.00  0.00    +0.000 A 
ATOM      2  N   UNL     1       7.455   5.545  16.669  0.00  0.00    +0.000 NA
ATOM      3  C   UNL     1       6.775   4.878  15.636  0.00  0.00    +0.000 A 
ATOM      4  C   UNL     1       7.330   4.941  14.352  0.00  0.00    +0.000 A 
ATOM      5  C   UNL     1       6.665   4.375  13.272  0.00  0.00    +0.000 A 
ATOM      6 CL   UNL     1       7.378   4.418  11.707  0.00  0.00    +0.000 Cl
ATOM      7  C   UNL     1       5.419   3.780  13.445  0.00  0.00    +0.000 A 
ATOM      8  C   UNL     1       4.854   3.711  14.723  0.00  0.00    +0.000 A 
ATOM      9  C   UNL     1       5.538   4.228  15.837  0.00  0.00    +0.000 A 
ATOM     10  N   UNL     1       5.062   4.065  17.172  0.00  0.00    +0.000 N 
ATOM     11  C   UNL     1       5.867   4.468  18.232  0.00  0.00    +0.000 A 
ATOM     12  O   UNL     1       5.703   4.153  19.404  0.00  0.00    +0.000 OA
ENDROOT
BRANCH   1  14
ATOM     13  C   UNL     1       8.594   5.355  19.815  0.00  0.00    +0.000 C 
ATOM     14  C   UNL     1       7.613   6.217  19.030  0.00  0.00    +0.000 C 
ATOM     15  C   UNL     1       8.293   7.498  18.549  0.00  0.00    +0.000 C 
ENDBRANCH   1  14
BRANCH  10  16
ATOM     16  C   UNL     1       3.765   3.462  17.477  0.00  0.00    +0.000 C 
BRANCH  16  17
ATOM     17  C   UNL     1       2.967   4.309  18.454  0.00  0.00    +0.000 A 
ATOM     18  C   UNL     1       2.880   5.700  18.299  0.00  0.00    +0.000 A 
ATOM     19  C   UNL     1       2.252   6.484  19.270  0.00  0.00    +0.000 A 
ATOM     20  C   UNL     1       1.686   5.886  20.395  0.00  0.00    +0.000 A 
ATOM     21  C   UNL     1       1.705   4.500  20.526  0.00  0.00    +0.000 A 
ATOM     22  C   UNL     1       2.330   3.715  19.556  0.00  0.00    +0.000 A 
ENDBRANCH  16  17
ENDBRANCH  10  16
TORSDOF 3
ENDMDL
MODEL 9
REMARK VINA RESULT:      -6.9      8.340     10.814
REMARK  Name = 
REMARK  5 active torsions:
REMARK  status: ('A' for Active; 'I' for Inactive)
REMARK    1  A    between atoms: C_1  and  C_2
REMARK    2  A    between atoms: C_2  and  C_3
REMARK    3  A    between atoms: C_2  and  C_4
REMARK    4  A    between atoms: N_13  and  C_14
REMARK    5  A    between atoms: C_14  and  C_15
REMARK                            x       y       z     vdW  Elec       q    Type
REMARK                         _______ _______ _______ _____ _____    ______ ____
ROOT
ATOM      1  C   UNL     1      -5.041  12.509  19.969  0.00  0.00    +0.000 A 
ATOM      2  N   UNL     1      -5.317  11.924  18.846  0.00  0.00    +0.000 NA
ATOM      3  C   UNL     1      -4.253  11.597  17.988  0.00  0.00    +0.000 A 
ATOM      4  C   UNL     1      -4.576  11.064  16.735  0.00  0.00    +0.000 A 
ATOM      5  C   UNL     1      -3.573  10.641  15.872  0.00  0.00    +0.000 A 
ATOM      6 CL   UNL     1      -3.979  10.029  14.317  0.00  0.00    +0.000 Cl
ATOM      7  C   UNL     1      -2.237  10.702  16.263  0.00  0.00    +0.000 A 
ATOM      8  C   UNL     1      -1.902  11.233  17.512  0.00  0.00    +0.000 A 
ATOM      9  C   UNL     1      -2.901  11.717  18.375  0.00  0.00    +0.000 A 
ATOM     10  N   UNL     1      -2.598  12.384  19.599  0.00  0.00    +0.000 N 
ATOM     11  C   UNL     1      -3.630  12.971  20.324  0.00  0.00    +0.000 A 
ATOM     12  O   UNL     1      -3.485  13.782  21.231  0.00  0.00    +0.000 OA
ENDROOT
BRANCH   1  14
ATOM     13  C   UNL     1      -6.843  14.082  20.705  0.00  0.00    +0.000 C 
ATOM     14  C   UNL     1      -6.128  12.771  21.009  0.00  0.00    +0.000 C 
ATOM     15  C   UNL     1      -7.131  11.623  21.098  0.00  0.00    +0.000 C 
ENDBRANCH   1  14
BRANCH  10  16
ATOM     16  C   UNL     1      -1.234  12.503  20.115  0.00  0.00    +0.000 C 
BRANCH  16  17
ATOM     17  C   UNL     1      -0.871  11.336  21.017  0.00  0.00    +0.000 A 
ATOM     18  C   UNL     1      -0.331  10.155  20.487  0.00  0.00    +0.000 A 
ATOM     19  C   UNL     1      -0.118   9.043  21.305  0.00  0.00    +0.000 A 
ATOM     20  C   UNL     1      -0.422   9.104  22.664  0.00  0.00    +0.000 A 
ATOM     21  C   UNL     1      -0.895  10.293  23.215  0.00  0.00    +0.000 A 
ATOM     22  C   UNL     1      -1.105  11.406  22.400  0.00  0.00    +0.000 A 
ENDBRANCH  16  17
ENDBRANCH  10  16
TORSDOF 3
ENDMDL
