MODEL 1
REMARK VINA RESULT:      -7.7      0.000      0.000
REMARK  Name = 
REMARK  8 active torsions:
REMARK  status: ('A' for Active; 'I' for Inactive)
REMARK    1  A    between atoms: C_2  and  C_3
REMARK    2  A    between atoms: C_2  and  C_18
REMARK    3  A    between atoms: C_3  and  O_4
REMARK    4  A    between atoms: O_4  and  C_5
REMARK    5  A    between atoms: C_8  and  C_9
REMARK    6  A    between atoms: C_18  and  N_19
REMARK    7  A    between atoms: C_24  and  C_25
REMARK    8  A    between atoms: C_25  and  O_27
REMARK                            x       y       z     vdW  Elec       q    Type
REMARK                         _______ _______ _______ _____ _____    ______ ____
ROOT
ATOM      1  O   UNL     1       1.003   3.078  21.711  0.00  0.00    +0.000 OA
ATOM      2  C   UNL     1       1.700   3.598  20.813  0.00  0.00    +0.000 C 
ENDROOT
BRANCH   2   3
ATOM      3  C   UNL     1       1.253   5.101  20.349  0.00  0.00    +0.000 C 
BRANCH   3   4
ATOM      4  O   UNL     1       2.144   6.216  20.529  0.00  0.00    +0.000 OA
BRANCH   4   5
ATOM      5  C   UNL     1       1.751   7.501  20.164  0.00  0.00    +0.000 A 
ATOM      6  C   UNL     1       1.040   8.284  21.098  0.00  0.00    +0.000 A 
ATOM      7  C   UNL     1       0.637   9.621  20.810  0.00  0.00    +0.000 A 
ATOM      8  C   UNL     1       0.955  10.247  19.591  0.00  0.00    +0.000 A 
ATOM      9  C   UNL     1       1.599   9.437  18.646  0.00  0.00    +0.000 A 
ATOM     10  C   UNL     1       1.991   8.098  18.927  0.00  0.00    +0.000 A 
BRANCH   8  11
ATOM     11  C   UNL     1       0.717  11.705  19.363  0.00  0.00    +0.000 A 
ATOM     12  C   UNL     1       1.683  12.640  19.784  0.00  0.00    +0.000 A 
ATOM     13  C   UNL     1       1.541  14.014  19.559  0.00  0.00    +0.000 A 
ATOM     14  C   UNL     1       0.427  14.489  18.881  0.00  0.00    +0.000 A 
ATOM     15 CL   UNL     1       0.263  16.176  18.583  0.00  0.00    +0.000 Cl
ATOM     16  C   UNL     1      -0.547  13.598  18.436  0.00  0.00    +0.000 A 
ATOM     17  C   UNL     1      -0.404  12.219  18.678  0.00  0.00    +0.000 A 
ENDBRANCH   8  11
ENDBRANCH   4   5
ENDBRANCH   3   4
ENDBRANCH   2   3
BRANCH   2  18
ATOM     18  C   UNL     1       3.068   2.850  20.313  0.00  0.00    +0.000 C 
BRANCH  18  19
ATOM     19  N   UNL     1       3.891   3.134  18.996  0.00  0.00    +0.000 N 
ATOM     20  C   UNL     1       2.993   3.168  17.907  0.00  0.00    +0.000 A 
ATOM     21  C   UNL     1       3.882   2.453  17.155  0.00  0.00    +0.000 A 
ATOM     22  C   UNL     1       4.898   3.432  17.165  0.00  0.00    +0.000 A 
ATOM     23  C   UNL     1       5.614   3.771  15.954  0.00  0.00    +0.000 A 
ATOM     24  C   UNL     1       6.493   4.796  15.717  0.00  0.00    +0.000 A 
ATOM     25  C   UNL     1       6.681   5.515  16.862  0.00  0.00    +0.000 A 
ATOM     26  C   UNL     1       5.984   5.110  18.158  0.00  0.00    +0.000 A 
ATOM     27  C   UNL     1       4.927   4.122  18.610  0.00  0.00    +0.000 A 
BRANCH  24  28
ATOM     28  C   UNL     1       7.003   4.891  14.284  0.00  0.00    +0.000 C 
ATOM     29  O   UNL     1       7.932   5.643  14.000  0.00  0.00    +0.000 OA
BRANCH  28  30
ATOM     30  O   UNL     1       6.433   4.161  13.307  0.00  0.00    +0.000 OA
ATOM     31  H   UNL     1       5.486   3.970  13.348  0.00  0.00    +0.000 HD
ENDBRANCH  28  30
ENDBRANCH  24  28
ENDBRANCH  18  19
ENDBRANCH   2  18
TORSDOF 8
ENDMDL
MODEL 2
REMARK VINA RESULT:      -7.6      4.404      7.660
REMARK  Name = 
REMARK  8 active torsions:
REMARK  status: ('A' for Active; 'I' for Inactive)
REMARK    1  A    between atoms: C_2  and  C_3
REMARK    2  A    between atoms: C_2  and  C_18
REMARK    3  A    between atoms: C_3  and  O_4
REMARK    4  A    between atoms: O_4  and  C_5
REMARK    5  A    between atoms: C_8  and  C_9
REMARK    6  A    between atoms: C_18  and  N_19
REMARK    7  A    between atoms: C_24  and  C_25
REMARK    8  A    between atoms: C_25  and  O_27
REMARK                            x       y       z     vdW  Elec       q    Type
REMARK                         _______ _______ _______ _____ _____    ______ ____
ROOT
ATOM      1  O   UNL     1       3.886   3.211  19.517  0.00  0.00    +0.000 OA
ATOM      2  C   UNL     1       3.882   4.425  19.220  0.00  0.00    +0.000 C 
ENDROOT
BRANCH   2   3
ATOM      3  C   UNL     1       4.642   4.818  17.826  0.00  0.00    +0.000 C 
BRANCH   3   4
ATOM      4  O   UNL     1       6.078   4.799  17.748  0.00  0.00    +0.000 OA
BRANCH   4   5
ATOM      5  C   UNL     1       6.812   5.969  17.921  0.00  0.00    +0.000 A 
ATOM      6  C   UNL     1       6.521   7.080  17.101  0.00  0.00    +0.000 A 
ATOM      7  C   UNL     1       7.206   8.323  17.244  0.00  0.00    +0.000 A 
ATOM      8  C   UNL     1       8.185   8.523  18.233  0.00  0.00    +0.000 A 
ATOM      9  C   UNL     1       8.514   7.393  18.995  0.00  0.00    +0.000 A 
ATOM     10  C   UNL     1       7.842   6.148  18.844  0.00  0.00    +0.000 A 
BRANCH   8  11
ATOM     11  C   UNL     1       8.756   9.873  18.523  0.00  0.00    +0.000 A 
ATOM     12  C   UNL     1       8.487  10.944  17.647  0.00  0.00    +0.000 A 
ATOM     13  C   UNL     1       8.954  12.241  17.886  0.00  0.00    +0.000 A 
ATOM     14  C   UNL     1       9.693  12.506  19.031  0.00  0.00    +0.000 A 
ATOM     15 CL   UNL     1      10.249  14.106  19.337  0.00  0.00    +0.000 Cl
ATOM     16  C   UNL     1       9.974  11.480  19.930  0.00  0.00    +0.000 A 
ATOM     17  C   UNL     1       9.511  10.175  19.676  0.00  0.00    +0.000 A 
ENDBRANCH   8  11
ENDBRANCH   4   5
ENDBRANCH   3   4
ENDBRANCH   2   3
BRANCH   2  18
ATOM     18  C   UNL     1       2.994   5.474  20.110  0.00  0.00    +0.000 C 
BRANCH  18  19
ATOM     19  N   UNL     1       2.483   6.905  19.681  0.00  0.00    +0.000 N 
ATOM     20  C   UNL     1       2.018   6.832  18.350  0.00  0.00    +0.000 A 
ATOM     21  C   UNL     1       2.621   8.027  18.076  0.00  0.00    +0.000 A 
ATOM     22  C   UNL     1       1.844   8.788  18.974  0.00  0.00    +0.000 A 
ATOM     23  C   UNL     1       1.293  10.067  18.579  0.00  0.00    +0.000 A 
ATOM     24  C   UNL     1       0.383  10.863  19.226  0.00  0.00    +0.000 A 
ATOM     25  C   UNL     1       0.044  10.297  20.421  0.00  0.00    +0.000 A 
ATOM     26  C   UNL     1       0.683   8.986  20.870  0.00  0.00    +0.000 A 
ATOM     27  C   UNL     1       1.591   7.917  20.294  0.00  0.00    +0.000 A 
BRANCH  24  28
ATOM     28  C   UNL     1      -0.026  12.121  18.470  0.00  0.00    +0.000 C 
ATOM     29  O   UNL     1       0.460  13.211  18.760  0.00  0.00    +0.000 OA
BRANCH  28  30
ATOM     30  O   UNL     1      -0.938  12.056  17.481  0.00  0.00    +0.000 OA
ATOM     31  H   UNL     1      -1.375  11.215  17.293  0.00  0.00    +0.000 HD
ENDBRANCH  28  30
ENDBRANCH  24  28
ENDBRANCH  18  19
ENDBRANCH   2  18
TORSDOF 8
ENDMDL
MODEL 3
REMARK VINA RESULT:      -7.6      2.969      3.642
REMARK  Name = 
REMARK  8 active torsions:
REMARK  status: ('A' for Active; 'I' for Inactive)
REMARK    1  A    between atoms: C_2  and  C_3
REMARK    2  A    between atoms: C_2  and  C_18
REMARK    3  A    between atoms: C_3  and  O_4
REMARK    4  A    between atoms: O_4  and  C_5
REMARK    5  A    between atoms: C_8  and  C_9
REMARK    6  A    between atoms: C_18  and  N_19
REMARK    7  A    between atoms: C_24  and  C_25
REMARK    8  A    between atoms: C_25  and  O_27
REMARK                            x       y       z     vdW  Elec       q    Type
REMARK                         _______ _______ _______ _____ _____    ______ ____
ROOT
ATOM      1  O   UNL     1       1.465   4.629  19.261  0.00  0.00    +0.000 OA
ATOM      2  C   UNL     1       2.305   5.430  19.725  0.00  0.00    +0.000 C 
ENDROOT
BRANCH   2   3
ATOM      3  C   UNL     1       1.712   6.575  20.731  0.00  0.00    +0.000 C 
BRANCH   3   4
ATOM      4  O   UNL     1       1.949   7.969  20.470  0.00  0.00    +0.000 OA
BRANCH   4   5
ATOM      5  C   UNL     1       1.075   8.938  20.955  0.00  0.00    +0.000 A 
ATOM      6  C   UNL     1       0.662   8.866  22.303  0.00  0.00    +0.000 A 
ATOM      7  C   UNL     1      -0.202   9.842  22.880  0.00  0.00    +0.000 A 
ATOM      8  C   UNL     1      -0.665  10.951  22.149  0.00  0.00    +0.000 A 
ATOM      9  C   UNL     1      -0.306  10.974  20.794  0.00  0.00    +0.000 A 
ATOM     10  C   UNL     1       0.546   9.994  20.213  0.00  0.00    +0.000 A 
BRANCH   8  11
ATOM     11  C   UNL     1      -1.398  12.080  22.798  0.00  0.00    +0.000 A 
ATOM     12  C   UNL     1      -2.664  11.847  23.371  0.00  0.00    +0.000 A 
ATOM     13  C   UNL     1      -3.381  12.850  24.033  0.00  0.00    +0.000 A 
ATOM     14  C   UNL     1      -2.833  14.120  24.157  0.00  0.00    +0.000 A 
ATOM     15 CL   UNL     1      -3.704  15.348  24.991  0.00  0.00    +0.000 Cl
ATOM     16  C   UNL     1      -1.580  14.391  23.616  0.00  0.00    +0.000 A 
ATOM     17  C   UNL     1      -0.870  13.380  22.940  0.00  0.00    +0.000 A 
ENDBRANCH   8  11
ENDBRANCH   4   5
ENDBRANCH   3   4
ENDBRANCH   2   3
BRANCH   2  18
ATOM     18  C   UNL     1       3.900   5.179  19.456  0.00  0.00    +0.000 C 
BRANCH  18  19
ATOM     19  N   UNL     1       4.678   5.323  18.090  0.00  0.00    +0.000 N 
ATOM     20  C   UNL     1       5.897   5.989  18.339  0.00  0.00    +0.000 A 
ATOM     21  C   UNL     1       5.721   6.730  17.204  0.00  0.00    +0.000 A 
ATOM     22  C   UNL     1       5.770   5.639  16.312  0.00  0.00    +0.000 A 
ATOM     23  C   UNL     1       6.543   5.714  15.090  0.00  0.00    +0.000 A 
ATOM     24  C   UNL     1       6.859   4.724  14.196  0.00  0.00    +0.000 A 
ATOM     25  C   UNL     1       6.281   3.551  14.584  0.00  0.00    +0.000 A 
ATOM     26  C   UNL     1       5.403   3.491  15.831  0.00  0.00    +0.000 A 
ATOM     27  C   UNL     1       5.020   4.395  16.986  0.00  0.00    +0.000 A 
BRANCH  24  28
ATOM     28  C   UNL     1       7.764   5.157  13.048  0.00  0.00    +0.000 C 
ATOM     29  O   UNL     1       7.584   4.724  11.913  0.00  0.00    +0.000 OA
BRANCH  28  30
ATOM     30  O   UNL     1       8.781   6.012  13.265  0.00  0.00    +0.000 OA
ATOM     31  H   UNL     1       9.661   5.663  13.461  0.00  0.00    +0.000 HD
ENDBRANCH  28  30
ENDBRANCH  24  28
ENDBRANCH  18  19
ENDBRANCH   2  18
TORSDOF 8
ENDMDL
MODEL 4
REMARK VINA RESULT:      -7.6      1.255      1.471
REMARK  Name = 
REMARK  8 active torsions:
REMARK  status: ('A' for Active; 'I' for Inactive)
REMARK    1  A    between atoms: C_2  and  C_3
REMARK    2  A    between atoms: C_2  and  C_18
REMARK    3  A    between atoms: C_3  and  O_4
REMARK    4  A    between atoms: O_4  and  C_5
REMARK    5  A    between atoms: C_8  and  C_9
REMARK    6  A    between atoms: C_18  and  N_19
REMARK    7  A    between atoms: C_24  and  C_25
REMARK    8  A    between atoms: C_25  and  O_27
REMARK                            x       y       z     vdW  Elec       q    Type
REMARK                         _______ _______ _______ _____ _____    ______ ____
ROOT
ATOM      1  O   UNL     1       2.097   3.908  22.041  0.00  0.00    +0.000 OA
ATOM      2  C   UNL     1       1.945   4.518  20.960  0.00  0.00    +0.000 C 
ENDROOT
BRANCH   2   3
ATOM      3  C   UNL     1       1.900   6.149  21.066  0.00  0.00    +0.000 C 
BRANCH   3   4
ATOM      4  O   UNL     1       2.157   6.963  19.909  0.00  0.00    +0.000 OA
BRANCH   4   5
ATOM      5  C   UNL     1       1.572   8.220  19.783  0.00  0.00    +0.000 A 
ATOM      6  C   UNL     1       0.852   8.746  20.877  0.00  0.00    +0.000 A 
ATOM      7  C   UNL     1       0.256  10.040  20.835  0.00  0.00    +0.000 A 
ATOM      8  C   UNL     1       0.381  10.881  19.715  0.00  0.00    +0.000 A 
ATOM      9  C   UNL     1       1.037  10.321  18.610  0.00  0.00    +0.000 A 
ATOM     10  C   UNL     1       1.621   9.024  18.645  0.00  0.00    +0.000 A 
BRANCH   8  11
ATOM     11  C   UNL     1      -0.062  12.308  19.740  0.00  0.00    +0.000 A 
ATOM     12  C   UNL     1      -0.758  12.799  20.862  0.00  0.00    +0.000 A 
ATOM     13  C   UNL     1      -1.159  14.136  20.966  0.00  0.00    +0.000 A 
ATOM     14  C   UNL     1      -0.852  15.028  19.949  0.00  0.00    +0.000 A 
ATOM     15 CL   UNL     1      -1.325  16.677  20.087  0.00  0.00    +0.000 Cl
ATOM     16  C   UNL     1      -0.155  14.588  18.826  0.00  0.00    +0.000 A 
ATOM     17  C   UNL     1       0.234  13.240  18.722  0.00  0.00    +0.000 A 
ENDBRANCH   8  11
ENDBRANCH   4   5
ENDBRANCH   3   4
ENDBRANCH   2   3
BRANCH   2  18
ATOM     18  C   UNL     1       1.987   3.689  19.549  0.00  0.00    +0.000 C 
BRANCH  18  19
ATOM     19  N   UNL     1       3.077   3.785  18.410  0.00  0.00    +0.000 N 
ATOM     20  C   UNL     1       2.703   2.917  17.361  0.00  0.00    +0.000 A 
ATOM     21  C   UNL     1       4.003   2.513  17.236  0.00  0.00    +0.000 A 
ATOM     22  C   UNL     1       4.509   3.775  16.861  0.00  0.00    +0.000 A 
ATOM     23  C   UNL     1       5.448   3.902  15.766  0.00  0.00    +0.000 A 
ATOM     24  C   UNL     1       5.912   5.030  15.141  0.00  0.00    +0.000 A 
ATOM     25  C   UNL     1       5.385   6.138  15.738  0.00  0.00    +0.000 A 
ATOM     26  C   UNL     1       4.454   6.004  16.942  0.00  0.00    +0.000 A 
ATOM     27  C   UNL     1       3.744   4.903  17.702  0.00  0.00    +0.000 A 
BRANCH  24  28
ATOM     28  C   UNL     1       6.847   4.777  13.964  0.00  0.00    +0.000 C 
ATOM     29  O   UNL     1       6.601   3.891  13.151  0.00  0.00    +0.000 OA
BRANCH  28  30
ATOM     30  O   UNL     1       7.963   5.514  13.808  0.00  0.00    +0.000 OA
ATOM     31  H   UNL     1       8.761   5.098  13.457  0.00  0.00    +0.000 HD
ENDBRANCH  28  30
ENDBRANCH  24  28
ENDBRANCH  18  19
ENDBRANCH   2  18
TORSDOF 8
ENDMDL
MODEL 5
REMARK VINA RESULT:      -7.6      4.167      8.067
REMARK  Name = 
REMARK  8 active torsions:
REMARK  status: ('A' for Active; 'I' for Inactive)
REMARK    1  A    between atoms: C_2  and  C_3
REMARK    2  A    between atoms: C_2  and  C_18
REMARK    3  A    between atoms: C_3  and  O_4
REMARK    4  A    between atoms: O_4  and  C_5
REMARK    5  A    between atoms: C_8  and  C_9
REMARK    6  A    between atoms: C_18  and  N_19
REMARK    7  A    between atoms: C_24  and  C_25
REMARK    8  A    between atoms: C_25  and  O_27
REMARK                            x       y       z     vdW  Elec       q    Type
REMARK                         _______ _______ _______ _____ _____    ______ ____
ROOT
ATOM      1  O   UNL     1       2.962   3.796  17.172  0.00  0.00    +0.000 OA
ATOM      2  C   UNL     1       3.678   4.637  17.757  0.00  0.00    +0.000 C 
ENDROOT
BRANCH   2   3
ATOM      3  C   UNL     1       5.094   4.074  18.352  0.00  0.00    +0.000 C 
BRANCH   3   4
ATOM      4  O   UNL     1       6.332   4.357  17.678  0.00  0.00    +0.000 OA
BRANCH   4   5
ATOM      5  C   UNL     1       6.982   5.573  17.872  0.00  0.00    +0.000 A 
ATOM      6  C   UNL     1       6.776   6.609  16.936  0.00  0.00    +0.000 A 
ATOM      7  C   UNL     1       7.379   7.892  17.087  0.00  0.00    +0.000 A 
ATOM      8  C   UNL     1       8.184   8.210  18.196  0.00  0.00    +0.000 A 
ATOM      9  C   UNL     1       8.437   7.153  19.081  0.00  0.00    +0.000 A 
ATOM     10  C   UNL     1       7.848   5.868  18.924  0.00  0.00    +0.000 A 
BRANCH   8  11
ATOM     11  C   UNL     1       8.647   9.605  18.466  0.00  0.00    +0.000 A 
ATOM     12  C   UNL     1       8.276  10.642  17.587  0.00  0.00    +0.000 A 
ATOM     13  C   UNL     1       8.640  11.975  17.810  0.00  0.00    +0.000 A 
ATOM     14  C   UNL     1       9.374  12.309  18.939  0.00  0.00    +0.000 A 
ATOM     15 CL   UNL     1       9.802  13.952  19.224  0.00  0.00    +0.000 Cl
ATOM     16  C   UNL     1       9.753  11.317  19.840  0.00  0.00    +0.000 A 
ATOM     17  C   UNL     1       9.395   9.977  19.603  0.00  0.00    +0.000 A 
ENDBRANCH   8  11
ENDBRANCH   4   5
ENDBRANCH   3   4
ENDBRANCH   2   3
BRANCH   2  18
ATOM     18  C   UNL     1       3.257   6.219  17.728  0.00  0.00    +0.000 C 
BRANCH  18  19
ATOM     19  N   UNL     1       2.392   7.003  18.791  0.00  0.00    +0.000 N 
ATOM     20  C   UNL     1       2.940   6.769  20.071  0.00  0.00    +0.000 A 
ATOM     21  C   UNL     1       1.680   6.625  20.581  0.00  0.00    +0.000 A 
ATOM     22  C   UNL     1       1.263   7.944  20.305  0.00  0.00    +0.000 A 
ATOM     23  C   UNL     1       0.539   8.716  21.293  0.00  0.00    +0.000 A 
ATOM     24  C   UNL     1       0.207  10.046  21.289  0.00  0.00    +0.000 A 
ATOM     25  C   UNL     1       0.629  10.623  20.127  0.00  0.00    +0.000 A 
ATOM     26  C   UNL     1       1.325   9.791  19.053  0.00  0.00    +0.000 A 
ATOM     27  C   UNL     1       1.875   8.388  18.893  0.00  0.00    +0.000 A 
BRANCH  24  28
ATOM     28  C   UNL     1      -0.502  10.537  22.546  0.00  0.00    +0.000 C 
ATOM     29  O   UNL     1      -1.403  11.368  22.471  0.00  0.00    +0.000 OA
BRANCH  28  30
ATOM     30  O   UNL     1      -0.141  10.075  23.758  0.00  0.00    +0.000 OA
ATOM     31  H   UNL     1       0.765   9.770  23.899  0.00  0.00    +0.000 HD
ENDBRANCH  28  30
ENDBRANCH  24  28
ENDBRANCH  18  19
ENDBRANCH   2  18
TORSDOF 8
ENDMDL
MODEL 6
REMARK VINA RESULT:      -7.5      1.044      1.308
REMARK  Name = 
REMARK  8 active torsions:
REMARK  status: ('A' for Active; 'I' for Inactive)
REMARK    1  A    between atoms: C_2  and  C_3
REMARK    2  A    between atoms: C_2  and  C_18
REMARK    3  A    between atoms: C_3  and  O_4
REMARK    4  A    between atoms: O_4  and  C_5
REMARK    5  A    between atoms: C_8  and  C_9
REMARK    6  A    between atoms: C_18  and  N_19
REMARK    7  A    between atoms: C_24  and  C_25
REMARK    8  A    between atoms: C_25  and  O_27
REMARK                            x       y       z     vdW  Elec       q    Type
REMARK                         _______ _______ _______ _____ _____    ______ ____
ROOT
ATOM      1  O   UNL     1       2.201   4.414  22.023  0.00  0.00    +0.000 OA
ATOM      2  C   UNL     1       1.981   4.746  20.838  0.00  0.00    +0.000 C 
ENDROOT
BRANCH   2   3
ATOM      3  C   UNL     1       1.637   6.327  20.596  0.00  0.00    +0.000 C 
BRANCH   3   4
ATOM      4  O   UNL     1       2.044   6.984  19.384  0.00  0.00    +0.000 OA
BRANCH   4   5
ATOM      5  C   UNL     1       1.781   8.338  19.191  0.00  0.00    +0.000 A 
ATOM      6  C   UNL     1       1.039   9.032  20.171  0.00  0.00    +0.000 A 
ATOM      7  C   UNL     1       0.762  10.426  20.059  0.00  0.00    +0.000 A 
ATOM      8  C   UNL     1       1.241  11.196  18.985  0.00  0.00    +0.000 A 
ATOM      9  C   UNL     1       1.915  10.483  17.984  0.00  0.00    +0.000 A 
ATOM     10  C   UNL     1       2.182   9.089  18.087  0.00  0.00    +0.000 A 
BRANCH   8  11
ATOM     11  C   UNL     1       1.131  12.686  18.965  0.00  0.00    +0.000 A 
ATOM     12  C   UNL     1       2.257  13.461  18.624  0.00  0.00    +0.000 A 
ATOM     13  C   UNL     1       2.206  14.858  18.544  0.00  0.00    +0.000 A 
ATOM     14  C   UNL     1       1.010  15.518  18.786  0.00  0.00    +0.000 A 
ATOM     15 CL   UNL     1       0.942  17.234  18.665  0.00  0.00    +0.000 Cl
ATOM     16  C   UNL     1      -0.131  14.791  19.115  0.00  0.00    +0.000 A 
ATOM     17  C   UNL     1      -0.070  13.388  19.207  0.00  0.00    +0.000 A 
ENDBRANCH   8  11
ENDBRANCH   4   5
ENDBRANCH   3   4
ENDBRANCH   2   3
BRANCH   2  18
ATOM     18  C   UNL     1       2.224   3.663  19.634  0.00  0.00    +0.000 C 
BRANCH  18  19
ATOM     19  N   UNL     1       3.257   3.764  18.445  0.00  0.00    +0.000 N 
ATOM     20  C   UNL     1       2.706   3.116  17.319  0.00  0.00    +0.000 A 
ATOM     21  C   UNL     1       3.922   2.553  17.050  0.00  0.00    +0.000 A 
ATOM     22  C   UNL     1       4.594   3.771  16.812  0.00  0.00    +0.000 A 
ATOM     23  C   UNL     1       5.485   3.918  15.681  0.00  0.00    +0.000 A 
ATOM     24  C   UNL     1       6.082   5.046  15.181  0.00  0.00    +0.000 A 
ATOM     25  C   UNL     1       5.758   6.121  15.956  0.00  0.00    +0.000 A 
ATOM     26  C   UNL     1       4.879   5.951  17.193  0.00  0.00    +0.000 A 
ATOM     27  C   UNL     1       4.050   4.865  17.848  0.00  0.00    +0.000 A 
BRANCH  24  28
ATOM     28  C   UNL     1       6.909   4.832  13.918  0.00  0.00    +0.000 C 
ATOM     29  O   UNL     1       6.580   3.985  13.092  0.00  0.00    +0.000 OA
BRANCH  28  30
ATOM     30  O   UNL     1       8.019   5.562  13.698  0.00  0.00    +0.000 OA
ATOM     31  H   UNL     1       8.702   5.219  13.106  0.00  0.00    +0.000 HD
ENDBRANCH  28  30
ENDBRANCH  24  28
ENDBRANCH  18  19
ENDBRANCH   2  18
TORSDOF 8
ENDMDL
MODEL 7
REMARK VINA RESULT:      -7.5      2.431      2.684
REMARK  Name = 
REMARK  8 active torsions:
REMARK  status: ('A' for Active; 'I' for Inactive)
REMARK    1  A    between atoms: C_2  and  C_3
REMARK    2  A    between atoms: C_2  and  C_18
REMARK    3  A    between atoms: C_3  and  O_4
REMARK    4  A    between atoms: O_4  and  C_5
REMARK    5  A    between atoms: C_8  and  C_9
REMARK    6  A    between atoms: C_18  and  N_19
REMARK    7  A    between atoms: C_24  and  C_25
REMARK    8  A    between atoms: C_25  and  O_27
REMARK                            x       y       z     vdW  Elec       q    Type
REMARK                         _______ _______ _______ _____ _____    ______ ____
ROOT
ATOM      1  O   UNL     1       0.796   3.994  20.142  0.00  0.00    +0.000 OA
ATOM      2  C   UNL     1       1.719   4.802  20.382  0.00  0.00    +0.000 C 
ENDROOT
BRANCH   2   3
ATOM      3  C   UNL     1       1.271   6.193  21.115  0.00  0.00    +0.000 C 
BRANCH   3   4
ATOM      4  O   UNL     1       1.648   7.465  20.560  0.00  0.00    +0.000 OA
BRANCH   4   5
ATOM      5  C   UNL     1       0.975   8.626  20.930  0.00  0.00    +0.000 A 
ATOM      6  C   UNL     1       0.477   9.474  19.918  0.00  0.00    +0.000 A 
ATOM      7  C   UNL     1      -0.252  10.661  20.220  0.00  0.00    +0.000 A 
ATOM      8  C   UNL     1      -0.548  11.037  21.543  0.00  0.00    +0.000 A 
ATOM      9  C   UNL     1       0.011  10.226  22.540  0.00  0.00    +0.000 A 
ATOM     10  C   UNL     1       0.751   9.048  22.241  0.00  0.00    +0.000 A 
BRANCH   8  11
ATOM     11  C   UNL     1      -1.482  12.160  21.859  0.00  0.00    +0.000 A 
ATOM     12  C   UNL     1      -1.330  12.870  23.067  0.00  0.00    +0.000 A 
ATOM     13  C   UNL     1      -2.142  13.959  23.400  0.00  0.00    +0.000 A 
ATOM     14  C   UNL     1      -3.123  14.383  22.515  0.00  0.00    +0.000 A 
ATOM     15 CL   UNL     1      -4.107  15.737  22.914  0.00  0.00    +0.000 Cl
ATOM     16  C   UNL     1      -3.301  13.718  21.304  0.00  0.00    +0.000 A 
ATOM     17  C   UNL     1      -2.489  12.614  20.981  0.00  0.00    +0.000 A 
ENDBRANCH   8  11
ENDBRANCH   4   5
ENDBRANCH   3   4
ENDBRANCH   2   3
BRANCH   2  18
ATOM     18  C   UNL     1       3.273   4.356  20.126  0.00  0.00    +0.000 C 
BRANCH  18  19
ATOM     19  N   UNL     1       4.052   4.328  18.753  0.00  0.00    +0.000 N 
ATOM     20  C   UNL     1       3.143   4.642  17.719  0.00  0.00    +0.000 A 
ATOM     21  C   UNL     1       3.690   3.659  16.943  0.00  0.00    +0.000 A 
ATOM     22  C   UNL     1       4.972   4.243  16.856  0.00  0.00    +0.000 A 
ATOM     23  C   UNL     1       5.675   4.304  15.592  0.00  0.00    +0.000 A 
ATOM     24  C   UNL     1       6.825   4.973  15.265  0.00  0.00    +0.000 A 
ATOM     25  C   UNL     1       7.320   5.606  16.368  0.00  0.00    +0.000 A 
ATOM     26  C   UNL     1       6.618   5.477  17.718  0.00  0.00    +0.000 A 
ATOM     27  C   UNL     1       5.327   4.907  18.269  0.00  0.00    +0.000 A 
BRANCH  24  28
ATOM     28  C   UNL     1       7.238   4.869  13.802  0.00  0.00    +0.000 C 
ATOM     29  O   UNL     1       8.143   5.570  13.356  0.00  0.00    +0.000 OA
BRANCH  28  30
ATOM     30  O   UNL     1       6.607   4.016  12.973  0.00  0.00    +0.000 OA
ATOM     31  H   UNL     1       5.883   4.339  12.420  0.00  0.00    +0.000 HD
ENDBRANCH  28  30
ENDBRANCH  24  28
ENDBRANCH  18  19
ENDBRANCH   2  18
TORSDOF 8
ENDMDL
MODEL 8
REMARK VINA RESULT:      -7.4      2.811      3.151
REMARK  Name = 
REMARK  8 active torsions:
REMARK  status: ('A' for Active; 'I' for Inactive)
REMARK    1  A    between atoms: C_2  and  C_3
REMARK    2  A    between atoms: C_2  and  C_18
REMARK    3  A    between atoms: C_3  and  O_4
REMARK    4  A    between atoms: O_4  and  C_5
REMARK    5  A    between atoms: C_8  and  C_9
REMARK    6  A    between atoms: C_18  and  N_19
REMARK    7  A    between atoms: C_24  and  C_25
REMARK    8  A    between atoms: C_25  and  O_27
REMARK                            x       y       z     vdW  Elec       q    Type
REMARK                         _______ _______ _______ _____ _____    ______ ____
ROOT
ATOM      1  O   UNL     1       2.071   4.041  21.375  0.00  0.00    +0.000 OA
ATOM      2  C   UNL     1       2.414   4.995  20.644  0.00  0.00    +0.000 C 
ENDROOT
BRANCH   2   3
ATOM      3  C   UNL     1       1.366   6.249  20.574  0.00  0.00    +0.000 C 
BRANCH   3   4
ATOM      4  O   UNL     1       1.849   7.598  20.463  0.00  0.00    +0.000 OA
BRANCH   4   5
ATOM      5  C   UNL     1       1.061   8.668  20.879  0.00  0.00    +0.000 A 
ATOM      6  C   UNL     1       0.221   8.497  22.000  0.00  0.00    +0.000 A 
ATOM      7  C   UNL     1      -0.587   9.557  22.506  0.00  0.00    +0.000 A 
ATOM      8  C   UNL     1      -0.567  10.844  21.938  0.00  0.00    +0.000 A 
ATOM      9  C   UNL     1       0.217  10.983  20.784  0.00  0.00    +0.000 A 
ATOM     10  C   UNL     1       1.014   9.922  20.270  0.00  0.00    +0.000 A 
BRANCH   8  11
ATOM     11  C   UNL     1      -1.249  12.006  22.583  0.00  0.00    +0.000 A 
ATOM     12  C   UNL     1      -2.527  11.834  23.152  0.00  0.00    +0.000 A 
ATOM     13  C   UNL     1      -3.198  12.871  23.809  0.00  0.00    +0.000 A 
ATOM     14  C   UNL     1      -2.592  14.113  23.934  0.00  0.00    +0.000 A 
ATOM     15 CL   UNL     1      -3.408  15.382  24.763  0.00  0.00    +0.000 Cl
ATOM     16  C   UNL     1      -1.325  14.325  23.397  0.00  0.00    +0.000 A 
ATOM     17  C   UNL     1      -0.661  13.281  22.726  0.00  0.00    +0.000 A 
ENDBRANCH   8  11
ENDBRANCH   4   5
ENDBRANCH   3   4
ENDBRANCH   2   3
BRANCH   2  18
ATOM     18  C   UNL     1       3.911   5.010  19.981  0.00  0.00    +0.000 C 
BRANCH  18  19
ATOM     19  N   UNL     1       4.316   4.590  18.514  0.00  0.00    +0.000 N 
ATOM     20  C   UNL     1       3.154   4.162  17.836  0.00  0.00    +0.000 A 
ATOM     21  C   UNL     1       3.858   3.124  17.291  0.00  0.00    +0.000 A 
ATOM     22  C   UNL     1       4.755   3.929  16.558  0.00  0.00    +0.000 A 
ATOM     23  C   UNL     1       5.082   3.614  15.184  0.00  0.00    +0.000 A 
ATOM     24  C   UNL     1       5.776   4.351  14.261  0.00  0.00    +0.000 A 
ATOM     25  C   UNL     1       6.212   5.512  14.832  0.00  0.00    +0.000 A 
ATOM     26  C   UNL     1       5.932   5.807  16.303  0.00  0.00    +0.000 A 
ATOM     27  C   UNL     1       5.123   5.215  17.439  0.00  0.00    +0.000 A 
BRANCH  24  28
ATOM     28  C   UNL     1       5.864   3.729  12.872  0.00  0.00    +0.000 C 
ATOM     29  O   UNL     1       6.955   3.540  12.340  0.00  0.00    +0.000 OA
BRANCH  28  30
ATOM     30  O   UNL     1       4.746   3.390  12.204  0.00  0.00    +0.000 OA
ATOM     31  H   UNL     1       4.037   2.926  12.669  0.00  0.00    +0.000 HD
ENDBRANCH  28  30
ENDBRANCH  24  28
ENDBRANCH  18  19
ENDBRANCH   2  18
TORSDOF 8
ENDMDL
MODEL 9
REMARK VINA RESULT:      -7.4      4.684      7.868
REMARK  Name = 
REMARK  8 active torsions:
REMARK  status: ('A' for Active; 'I' for Inactive)
REMARK    1  A    between atoms: C_2  and  C_3
REMARK    2  A    between atoms: C_2  and  C_18
REMARK    3  A    between atoms: C_3  and  O_4
REMARK    4  A    between atoms: O_4  and  C_5
REMARK    5  A    between atoms: C_8  and  C_9
REMARK    6  A    between atoms: C_18  and  N_19
REMARK    7  A    between atoms: C_24  and  C_25
REMARK    8  A    between atoms: C_25  and  O_27
REMARK                            x       y       z     vdW  Elec       q    Type
REMARK                         _______ _______ _______ _____ _____    ______ ____
ROOT
ATOM      1  O   UNL     1       5.151   3.270  16.107  0.00  0.00    +0.000 OA
ATOM      2  C   UNL     1       4.767   4.258  16.769  0.00  0.00    +0.000 C 
ENDROOT
BRANCH   2   3
ATOM      3  C   UNL     1       5.684   5.605  16.632  0.00  0.00    +0.000 C 
BRANCH   3   4
ATOM      4  O   UNL     1       6.964   5.686  17.282  0.00  0.00    +0.000 OA
BRANCH   4   5
ATOM      5  C   UNL     1       7.471   6.915  17.696  0.00  0.00    +0.000 A 
ATOM      6  C   UNL     1       8.283   6.960  18.850  0.00  0.00    +0.000 A 
ATOM      7  C   UNL     1       8.866   8.175  19.314  0.00  0.00    +0.000 A 
ATOM      8  C   UNL     1       8.694   9.392  18.630  0.00  0.00    +0.000 A 
ATOM      9  C   UNL     1       7.829   9.348  17.527  0.00  0.00    +0.000 A 
ATOM     10  C   UNL     1       7.235   8.138  17.070  0.00  0.00    +0.000 A 
BRANCH   8  11
ATOM     11  C   UNL     1       9.464  10.621  18.990  0.00  0.00    +0.000 A 
ATOM     12  C   UNL     1       9.922  11.478  17.969  0.00  0.00    +0.000 A 
ATOM     13  C   UNL     1      10.608  12.666  18.244  0.00  0.00    +0.000 A 
ATOM     14  C   UNL     1      10.837  13.041  19.560  0.00  0.00    +0.000 A 
ATOM     15 CL   UNL     1      11.661  14.514  19.898  0.00  0.00    +0.000 Cl
ATOM     16  C   UNL     1      10.391  12.230  20.600  0.00  0.00    +0.000 A 
ATOM     17  C   UNL     1       9.713  11.030  20.317  0.00  0.00    +0.000 A 
ENDBRANCH   8  11
ENDBRANCH   4   5
ENDBRANCH   3   4
ENDBRANCH   2   3
BRANCH   2  18
ATOM     18  C   UNL     1       3.330   4.200  17.552  0.00  0.00    +0.000 C 
BRANCH  18  19
ATOM     19  N   UNL     1       2.710   5.296  18.504  0.00  0.00    +0.000 N 
ATOM     20  C   UNL     1       3.416   5.277  19.726  0.00  0.00    +0.000 A 
ATOM     21  C   UNL     1       2.237   5.406  20.406  0.00  0.00    +0.000 A 
ATOM     22  C   UNL     1       1.911   6.676  19.886  0.00  0.00    +0.000 A 
ATOM     23  C   UNL     1       1.416   7.727  20.750  0.00  0.00    +0.000 A 
ATOM     24  C   UNL     1       1.215   9.055  20.481  0.00  0.00    +0.000 A 
ATOM     25  C   UNL     1       1.514   9.311  19.175  0.00  0.00    +0.000 A 
ATOM     26  C   UNL     1       1.962   8.186  18.245  0.00  0.00    +0.000 A 
ATOM     27  C   UNL     1       2.347   6.724  18.346  0.00  0.00    +0.000 A 
BRANCH  24  28
ATOM     28  C   UNL     1       0.748   9.891  21.668  0.00  0.00    +0.000 C 
ATOM     29  O   UNL     1       0.046  10.883  21.496  0.00  0.00    +0.000 OA
BRANCH  28  30
ATOM     30  O   UNL     1       1.112   9.559  22.921  0.00  0.00    +0.000 OA
ATOM     31  H   UNL     1       0.734   8.770  23.332  0.00  0.00    +0.000 HD
ENDBRANCH  28  30
ENDBRANCH  24  28
ENDBRANCH  18  19
ENDBRANCH   2  18
TORSDOF 8
ENDMDL
