MODEL 1
REMARK VINA RESULT:      -8.2      0.000      0.000
REMARK  Name = 
REMARK  6 active torsions:
REMARK  status: ('A' for Active; 'I' for Inactive)
REMARK    1  A    between atoms: C_1  and  C_2
REMARK    2  A    between atoms: C_2  and  C_3
REMARK    3  A    between atoms: C_9  and  C_10
REMARK    4  A    between atoms: C_14  and  C_15
REMARK    5  A    between atoms: N_17  and  C_18
REMARK    6  A    between atoms: C_24  and  C_25
REMARK                            x       y       z     vdW  Elec       q    Type
REMARK                         _______ _______ _______ _____ _____    ______ ____
ROOT
ATOM      1  C   UNL     1       1.654   6.439  20.420  0.00  0.00    +0.000 C 
ATOM      2  O   UNL     1       0.585   6.003  20.831  0.00  0.00    +0.000 OA
ATOM      3  N   UNL     1       2.009   7.782  20.435  0.00  0.00    +0.000 N 
ATOM      4  H   UNL     1       2.862   8.001  19.924  0.00  0.00    +0.000 HD
ENDROOT
BRANCH   1  16
ATOM      5  C   UNL     1       2.996   4.311  20.398  0.00  0.00    +0.000 A 
ATOM      6  S   UNL     1       4.186   3.546  19.445  0.00  0.00    +0.000 S 
ATOM      7  C   UNL     1       4.201   4.876  18.331  0.00  0.00    +0.000 A 
ATOM      8  N   UNL     1       5.012   4.890  17.220  0.00  0.00    +0.000 N 
ATOM      9  C   UNL     1       4.892   6.072  16.358  0.00  0.00    +0.000 C 
ATOM     10  C   UNL     1       5.482   5.796  14.974  0.00  0.00    +0.000 C 
ATOM     11  C   UNL     1       6.931   5.309  15.064  0.00  0.00    +0.000 C 
ATOM     12  C   UNL     1       7.483   4.981  13.677  0.00  0.00    +0.000 C 
ATOM     13  C   UNL     1       7.003   4.088  15.984  0.00  0.00    +0.000 C 
ATOM     14  C   UNL     1       6.387   4.377  17.355  0.00  0.00    +0.000 C 
ATOM     15  N   UNL     1       3.328   5.823  18.636  0.00  0.00    +0.000 NA
ATOM     16  C   UNL     1       2.650   5.528  19.825  0.00  0.00    +0.000 A 
BRANCH   5  18
ATOM     17  C   UNL     1       1.364   2.642  21.334  0.00  0.00    +0.000 C 
ATOM     18  C   UNL     1       2.473   3.639  21.637  0.00  0.00    +0.000 C 
ENDBRANCH   5  18
ENDBRANCH   1  16
BRANCH   3  19
ATOM     19  C   UNL     1       1.189   8.830  20.940  0.00  0.00    +0.000 A 
ATOM     20  C   UNL     1       0.889   8.914  22.316  0.00  0.00    +0.000 A 
ATOM     21  C   UNL     1       0.028   9.882  22.831  0.00  0.00    +0.000 A 
ATOM     22  C   UNL     1      -0.525  10.812  21.978  0.00  0.00    +0.000 A 
ATOM     23  F   UNL     1      -1.365  11.737  22.458  0.00  0.00    +0.000 F 
ATOM     24  C   UNL     1      -0.218  10.793  20.625  0.00  0.00    +0.000 A 
ATOM     25  C   UNL     1       0.644   9.808  20.085  0.00  0.00    +0.000 A 
BRANCH  25  26
ATOM     26  C   UNL     1       0.888   9.863  18.601  0.00  0.00    +0.000 C 
ATOM     27  F   UNL     1      -0.175  10.305  17.871  0.00  0.00    +0.000 F 
ATOM     28  F   UNL     1       1.927  10.683  18.278  0.00  0.00    +0.000 F 
ATOM     29  F   UNL     1       1.207   8.642  18.085  0.00  0.00    +0.000 F 
ENDBRANCH  25  26
ENDBRANCH   3  19
TORSDOF 4
ENDMDL
MODEL 2
REMARK VINA RESULT:      -8.0      3.516      8.118
REMARK  Name = 
REMARK  6 active torsions:
REMARK  status: ('A' for Active; 'I' for Inactive)
REMARK    1  A    between atoms: C_1  and  C_2
REMARK    2  A    between atoms: C_2  and  C_3
REMARK    3  A    between atoms: C_9  and  C_10
REMARK    4  A    between atoms: C_14  and  C_15
REMARK    5  A    between atoms: N_17  and  C_18
REMARK    6  A    between atoms: C_24  and  C_25
REMARK                            x       y       z     vdW  Elec       q    Type
REMARK                         _______ _______ _______ _____ _____    ______ ____
ROOT
ATOM      1  C   UNL     1       3.241   6.139  18.035  0.00  0.00    +0.000 C 
ATOM      2  O   UNL     1       2.822   5.042  17.684  0.00  0.00    +0.000 OA
ATOM      3  N   UNL     1       4.434   6.698  17.595  0.00  0.00    +0.000 N 
ATOM      4  H   UNL     1       4.716   7.542  18.090  0.00  0.00    +0.000 HD
ENDROOT
BRANCH   1  16
ATOM      5  C   UNL     1       2.054   6.433  20.232  0.00  0.00    +0.000 A 
ATOM      6  S   UNL     1       1.209   7.641  21.091  0.00  0.00    +0.000 S 
ATOM      7  C   UNL     1       1.444   8.775  19.799  0.00  0.00    +0.000 A 
ATOM      8  N   UNL     1       0.972  10.066  19.864  0.00  0.00    +0.000 N 
ATOM      9  C   UNL     1       1.274  10.914  18.705  0.00  0.00    +0.000 C 
ATOM     10  C   UNL     1       1.103  12.393  19.056  0.00  0.00    +0.000 C 
ATOM     11  C   UNL     1      -0.292  12.683  19.618  0.00  0.00    +0.000 C 
ATOM     12  C   UNL     1      -0.424  14.152  20.019  0.00  0.00    +0.000 C 
ATOM     13  C   UNL     1      -0.562  11.764  20.812  0.00  0.00    +0.000 C 
ATOM     14  C   UNL     1      -0.362  10.291  20.447  0.00  0.00    +0.000 C 
ATOM     15  N   UNL     1       2.156   8.285  18.797  0.00  0.00    +0.000 NA
ATOM     16  C   UNL     1       2.491   6.943  19.017  0.00  0.00    +0.000 A 
BRANCH   5  18
ATOM     17  C   UNL     1       1.074   4.138  20.546  0.00  0.00    +0.000 C 
ATOM     18  C   UNL     1       2.243   5.069  20.836  0.00  0.00    +0.000 C 
ENDBRANCH   5  18
ENDBRANCH   1  16
BRANCH   3  19
ATOM     19  C   UNL     1       5.324   6.083  16.669  0.00  0.00    +0.000 A 
ATOM     20  C   UNL     1       4.965   5.932  15.313  0.00  0.00    +0.000 A 
ATOM     21  C   UNL     1       5.780   5.267  14.398  0.00  0.00    +0.000 A 
ATOM     22  C   UNL     1       6.992   4.766  14.817  0.00  0.00    +0.000 A 
ATOM     23  F   UNL     1       7.776   4.111  13.953  0.00  0.00    +0.000 F 
ATOM     24  C   UNL     1       7.403   4.933  16.132  0.00  0.00    +0.000 A 
ATOM     25  C   UNL     1       6.581   5.596  17.076  0.00  0.00    +0.000 A 
BRANCH  25  26
ATOM     26  C   UNL     1       7.112   5.698  18.481  0.00  0.00    +0.000 C 
ATOM     27  F   UNL     1       6.200   5.413  19.451  0.00  0.00    +0.000 F 
ATOM     28  F   UNL     1       8.163   4.857  18.698  0.00  0.00    +0.000 F 
ATOM     29  F   UNL     1       7.576   6.948  18.767  0.00  0.00    +0.000 F 
ENDBRANCH  25  26
ENDBRANCH   3  19
TORSDOF 4
ENDMDL
MODEL 3
REMARK VINA RESULT:      -7.8      0.932      1.243
REMARK  Name = 
REMARK  6 active torsions:
REMARK  status: ('A' for Active; 'I' for Inactive)
REMARK    1  A    between atoms: C_1  and  C_2
REMARK    2  A    between atoms: C_2  and  C_3
REMARK    3  A    between atoms: C_9  and  C_10
REMARK    4  A    between atoms: C_14  and  C_15
REMARK    5  A    between atoms: N_17  and  C_18
REMARK    6  A    between atoms: C_24  and  C_25
REMARK                            x       y       z     vdW  Elec       q    Type
REMARK                         _______ _______ _______ _____ _____    ______ ____
ROOT
ATOM      1  C   UNL     1       1.822   6.427  20.236  0.00  0.00    +0.000 C 
ATOM      2  O   UNL     1       1.558   6.060  21.375  0.00  0.00    +0.000 OA
ATOM      3  N   UNL     1       1.627   7.720  19.766  0.00  0.00    +0.000 N 
ATOM      4  H   UNL     1       1.752   7.830  18.761  0.00  0.00    +0.000 HD
ENDROOT
BRANCH   1  16
ATOM      5  C   UNL     1       1.925   4.146  19.182  0.00  0.00    +0.000 A 
ATOM      6  S   UNL     1       2.761   3.337  17.934  0.00  0.00    +0.000 S 
ATOM      7  C   UNL     1       3.659   4.773  17.556  0.00  0.00    +0.000 A 
ATOM      8  N   UNL     1       4.588   4.809  16.542  0.00  0.00    +0.000 N 
ATOM      9  C   UNL     1       5.245   6.104  16.325  0.00  0.00    +0.000 C 
ATOM     10  C   UNL     1       5.904   6.153  14.945  0.00  0.00    +0.000 C 
ATOM     11  C   UNL     1       6.874   4.987  14.740  0.00  0.00    +0.000 C 
ATOM     12  C   UNL     1       7.475   5.019  13.335  0.00  0.00    +0.000 C 
ATOM     13  C   UNL     1       6.144   3.665  14.992  0.00  0.00    +0.000 C 
ATOM     14  C   UNL     1       5.473   3.645  16.367  0.00  0.00    +0.000 C 
ATOM     15  N   UNL     1       3.317   5.814  18.298  0.00  0.00    +0.000 NA
ATOM     16  C   UNL     1       2.347   5.468  19.248  0.00  0.00    +0.000 A 
BRANCH   5  18
ATOM     17  C   UNL     1       1.503   2.646  21.157  0.00  0.00    +0.000 C 
ATOM     18  C   UNL     1       0.891   3.416  19.995  0.00  0.00    +0.000 C 
ENDBRANCH   5  18
ENDBRANCH   1  16
BRANCH   3  19
ATOM     19  C   UNL     1       1.108   8.794  20.543  0.00  0.00    +0.000 A 
ATOM     20  C   UNL     1       0.901   8.648  21.931  0.00  0.00    +0.000 A 
ATOM     21  C   UNL     1       0.324   9.653  22.706  0.00  0.00    +0.000 A 
ATOM     22  C   UNL     1      -0.029  10.844  22.110  0.00  0.00    +0.000 A 
ATOM     23  F   UNL     1      -0.599  11.810  22.839  0.00  0.00    +0.000 F 
ATOM     24  C   UNL     1       0.200  11.044  20.756  0.00  0.00    +0.000 A 
ATOM     25  C   UNL     1       0.774  10.029  19.953  0.00  0.00    +0.000 A 
BRANCH  25  26
ATOM     26  C   UNL     1       0.953  10.342  18.492  0.00  0.00    +0.000 C 
ATOM     27  F   UNL     1       2.203  10.096  18.011  0.00  0.00    +0.000 F 
ATOM     28  F   UNL     1       0.103   9.627  17.702  0.00  0.00    +0.000 F 
ATOM     29  F   UNL     1       0.701  11.652  18.212  0.00  0.00    +0.000 F 
ENDBRANCH  25  26
ENDBRANCH   3  19
TORSDOF 4
ENDMDL
MODEL 4
REMARK VINA RESULT:      -7.7      3.597      8.084
REMARK  Name = 
REMARK  6 active torsions:
REMARK  status: ('A' for Active; 'I' for Inactive)
REMARK    1  A    between atoms: C_1  and  C_2
REMARK    2  A    between atoms: C_2  and  C_3
REMARK    3  A    between atoms: C_9  and  C_10
REMARK    4  A    between atoms: C_14  and  C_15
REMARK    5  A    between atoms: N_17  and  C_18
REMARK    6  A    between atoms: C_24  and  C_25
REMARK                            x       y       z     vdW  Elec       q    Type
REMARK                         _______ _______ _______ _____ _____    ______ ____
ROOT
ATOM      1  C   UNL     1       3.675   6.242  18.863  0.00  0.00    +0.000 C 
ATOM      2  O   UNL     1       4.691   5.922  19.470  0.00  0.00    +0.000 OA
ATOM      3  N   UNL     1       3.460   5.991  17.514  0.00  0.00    +0.000 N 
ATOM      4  H   UNL     1       2.638   6.449  17.123  0.00  0.00    +0.000 HD
ENDROOT
BRANCH   1  16
ATOM      5  C   UNL     1       1.804   6.405  20.535  0.00  0.00    +0.000 A 
ATOM      6  S   UNL     1       0.658   7.544  21.083  0.00  0.00    +0.000 S 
ATOM      7  C   UNL     1       1.255   8.733  19.970  0.00  0.00    +0.000 A 
ATOM      8  N   UNL     1       0.723  10.000  19.899  0.00  0.00    +0.000 N 
ATOM      9  C   UNL     1       1.353  10.902  18.927  0.00  0.00    +0.000 C 
ATOM     10  C   UNL     1       0.997  12.359  19.230  0.00  0.00    +0.000 C 
ATOM     11  C   UNL     1      -0.519  12.569  19.294  0.00  0.00    +0.000 C 
ATOM     12  C   UNL     1      -0.854  14.016  19.657  0.00  0.00    +0.000 C 
ATOM     13  C   UNL     1      -1.127  11.596  20.307  0.00  0.00    +0.000 C 
ATOM     14  C   UNL     1      -0.740  10.148  20.002  0.00  0.00    +0.000 C 
ATOM     15  N   UNL     1       2.287   8.311  19.258  0.00  0.00    +0.000 NA
ATOM     16  C   UNL     1       2.598   6.977  19.550  0.00  0.00    +0.000 A 
BRANCH   5  18
ATOM     17  C   UNL     1       1.016   4.023  20.359  0.00  0.00    +0.000 C 
ATOM     18  C   UNL     1       1.850   5.028  21.140  0.00  0.00    +0.000 C 
ENDBRANCH   5  18
ENDBRANCH   1  16
BRANCH   3  19
ATOM     19  C   UNL     1       4.378   5.320  16.658  0.00  0.00    +0.000 A 
ATOM     20  C   UNL     1       5.212   6.046  15.781  0.00  0.00    +0.000 A 
ATOM     21  C   UNL     1       6.066   5.416  14.877  0.00  0.00    +0.000 A 
ATOM     22  C   UNL     1       6.127   4.040  14.855  0.00  0.00    +0.000 A 
ATOM     23  F   UNL     1       6.931   3.424  13.981  0.00  0.00    +0.000 F 
ATOM     24  C   UNL     1       5.358   3.290  15.734  0.00  0.00    +0.000 A 
ATOM     25  C   UNL     1       4.476   3.915  16.649  0.00  0.00    +0.000 A 
BRANCH  25  26
ATOM     26  C   UNL     1       3.668   3.006  17.537  0.00  0.00    +0.000 C 
ATOM     27  F   UNL     1       3.908   3.159  18.869  0.00  0.00    +0.000 F 
ATOM     28  F   UNL     1       2.327   3.186  17.377  0.00  0.00    +0.000 F 
ATOM     29  F   UNL     1       3.898   1.689  17.270  0.00  0.00    +0.000 F 
ENDBRANCH  25  26
ENDBRANCH   3  19
TORSDOF 4
ENDMDL
MODEL 5
REMARK VINA RESULT:      -7.5      3.494      8.362
REMARK  Name = 
REMARK  6 active torsions:
REMARK  status: ('A' for Active; 'I' for Inactive)
REMARK    1  A    between atoms: C_1  and  C_2
REMARK    2  A    between atoms: C_2  and  C_3
REMARK    3  A    between atoms: C_9  and  C_10
REMARK    4  A    between atoms: C_14  and  C_15
REMARK    5  A    between atoms: N_17  and  C_18
REMARK    6  A    between atoms: C_24  and  C_25
REMARK                            x       y       z     vdW  Elec       q    Type
REMARK                         _______ _______ _______ _____ _____    ______ ____
ROOT
ATOM      1  C   UNL     1       2.860   7.355  18.074  0.00  0.00    +0.000 C 
ATOM      2  O   UNL     1       2.683   7.950  17.017  0.00  0.00    +0.000 OA
ATOM      3  N   UNL     1       3.670   6.235  18.214  0.00  0.00    +0.000 N 
ATOM      4  H   UNL     1       3.595   5.768  19.117  0.00  0.00    +0.000 HD
ENDROOT
BRANCH   1  16
ATOM      5  C   UNL     1       1.851   6.922  20.336  0.00  0.00    +0.000 A 
ATOM      6  S   UNL     1       1.034   7.772  21.569  0.00  0.00    +0.000 S 
ATOM      7  C   UNL     1       1.115   9.245  20.657  0.00  0.00    +0.000 A 
ATOM      8  N   UNL     1       0.600  10.429  21.133  0.00  0.00    +0.000 N 
ATOM      9  C   UNL     1       0.769  11.595  20.257  0.00  0.00    +0.000 C 
ATOM     10  C   UNL     1       0.569  12.894  21.040  0.00  0.00    +0.000 C 
ATOM     11  C   UNL     1      -0.784  12.920  21.757  0.00  0.00    +0.000 C 
ATOM     12  C   UNL     1      -0.939  14.197  22.583  0.00  0.00    +0.000 C 
ATOM     13  C   UNL     1      -0.915  11.678  22.643  0.00  0.00    +0.000 C 
ATOM     14  C   UNL     1      -0.689  10.391  21.846  0.00  0.00    +0.000 C 
ATOM     15  N   UNL     1       1.759   9.114  19.508  0.00  0.00    +0.000 NA
ATOM     16  C   UNL     1       2.164   7.790  19.298  0.00  0.00    +0.000 A 
BRANCH   5  18
ATOM     17  C   UNL     1       0.887   4.600  20.422  0.00  0.00    +0.000 C 
ATOM     18  C   UNL     1       2.144   5.455  20.496  0.00  0.00    +0.000 C 
ENDBRANCH   5  18
ENDBRANCH   1  16
BRANCH   3  19
ATOM     19  C   UNL     1       4.411   5.634  17.158  0.00  0.00    +0.000 A 
ATOM     20  C   UNL     1       5.176   6.423  16.272  0.00  0.00    +0.000 A 
ATOM     21  C   UNL     1       5.851   5.874  15.183  0.00  0.00    +0.000 A 
ATOM     22  C   UNL     1       5.803   4.513  14.978  0.00  0.00    +0.000 A 
ATOM     23  F   UNL     1       6.434   3.976  13.927  0.00  0.00    +0.000 F 
ATOM     24  C   UNL     1       5.101   3.697  15.853  0.00  0.00    +0.000 A 
ATOM     25  C   UNL     1       4.399   4.241  16.957  0.00  0.00    +0.000 A 
BRANCH  25  26
ATOM     26  C   UNL     1       3.648   3.268  17.826  0.00  0.00    +0.000 C 
ATOM     27  F   UNL     1       2.296   3.431  17.817  0.00  0.00    +0.000 F 
ATOM     28  F   UNL     1       3.870   1.973  17.463  0.00  0.00    +0.000 F 
ATOM     29  F   UNL     1       4.021   3.353  19.135  0.00  0.00    +0.000 F 
ENDBRANCH  25  26
ENDBRANCH   3  19
TORSDOF 4
ENDMDL
MODEL 6
REMARK VINA RESULT:      -7.4      4.028      8.229
REMARK  Name = 
REMARK  6 active torsions:
REMARK  status: ('A' for Active; 'I' for Inactive)
REMARK    1  A    between atoms: C_1  and  C_2
REMARK    2  A    between atoms: C_2  and  C_3
REMARK    3  A    between atoms: C_9  and  C_10
REMARK    4  A    between atoms: C_14  and  C_15
REMARK    5  A    between atoms: N_17  and  C_18
REMARK    6  A    between atoms: C_24  and  C_25
REMARK                            x       y       z     vdW  Elec       q    Type
REMARK                         _______ _______ _______ _____ _____    ______ ____
ROOT
ATOM      1  C   UNL     1       1.556   8.631  18.621  0.00  0.00    +0.000 C 
ATOM      2  O   UNL     1       1.091   8.378  17.516  0.00  0.00    +0.000 OA
ATOM      3  N   UNL     1       2.451   7.813  19.299  0.00  0.00    +0.000 N 
ATOM      4  H   UNL     1       2.627   8.085  20.265  0.00  0.00    +0.000 HD
ENDROOT
BRANCH   1  16
ATOM      5  C   UNL     1       0.381   9.817  20.502  0.00  0.00    +0.000 A 
ATOM      6  S   UNL     1       0.082  11.409  21.038  0.00  0.00    +0.000 S 
ATOM      7  C   UNL     1       0.957  12.064  19.691  0.00  0.00    +0.000 A 
ATOM      8  N   UNL     1       1.120  13.419  19.514  0.00  0.00    +0.000 N 
ATOM      9  C   UNL     1       1.909  13.819  18.343  0.00  0.00    +0.000 C 
ATOM     10  C   UNL     1       2.388  15.266  18.480  0.00  0.00    +0.000 C 
ATOM     11  C   UNL     1       1.222  16.226  18.728  0.00  0.00    +0.000 C 
ATOM     12  C   UNL     1       1.725  17.656  18.923  0.00  0.00    +0.000 C 
ATOM     13  C   UNL     1       0.425  15.757  19.948  0.00  0.00    +0.000 C 
ATOM     14  C   UNL     1      -0.025  14.301  19.802  0.00  0.00    +0.000 C 
ATOM     15  N   UNL     1       1.482  11.136  18.907  0.00  0.00    +0.000 NA
ATOM     16  C   UNL     1       1.142   9.849  19.341  0.00  0.00    +0.000 A 
BRANCH   5  18
ATOM     17  C   UNL     1      -0.500   9.016  22.718  0.00  0.00    +0.000 C 
ATOM     18  C   UNL     1      -0.144   8.645  21.286  0.00  0.00    +0.000 C 
ENDBRANCH   5  18
ENDBRANCH   1  16
BRANCH   3  19
ATOM     19  C   UNL     1       2.961   6.582  18.799  0.00  0.00    +0.000 A 
ATOM     20  C   UNL     1       3.781   6.551  17.651  0.00  0.00    +0.000 A 
ATOM     21  C   UNL     1       4.232   5.356  17.092  0.00  0.00    +0.000 A 
ATOM     22  C   UNL     1       3.898   4.163  17.695  0.00  0.00    +0.000 A 
ATOM     23  F   UNL     1       4.312   3.008  17.160  0.00  0.00    +0.000 F 
ATOM     24  C   UNL     1       3.132   4.152  18.852  0.00  0.00    +0.000 A 
ATOM     25  C   UNL     1       2.656   5.357  19.425  0.00  0.00    +0.000 A 
BRANCH  25  26
ATOM     26  C   UNL     1       1.811   5.228  20.664  0.00  0.00    +0.000 C 
ATOM     27  F   UNL     1       1.578   6.404  21.312  0.00  0.00    +0.000 F 
ATOM     28  F   UNL     1       0.583   4.700  20.399  0.00  0.00    +0.000 F 
ATOM     29  F   UNL     1       2.377   4.403  21.589  0.00  0.00    +0.000 F 
ENDBRANCH  25  26
ENDBRANCH   3  19
TORSDOF 4
ENDMDL
MODEL 7
REMARK VINA RESULT:      -7.4      3.481      8.160
REMARK  Name = 
REMARK  6 active torsions:
REMARK  status: ('A' for Active; 'I' for Inactive)
REMARK    1  A    between atoms: C_1  and  C_2
REMARK    2  A    between atoms: C_2  and  C_3
REMARK    3  A    between atoms: C_9  and  C_10
REMARK    4  A    between atoms: C_14  and  C_15
REMARK    5  A    between atoms: N_17  and  C_18
REMARK    6  A    between atoms: C_24  and  C_25
REMARK                            x       y       z     vdW  Elec       q    Type
REMARK                         _______ _______ _______ _____ _____    ______ ____
ROOT
ATOM      1  C   UNL     1       2.531   6.553  18.094  0.00  0.00    +0.000 C 
ATOM      2  O   UNL     1       1.773   5.868  17.417  0.00  0.00    +0.000 OA
ATOM      3  N   UNL     1       3.915   6.539  17.974  0.00  0.00    +0.000 N 
ATOM      4  H   UNL     1       4.409   7.047  18.705  0.00  0.00    +0.000 HD
ENDROOT
BRANCH   1  16
ATOM      5  C   UNL     1       1.765   7.009  20.445  0.00  0.00    +0.000 A 
ATOM      6  S   UNL     1       1.129   8.295  21.369  0.00  0.00    +0.000 S 
ATOM      7  C   UNL     1       1.170   9.351  19.993  0.00  0.00    +0.000 A 
ATOM      8  N   UNL     1       0.764  10.664  20.066  0.00  0.00    +0.000 N 
ATOM      9  C   UNL     1       0.883  11.438  18.825  0.00  0.00    +0.000 C 
ATOM     10  C   UNL     1       0.829  12.939  19.116  0.00  0.00    +0.000 C 
ATOM     11  C   UNL     1      -0.432  13.319  19.897  0.00  0.00    +0.000 C 
ATOM     12  C   UNL     1      -0.438  14.811  20.230  0.00  0.00    +0.000 C 
ATOM     13  C   UNL     1      -0.517  12.474  21.171  0.00  0.00    +0.000 C 
ATOM     14  C   UNL     1      -0.437  10.977  20.861  0.00  0.00    +0.000 C 
ATOM     15  N   UNL     1       1.675   8.781  18.911  0.00  0.00    +0.000 NA
ATOM     16  C   UNL     1       1.996   7.438  19.144  0.00  0.00    +0.000 A 
BRANCH   5  18
ATOM     17  C   UNL     1       1.056   4.599  20.574  0.00  0.00    +0.000 C 
ATOM     18  C   UNL     1       2.010   5.670  21.083  0.00  0.00    +0.000 C 
ENDBRANCH   5  18
ENDBRANCH   1  16
BRANCH   3  19
ATOM     19  C   UNL     1       4.639   5.741  17.044  0.00  0.00    +0.000 A 
ATOM     20  C   UNL     1       5.165   6.306  15.862  0.00  0.00    +0.000 A 
ATOM     21  C   UNL     1       5.812   5.537  14.896  0.00  0.00    +0.000 A 
ATOM     22  C   UNL     1       5.977   4.186  15.109  0.00  0.00    +0.000 A 
ATOM     23  F   UNL     1       6.582   3.435  14.182  0.00  0.00    +0.000 F 
ATOM     24  C   UNL     1       5.516   3.600  16.280  0.00  0.00    +0.000 A 
ATOM     25  C   UNL     1       4.845   4.365  17.265  0.00  0.00    +0.000 A 
BRANCH  25  26
ATOM     26  C   UNL     1       4.363   3.624  18.483  0.00  0.00    +0.000 C 
ATOM     27  F   UNL     1       3.029   3.349  18.485  0.00  0.00    +0.000 F 
ATOM     28  F   UNL     1       4.990   2.424  18.640  0.00  0.00    +0.000 F 
ATOM     29  F   UNL     1       4.598   4.316  19.634  0.00  0.00    +0.000 F 
ENDBRANCH  25  26
ENDBRANCH   3  19
TORSDOF 4
ENDMDL
MODEL 8
REMARK VINA RESULT:      -7.1      3.885      8.203
REMARK  Name = 
REMARK  6 active torsions:
REMARK  status: ('A' for Active; 'I' for Inactive)
REMARK    1  A    between atoms: C_1  and  C_2
REMARK    2  A    between atoms: C_2  and  C_3
REMARK    3  A    between atoms: C_9  and  C_10
REMARK    4  A    between atoms: C_14  and  C_15
REMARK    5  A    between atoms: N_17  and  C_18
REMARK    6  A    between atoms: C_24  and  C_25
REMARK                            x       y       z     vdW  Elec       q    Type
REMARK                         _______ _______ _______ _____ _____    ______ ____
ROOT
ATOM      1  C   UNL     1       2.118   8.322  18.054  0.00  0.00    +0.000 C 
ATOM      2  O   UNL     1       1.316   7.815  17.278  0.00  0.00    +0.000 OA
ATOM      3  N   UNL     1       3.411   7.855  18.259  0.00  0.00    +0.000 N 
ATOM      4  H   UNL     1       3.899   8.287  19.041  0.00  0.00    +0.000 HD
ENDROOT
BRANCH   1  16
ATOM      5  C   UNL     1       1.095   9.348  20.110  0.00  0.00    +0.000 A 
ATOM      6  S   UNL     1       0.779  10.893  20.760  0.00  0.00    +0.000 S 
ATOM      7  C   UNL     1       1.472  11.661  19.367  0.00  0.00    +0.000 A 
ATOM      8  N   UNL     1       1.549  13.030  19.248  0.00  0.00    +0.000 N 
ATOM      9  C   UNL     1       2.187  13.529  18.024  0.00  0.00    +0.000 C 
ATOM     10  C   UNL     1       2.608  14.990  18.190  0.00  0.00    +0.000 C 
ATOM     11  C   UNL     1       1.429  15.873  18.610  0.00  0.00    +0.000 C 
ATOM     12  C   UNL     1       1.881  17.317  18.829  0.00  0.00    +0.000 C 
ATOM     13  C   UNL     1       0.791  15.302  19.879  0.00  0.00    +0.000 C 
ATOM     14  C   UNL     1       0.400  13.833  19.702  0.00  0.00    +0.000 C 
ATOM     15  N   UNL     1       1.954  10.802  18.483  0.00  0.00    +0.000 NA
ATOM     16  C   UNL     1       1.726   9.479  18.879  0.00  0.00    +0.000 A 
BRANCH   5  18
ATOM     17  C   UNL     1      -0.437   8.359  21.843  0.00  0.00    +0.000 C 
ATOM     18  C   UNL     1       0.715   8.113  20.879  0.00  0.00    +0.000 C 
ENDBRANCH   5  18
ENDBRANCH   1  16
BRANCH   3  19
ATOM     19  C   UNL     1       3.984   6.738  17.588  0.00  0.00    +0.000 A 
ATOM     20  C   UNL     1       4.820   6.921  16.466  0.00  0.00    +0.000 A 
ATOM     21  C   UNL     1       5.335   5.847  15.741  0.00  0.00    +0.000 A 
ATOM     22  C   UNL     1       5.050   4.562  16.147  0.00  0.00    +0.000 A 
ATOM     23  F   UNL     1       5.525   3.523  15.451  0.00  0.00    +0.000 F 
ATOM     24  C   UNL     1       4.270   4.340  17.274  0.00  0.00    +0.000 A 
ATOM     25  C   UNL     1       3.729   5.420  18.013  0.00  0.00    +0.000 A 
BRANCH  25  26
ATOM     26  C   UNL     1       2.875   5.066  19.201  0.00  0.00    +0.000 C 
ATOM     27  F   UNL     1       1.535   5.187  18.988  0.00  0.00    +0.000 F 
ATOM     28  F   UNL     1       3.071   3.782  19.613  0.00  0.00    +0.000 F 
ATOM     29  F   UNL     1       3.148   5.847  20.283  0.00  0.00    +0.000 F 
ENDBRANCH  25  26
ENDBRANCH   3  19
TORSDOF 4
ENDMDL
MODEL 9
REMARK VINA RESULT:      -7.1      3.619      8.163
REMARK  Name = 
REMARK  6 active torsions:
REMARK  status: ('A' for Active; 'I' for Inactive)
REMARK    1  A    between atoms: C_1  and  C_2
REMARK    2  A    between atoms: C_2  and  C_3
REMARK    3  A    between atoms: C_9  and  C_10
REMARK    4  A    between atoms: C_14  and  C_15
REMARK    5  A    between atoms: N_17  and  C_18
REMARK    6  A    between atoms: C_24  and  C_25
REMARK                            x       y       z     vdW  Elec       q    Type
REMARK                         _______ _______ _______ _____ _____    ______ ____
ROOT
ATOM      1  C   UNL     1       3.415   5.489  17.837  0.00  0.00    +0.000 C 
ATOM      2  O   UNL     1       2.967   4.490  17.287  0.00  0.00    +0.000 OA
ATOM      3  N   UNL     1       4.589   6.129  17.461  0.00  0.00    +0.000 N 
ATOM      4  H   UNL     1       4.905   6.850  18.108  0.00  0.00    +0.000 HD
ENDROOT
BRANCH   1  16
ATOM      5  C   UNL     1       2.450   5.339  20.155  0.00  0.00    +0.000 A 
ATOM      6  S   UNL     1       1.629   6.328  21.277  0.00  0.00    +0.000 S 
ATOM      7  C   UNL     1       1.658   7.667  20.174  0.00  0.00    +0.000 A 
ATOM      8  N   UNL     1       1.119   8.892  20.496  0.00  0.00    +0.000 N 
ATOM      9  C   UNL     1       1.246   9.933  19.469  0.00  0.00    +0.000 C 
ATOM     10  C   UNL     1       1.024  11.321  20.074  0.00  0.00    +0.000 C 
ATOM     11  C   UNL     1      -0.319  11.410  20.805  0.00  0.00    +0.000 C 
ATOM     12  C   UNL     1      -0.495  12.783  21.454  0.00  0.00    +0.000 C 
ATOM     13  C   UNL     1      -0.406  10.296  21.851  0.00  0.00    +0.000 C 
ATOM     14  C   UNL     1      -0.157   8.919  21.231  0.00  0.00    +0.000 C 
ATOM     15  N   UNL     1       2.289   7.398  19.042  0.00  0.00    +0.000 NA
ATOM     16  C   UNL     1       2.725   6.068  19.004  0.00  0.00    +0.000 A 
BRANCH   5  18
ATOM     17  C   UNL     1       1.902   3.369  21.620  0.00  0.00    +0.000 C 
ATOM     18  C   UNL     1       2.783   3.915  20.504  0.00  0.00    +0.000 C 
ENDBRANCH   5  18
ENDBRANCH   1  16
BRANCH   3  19
ATOM     19  C   UNL     1       5.423   5.723  16.381  0.00  0.00    +0.000 A 
ATOM     20  C   UNL     1       4.989   5.854  15.045  0.00  0.00    +0.000 A 
ATOM     21  C   UNL     1       5.748   5.396  13.969  0.00  0.00    +0.000 A 
ATOM     22  C   UNL     1       6.980   4.827  14.209  0.00  0.00    +0.000 A 
ATOM     23  F   UNL     1       7.711   4.369  13.186  0.00  0.00    +0.000 F 
ATOM     24  C   UNL     1       7.463   4.722  15.505  0.00  0.00    +0.000 A 
ATOM     25  C   UNL     1       6.698   5.171  16.609  0.00  0.00    +0.000 A 
BRANCH  25  26
ATOM     26  C   UNL     1       7.307   4.984  17.973  0.00  0.00    +0.000 C 
ATOM     27  F   UNL     1       8.401   4.173  17.997  0.00  0.00    +0.000 F 
ATOM     28  F   UNL     1       7.706   6.164  18.526  0.00  0.00    +0.000 F 
ATOM     29  F   UNL     1       6.426   4.440  18.860  0.00  0.00    +0.000 F 
ENDBRANCH  25  26
ENDBRANCH   3  19
TORSDOF 4
ENDMDL
