MODEL 1
REMARK VINA RESULT:      -7.9      0.000      0.000
REMARK  Name = 
REMARK  7 active torsions:
REMARK  status: ('A' for Active; 'I' for Inactive)
REMARK    1  A    between atoms: C_1  and  C_2
REMARK    2  A    between atoms: C_2  and  C_3
REMARK    3  A    between atoms: N_7  and  C_8
REMARK    4  A    between atoms: C_8  and  C_9
REMARK    5  A    between atoms: C_9  and  O_10
REMARK    6  A    between atoms: O_10  and  C_11
REMARK    7  A    between atoms: C_16  and  C_17
REMARK                            x       y       z     vdW  Elec       q    Type
REMARK                         _______ _______ _______ _____ _____    ______ ____
ROOT
ATOM      1  C   UNL     1       5.061   5.148  16.709  0.00  0.00    +0.000 C 
ATOM      2  C   UNL     1       6.248   4.200  16.460  0.00  0.00    +0.000 C 
ATOM      3  C   UNL     1       7.345   4.790  17.304  0.00  0.00    +0.000 C 
ATOM      4  O   UNL     1       8.318   4.172  17.705  0.00  0.00    +0.000 OA
ATOM      5  N   UNL     1       7.035   6.127  17.513  0.00  0.00    +0.000 N 
ATOM      6  C   UNL     1       5.792   6.489  16.877  0.00  0.00    +0.000 C 
ENDROOT
BRANCH   1   8
ATOM      7  C   UNL     1       4.003   5.935  18.886  0.00  0.00    +0.000 C 
ATOM      8  C   UNL     1       4.123   4.732  17.913  0.00  0.00    +0.000 C 
ATOM      9  C   UNL     1       4.760   3.547  18.691  0.00  0.00    +0.000 C 
ATOM     10  C   UNL     1       3.826   2.972  19.757  0.00  0.00    +0.000 C 
ATOM     11  O   UNL     1       2.583   2.581  19.181  0.00  0.00    +0.000 OA
ATOM     12  C   UNL     1       1.885   3.673  18.589  0.00  0.00    +0.000 C 
ATOM     13  C   UNL     1       2.708   4.287  17.461  0.00  0.00    +0.000 C 
ENDBRANCH   1   8
BRANCH   5  14
ATOM     14  C   UNL     1       7.821   7.108  18.264  0.00  0.00    +0.000 C 
BRANCH  14  15
ATOM     15  C   UNL     1       8.203   8.346  17.461  0.00  0.00    +0.000 C 
BRANCH  15  16
ATOM     16  O   UNL     1       7.833   9.551  18.134  0.00  0.00    +0.000 OA
BRANCH  16  17
ATOM     17  C   UNL     1       8.902  10.304  18.562  0.00  0.00    +0.000 A 
ATOM     18  C   UNL     1       9.142  10.275  19.937  0.00  0.00    +0.000 A 
ATOM     19  C   UNL     1      10.194  11.010  20.484  0.00  0.00    +0.000 A 
ATOM     20  C   UNL     1      11.005  11.778  19.652  0.00  0.00    +0.000 A 
ATOM     21  F   UNL     1      12.007  12.481  20.200  0.00  0.00    +0.000 F 
ATOM     22  C   UNL     1      10.783  11.818  18.282  0.00  0.00    +0.000 A 
ATOM     23  C   UNL     1       9.730  11.077  17.735  0.00  0.00    +0.000 A 
BRANCH  22  24
ATOM     24  C   UNL     1      11.618  12.614  17.434  0.00  0.00    +0.000 C 
ATOM     25  N   UNL     1      12.285  13.231  16.715  0.00  0.00    +0.000 NA
ENDBRANCH  22  24
ENDBRANCH  16  17
ENDBRANCH  15  16
ENDBRANCH  14  15
ENDBRANCH   5  14
TORSDOF 6
ENDMDL
MODEL 2
REMARK VINA RESULT:      -7.7      1.850      2.231
REMARK  Name = 
REMARK  7 active torsions:
REMARK  status: ('A' for Active; 'I' for Inactive)
REMARK    1  A    between atoms: C_1  and  C_2
REMARK    2  A    between atoms: C_2  and  C_3
REMARK    3  A    between atoms: N_7  and  C_8
REMARK    4  A    between atoms: C_8  and  C_9
REMARK    5  A    between atoms: C_9  and  O_10
REMARK    6  A    between atoms: O_10  and  C_11
REMARK    7  A    between atoms: C_16  and  C_17
REMARK                            x       y       z     vdW  Elec       q    Type
REMARK                         _______ _______ _______ _____ _____    ______ ____
ROOT
ATOM      1  C   UNL     1       4.582   5.845  16.693  0.00  0.00    +0.000 C 
ATOM      2  C   UNL     1       5.574   5.164  15.734  0.00  0.00    +0.000 C 
ATOM      3  C   UNL     1       6.895   5.312  16.439  0.00  0.00    +0.000 C 
ATOM      4  O   UNL     1       7.870   4.606  16.239  0.00  0.00    +0.000 OA
ATOM      5  N   UNL     1       6.778   6.379  17.320  0.00  0.00    +0.000 N 
ATOM      6  C   UNL     1       5.460   6.964  17.272  0.00  0.00    +0.000 C 
ENDROOT
BRANCH   1   8
ATOM      7  C   UNL     1       4.483   5.238  19.163  0.00  0.00    +0.000 C 
ATOM      8  C   UNL     1       3.924   4.880  17.760  0.00  0.00    +0.000 C 
ATOM      9  C   UNL     1       4.314   3.408  17.448  0.00  0.00    +0.000 C 
ATOM     10  C   UNL     1       3.569   2.403  18.327  0.00  0.00    +0.000 C 
ATOM     11  O   UNL     1       2.160   2.580  18.216  0.00  0.00    +0.000 OA
ATOM     12  C   UNL     1       1.734   3.872  18.642  0.00  0.00    +0.000 C 
ATOM     13  C   UNL     1       2.376   4.958  17.783  0.00  0.00    +0.000 C 
ENDBRANCH   1   8
BRANCH   5  14
ATOM     14  C   UNL     1       7.814   6.906  18.210  0.00  0.00    +0.000 C 
BRANCH  14  15
ATOM     15  C   UNL     1       8.065   8.402  18.057  0.00  0.00    +0.000 C 
BRANCH  15  16
ATOM     16  O   UNL     1       9.064   8.869  18.966  0.00  0.00    +0.000 OA
BRANCH  16  17
ATOM     17  C   UNL     1       9.137  10.239  19.062  0.00  0.00    +0.000 A 
ATOM     18  C   UNL     1       9.131  10.926  17.847  0.00  0.00    +0.000 A 
ATOM     19  C   UNL     1       9.212  12.319  17.825  0.00  0.00    +0.000 A 
ATOM     20  C   UNL     1       9.302  13.024  19.022  0.00  0.00    +0.000 A 
ATOM     21  F   UNL     1       9.384  14.362  18.976  0.00  0.00    +0.000 F 
ATOM     22  C   UNL     1       9.307  12.359  20.240  0.00  0.00    +0.000 A 
ATOM     23  C   UNL     1       9.222  10.963  20.261  0.00  0.00    +0.000 A 
BRANCH  22  24
ATOM     24  C   UNL     1       9.406  13.090  21.467  0.00  0.00    +0.000 C 
ATOM     25  N   UNL     1       9.447  13.666  22.472  0.00  0.00    +0.000 NA
ENDBRANCH  22  24
ENDBRANCH  16  17
ENDBRANCH  15  16
ENDBRANCH  14  15
ENDBRANCH   5  14
TORSDOF 6
ENDMDL
MODEL 3
REMARK VINA RESULT:      -7.7      1.329      1.373
REMARK  Name = 
REMARK  7 active torsions:
REMARK  status: ('A' for Active; 'I' for Inactive)
REMARK    1  A    between atoms: C_1  and  C_2
REMARK    2  A    between atoms: C_2  and  C_3
REMARK    3  A    between atoms: N_7  and  C_8
REMARK    4  A    between atoms: C_8  and  C_9
REMARK    5  A    between atoms: C_9  and  O_10
REMARK    6  A    between atoms: O_10  and  C_11
REMARK    7  A    between atoms: C_16  and  C_17
REMARK                            x       y       z     vdW  Elec       q    Type
REMARK                         _______ _______ _______ _____ _____    ______ ____
ROOT
ATOM      1  C   UNL     1       4.403   6.385  16.892  0.00  0.00    +0.000 C 
ATOM      2  C   UNL     1       5.228   5.997  15.652  0.00  0.00    +0.000 C 
ATOM      3  C   UNL     1       6.644   6.014  16.159  0.00  0.00    +0.000 C 
ATOM      4  O   UNL     1       7.572   5.415  15.641  0.00  0.00    +0.000 OA
ATOM      5  N   UNL     1       6.672   6.827  17.284  0.00  0.00    +0.000 N 
ATOM      6  C   UNL     1       5.366   7.359  17.587  0.00  0.00    +0.000 C 
ENDROOT
BRANCH   1   8
ATOM      7  C   UNL     1       4.605   5.254  19.163  0.00  0.00    +0.000 C 
ATOM      8  C   UNL     1       3.919   5.164  17.774  0.00  0.00    +0.000 C 
ATOM      9  C   UNL     1       4.355   3.829  17.108  0.00  0.00    +0.000 C 
ATOM     10  C   UNL     1       3.767   2.603  17.807  0.00  0.00    +0.000 C 
ATOM     11  O   UNL     1       2.346   2.689  17.869  0.00  0.00    +0.000 OA
ATOM     12  C   UNL     1       1.897   3.822  18.609  0.00  0.00    +0.000 C 
ATOM     13  C   UNL     1       2.381   5.114  17.958  0.00  0.00    +0.000 C 
ENDBRANCH   1   8
BRANCH   5  14
ATOM     14  C   UNL     1       7.838   7.157  18.106  0.00  0.00    +0.000 C 
BRANCH  14  15
ATOM     15  C   UNL     1       8.214   8.634  18.091  0.00  0.00    +0.000 C 
BRANCH  15  16
ATOM     16  O   UNL     1       9.018   8.989  19.217  0.00  0.00    +0.000 OA
BRANCH  16  17
ATOM     17  C   UNL     1       9.418  10.305  19.228  0.00  0.00    +0.000 A 
ATOM     18  C   UNL     1       9.188  10.991  20.421  0.00  0.00    +0.000 A 
ATOM     19  C   UNL     1       9.544  12.335  20.541  0.00  0.00    +0.000 A 
ATOM     20  C   UNL     1      10.132  12.992  19.463  0.00  0.00    +0.000 A 
ATOM     21  F   UNL     1      10.462  14.285  19.599  0.00  0.00    +0.000 F 
ATOM     22  C   UNL     1      10.371  12.325  18.269  0.00  0.00    +0.000 A 
ATOM     23  C   UNL     1      10.016  10.978  18.151  0.00  0.00    +0.000 A 
BRANCH  22  24
ATOM     24  C   UNL     1      10.971  13.009  17.162  0.00  0.00    +0.000 C 
ATOM     25  N   UNL     1      11.417  13.581  16.259  0.00  0.00    +0.000 NA
ENDBRANCH  22  24
ENDBRANCH  16  17
ENDBRANCH  15  16
ENDBRANCH  14  15
ENDBRANCH   5  14
TORSDOF 6
ENDMDL
MODEL 4
REMARK VINA RESULT:      -7.7      5.366      6.878
REMARK  Name = 
REMARK  7 active torsions:
REMARK  status: ('A' for Active; 'I' for Inactive)
REMARK    1  A    between atoms: C_1  and  C_2
REMARK    2  A    between atoms: C_2  and  C_3
REMARK    3  A    between atoms: N_7  and  C_8
REMARK    4  A    between atoms: C_8  and  C_9
REMARK    5  A    between atoms: C_9  and  O_10
REMARK    6  A    between atoms: O_10  and  C_11
REMARK    7  A    between atoms: C_16  and  C_17
REMARK                            x       y       z     vdW  Elec       q    Type
REMARK                         _______ _______ _______ _____ _____    ______ ____
ROOT
ATOM      1  C   UNL     1       3.984   3.384  17.914  0.00  0.00    +0.000 C 
ATOM      2  C   UNL     1       5.196   3.509  18.855  0.00  0.00    +0.000 C 
ATOM      3  C   UNL     1       5.493   4.984  18.843  0.00  0.00    +0.000 C 
ATOM      4  O   UNL     1       6.108   5.573  19.717  0.00  0.00    +0.000 OA
ATOM      5  N   UNL     1       4.952   5.507  17.676  0.00  0.00    +0.000 N 
ATOM      6  C   UNL     1       4.294   4.489  16.894  0.00  0.00    +0.000 C 
ENDROOT
BRANCH   1   8
ATOM      7  C   UNL     1       1.652   4.391  17.761  0.00  0.00    +0.000 C 
ATOM      8  C   UNL     1       2.577   3.496  18.629  0.00  0.00    +0.000 C 
ATOM      9  C   UNL     1       2.745   4.180  20.015  0.00  0.00    +0.000 C 
ATOM     10  C   UNL     1       1.459   4.161  20.840  0.00  0.00    +0.000 C 
ATOM     11  O   UNL     1       0.978   2.828  20.995  0.00  0.00    +0.000 OA
ATOM     12  C   UNL     1       0.660   2.212  19.751  0.00  0.00    +0.000 C 
ATOM     13  C   UNL     1       1.899   2.123  18.864  0.00  0.00    +0.000 C 
ENDBRANCH   1   8
BRANCH   5  14
ATOM     14  C   UNL     1       5.006   6.899  17.225  0.00  0.00    +0.000 C 
BRANCH  14  15
ATOM     15  C   UNL     1       3.695   7.658  17.389  0.00  0.00    +0.000 C 
BRANCH  15  16
ATOM     16  O   UNL     1       2.963   7.215  18.533  0.00  0.00    +0.000 OA
BRANCH  16  17
ATOM     17  C   UNL     1       2.080   8.146  19.028  0.00  0.00    +0.000 A 
ATOM     18  C   UNL     1       1.478   8.968  18.074  0.00  0.00    +0.000 A 
ATOM     19  C   UNL     1       0.573   9.955  18.465  0.00  0.00    +0.000 A 
ATOM     20  C   UNL     1       0.272  10.120  19.815  0.00  0.00    +0.000 A 
ATOM     21  F   UNL     1      -0.598  11.078  20.168  0.00  0.00    +0.000 F 
ATOM     22  C   UNL     1       0.858   9.310  20.778  0.00  0.00    +0.000 A 
ATOM     23  C   UNL     1       1.763   8.319  20.384  0.00  0.00    +0.000 A 
BRANCH  22  24
ATOM     24  C   UNL     1       0.547   9.489  22.164  0.00  0.00    +0.000 C 
ATOM     25  N   UNL     1       0.254   9.635  23.276  0.00  0.00    +0.000 NA
ENDBRANCH  22  24
ENDBRANCH  16  17
ENDBRANCH  15  16
ENDBRANCH  14  15
ENDBRANCH   5  14
TORSDOF 6
ENDMDL
MODEL 5
REMARK VINA RESULT:      -7.6      0.820      1.353
REMARK  Name = 
REMARK  7 active torsions:
REMARK  status: ('A' for Active; 'I' for Inactive)
REMARK    1  A    between atoms: C_1  and  C_2
REMARK    2  A    between atoms: C_2  and  C_3
REMARK    3  A    between atoms: N_7  and  C_8
REMARK    4  A    between atoms: C_8  and  C_9
REMARK    5  A    between atoms: C_9  and  O_10
REMARK    6  A    between atoms: O_10  and  C_11
REMARK    7  A    between atoms: C_16  and  C_17
REMARK                            x       y       z     vdW  Elec       q    Type
REMARK                         _______ _______ _______ _____ _____    ______ ____
ROOT
ATOM      1  C   UNL     1       4.591   5.388  16.793  0.00  0.00    +0.000 C 
ATOM      2  C   UNL     1       5.720   4.547  16.170  0.00  0.00    +0.000 C 
ATOM      3  C   UNL     1       6.937   4.972  16.946  0.00  0.00    +0.000 C 
ATOM      4  O   UNL     1       7.956   4.309  17.053  0.00  0.00    +0.000 OA
ATOM      5  N   UNL     1       6.671   6.226  17.482  0.00  0.00    +0.000 N 
ATOM      6  C   UNL     1       5.348   6.681  17.134  0.00  0.00    +0.000 C 
ENDROOT
BRANCH   1   8
ATOM      7  C   UNL     1       4.551   3.355  18.323  0.00  0.00    +0.000 C 
ATOM      8  C   UNL     1       3.845   4.700  18.007  0.00  0.00    +0.000 C 
ATOM      9  C   UNL     1       2.374   4.390  17.611  0.00  0.00    +0.000 C 
ATOM     10  C   UNL     1       1.541   3.890  18.791  0.00  0.00    +0.000 C 
ATOM     11  O   UNL     1       1.582   4.821  19.869  0.00  0.00    +0.000 OA
ATOM     12  C   UNL     1       2.901   5.020  20.372  0.00  0.00    +0.000 C 
ATOM     13  C   UNL     1       3.810   5.580  19.282  0.00  0.00    +0.000 C 
ENDBRANCH   1   8
BRANCH   5  14
ATOM     14  C   UNL     1       7.569   7.044  18.298  0.00  0.00    +0.000 C 
BRANCH  14  15
ATOM     15  C   UNL     1       8.269   8.158  17.529  0.00  0.00    +0.000 C 
BRANCH  15  16
ATOM     16  O   UNL     1       7.793   9.450  17.912  0.00  0.00    +0.000 OA
BRANCH  16  17
ATOM     17  C   UNL     1       8.774  10.292  18.381  0.00  0.00    +0.000 A 
ATOM     18  C   UNL     1       9.153  10.090  19.709  0.00  0.00    +0.000 A 
ATOM     19  C   UNL     1      10.133  10.895  20.292  0.00  0.00    +0.000 A 
ATOM     20  C   UNL     1      10.732  11.905  19.543  0.00  0.00    +0.000 A 
ATOM     21  F   UNL     1      11.667  12.669  20.126  0.00  0.00    +0.000 F 
ATOM     22  C   UNL     1      10.370  12.119  18.220  0.00  0.00    +0.000 A 
ATOM     23  C   UNL     1       9.390  11.310  17.636  0.00  0.00    +0.000 A 
BRANCH  22  24
ATOM     24  C   UNL     1      10.986  13.163  17.459  0.00  0.00    +0.000 C 
ATOM     25  N   UNL     1      11.484  13.982  16.808  0.00  0.00    +0.000 NA
ENDBRANCH  22  24
ENDBRANCH  16  17
ENDBRANCH  15  16
ENDBRANCH  14  15
ENDBRANCH   5  14
TORSDOF 6
ENDMDL
MODEL 6
REMARK VINA RESULT:      -7.6      5.542      7.616
REMARK  Name = 
REMARK  7 active torsions:
REMARK  status: ('A' for Active; 'I' for Inactive)
REMARK    1  A    between atoms: C_1  and  C_2
REMARK    2  A    between atoms: C_2  and  C_3
REMARK    3  A    between atoms: N_7  and  C_8
REMARK    4  A    between atoms: C_8  and  C_9
REMARK    5  A    between atoms: C_9  and  O_10
REMARK    6  A    between atoms: O_10  and  C_11
REMARK    7  A    between atoms: C_16  and  C_17
REMARK                            x       y       z     vdW  Elec       q    Type
REMARK                         _______ _______ _______ _____ _____    ______ ____
ROOT
ATOM      1  C   UNL     1       4.688   3.303  18.587  0.00  0.00    +0.000 C 
ATOM      2  C   UNL     1       3.696   2.660  17.601  0.00  0.00    +0.000 C 
ATOM      3  C   UNL     1       2.376   3.270  17.990  0.00  0.00    +0.000 C 
ATOM      4  O   UNL     1       1.405   3.343  17.256  0.00  0.00    +0.000 OA
ATOM      5  N   UNL     1       2.491   3.704  19.304  0.00  0.00    +0.000 N 
ATOM      6  C   UNL     1       3.806   3.442  19.837  0.00  0.00    +0.000 C 
ENDROOT
BRANCH   1   8
ATOM      7  C   UNL     1       5.790   5.481  19.309  0.00  0.00    +0.000 C 
ATOM      8  C   UNL     1       5.354   4.645  18.076  0.00  0.00    +0.000 C 
ATOM      9  C   UNL     1       4.313   5.476  17.275  0.00  0.00    +0.000 C 
ATOM     10  C   UNL     1       4.932   6.698  16.597  0.00  0.00    +0.000 C 
ATOM     11  O   UNL     1       6.018   6.314  15.757  0.00  0.00    +0.000 OA
ATOM     12  C   UNL     1       7.073   5.684  16.479  0.00  0.00    +0.000 C 
ATOM     13  C   UNL     1       6.575   4.408  17.151  0.00  0.00    +0.000 C 
ENDBRANCH   1   8
BRANCH   5  14
ATOM     14  C   UNL     1       1.455   4.347  20.114  0.00  0.00    +0.000 C 
BRANCH  14  15
ATOM     15  C   UNL     1       1.914   5.617  20.821  0.00  0.00    +0.000 C 
BRANCH  15  16
ATOM     16  O   UNL     1       2.435   6.578  19.901  0.00  0.00    +0.000 OA
BRANCH  16  17
ATOM     17  C   UNL     1       1.833   7.812  19.979  0.00  0.00    +0.000 A 
ATOM     18  C   UNL     1       1.841   8.558  18.799  0.00  0.00    +0.000 A 
ATOM     19  C   UNL     1       1.267   9.830  18.766  0.00  0.00    +0.000 A 
ATOM     20  C   UNL     1       0.686  10.355  19.917  0.00  0.00    +0.000 A 
ATOM     21  F   UNL     1       0.145  11.581  19.863  0.00  0.00    +0.000 F 
ATOM     22  C   UNL     1       0.666   9.627  21.099  0.00  0.00    +0.000 A 
ATOM     23  C   UNL     1       1.238   8.351  21.130  0.00  0.00    +0.000 A 
BRANCH  22  24
ATOM     24  C   UNL     1       0.071  10.176  22.280  0.00  0.00    +0.000 C 
ATOM     25  N   UNL     1      -0.410  10.581  23.253  0.00  0.00    +0.000 NA
ENDBRANCH  22  24
ENDBRANCH  16  17
ENDBRANCH  15  16
ENDBRANCH  14  15
ENDBRANCH   5  14
TORSDOF 6
ENDMDL
MODEL 7
REMARK VINA RESULT:      -7.6      1.869      2.136
REMARK  Name = 
REMARK  7 active torsions:
REMARK  status: ('A' for Active; 'I' for Inactive)
REMARK    1  A    between atoms: C_1  and  C_2
REMARK    2  A    between atoms: C_2  and  C_3
REMARK    3  A    between atoms: N_7  and  C_8
REMARK    4  A    between atoms: C_8  and  C_9
REMARK    5  A    between atoms: C_9  and  O_10
REMARK    6  A    between atoms: O_10  and  C_11
REMARK    7  A    between atoms: C_16  and  C_17
REMARK                            x       y       z     vdW  Elec       q    Type
REMARK                         _______ _______ _______ _____ _____    ______ ____
ROOT
ATOM      1  C   UNL     1       4.533   5.904  16.678  0.00  0.00    +0.000 C 
ATOM      2  C   UNL     1       5.544   5.167  15.781  0.00  0.00    +0.000 C 
ATOM      3  C   UNL     1       6.862   5.425  16.460  0.00  0.00    +0.000 C 
ATOM      4  O   UNL     1       7.858   4.736  16.322  0.00  0.00    +0.000 OA
ATOM      5  N   UNL     1       6.712   6.568  17.236  0.00  0.00    +0.000 N 
ATOM      6  C   UNL     1       5.375   7.101  17.141  0.00  0.00    +0.000 C 
ENDROOT
BRANCH   1   8
ATOM      7  C   UNL     1       4.499   5.502  19.191  0.00  0.00    +0.000 C 
ATOM      8  C   UNL     1       3.911   5.023  17.836  0.00  0.00    +0.000 C 
ATOM      9  C   UNL     1       4.312   3.535  17.638  0.00  0.00    +0.000 C 
ATOM     10  C   UNL     1       3.600   2.598  18.614  0.00  0.00    +0.000 C 
ATOM     11  O   UNL     1       2.186   2.752  18.522  0.00  0.00    +0.000 OA
ATOM     12  C   UNL     1       1.755   4.070  18.850  0.00  0.00    +0.000 C 
ATOM     13  C   UNL     1       2.363   5.088  17.890  0.00  0.00    +0.000 C 
ENDBRANCH   1   8
BRANCH   5  14
ATOM     14  C   UNL     1       7.733   7.211  18.064  0.00  0.00    +0.000 C 
BRANCH  14  15
ATOM     15  C   UNL     1       7.838   8.719  17.864  0.00  0.00    +0.000 C 
BRANCH  15  16
ATOM     16  O   UNL     1       9.017   9.254  18.468  0.00  0.00    +0.000 OA
BRANCH  16  17
ATOM     17  C   UNL     1       9.237  10.582  18.189  0.00  0.00    +0.000 A 
ATOM     18  C   UNL     1      10.576  10.952  18.055  0.00  0.00    +0.000 A 
ATOM     19  C   UNL     1      10.917  12.277  17.781  0.00  0.00    +0.000 A 
ATOM     20  C   UNL     1       9.914  13.233  17.643  0.00  0.00    +0.000 A 
ATOM     21  F   UNL     1      10.265  14.502  17.385  0.00  0.00    +0.000 F 
ATOM     22  C   UNL     1       8.576  12.884  17.770  0.00  0.00    +0.000 A 
ATOM     23  C   UNL     1       8.236  11.555  18.041  0.00  0.00    +0.000 A 
BRANCH  22  24
ATOM     24  C   UNL     1       7.551  13.874  17.631  0.00  0.00    +0.000 C 
ATOM     25  N   UNL     1       6.701  14.657  17.553  0.00  0.00    +0.000 NA
ENDBRANCH  22  24
ENDBRANCH  16  17
ENDBRANCH  15  16
ENDBRANCH  14  15
ENDBRANCH   5  14
TORSDOF 6
ENDMDL
MODEL 8
REMARK VINA RESULT:      -7.5      1.362      1.390
REMARK  Name = 
REMARK  7 active torsions:
REMARK  status: ('A' for Active; 'I' for Inactive)
REMARK    1  A    between atoms: C_1  and  C_2
REMARK    2  A    between atoms: C_2  and  C_3
REMARK    3  A    between atoms: N_7  and  C_8
REMARK    4  A    between atoms: C_8  and  C_9
REMARK    5  A    between atoms: C_9  and  O_10
REMARK    6  A    between atoms: O_10  and  C_11
REMARK    7  A    between atoms: C_16  and  C_17
REMARK                            x       y       z     vdW  Elec       q    Type
REMARK                         _______ _______ _______ _____ _____    ______ ____
ROOT
ATOM      1  C   UNL     1       5.079   5.188  16.481  0.00  0.00    +0.000 C 
ATOM      2  C   UNL     1       6.263   4.228  16.262  0.00  0.00    +0.000 C 
ATOM      3  C   UNL     1       7.335   4.793  17.154  0.00  0.00    +0.000 C 
ATOM      4  O   UNL     1       8.285   4.158  17.581  0.00  0.00    +0.000 OA
ATOM      5  N   UNL     1       7.033   6.131  17.370  0.00  0.00    +0.000 N 
ATOM      6  C   UNL     1       5.819   6.517  16.694  0.00  0.00    +0.000 C 
ENDROOT
BRANCH   1   8
ATOM      7  C   UNL     1       3.640   6.048  18.396  0.00  0.00    +0.000 C 
ATOM      8  C   UNL     1       4.092   4.767  17.644  0.00  0.00    +0.000 C 
ATOM      9  C   UNL     1       4.833   3.851  18.657  0.00  0.00    +0.000 C 
ATOM     10  C   UNL     1       3.896   3.259  19.709  0.00  0.00    +0.000 C 
ATOM     11  O   UNL     1       2.823   2.554  19.091  0.00  0.00    +0.000 OA
ATOM     12  C   UNL     1       2.016   3.395  18.270  0.00  0.00    +0.000 C 
ATOM     13  C   UNL     1       2.846   3.995  17.140  0.00  0.00    +0.000 C 
ENDBRANCH   1   8
BRANCH   5  14
ATOM     14  C   UNL     1       7.803   7.092  18.162  0.00  0.00    +0.000 C 
BRANCH  14  15
ATOM     15  C   UNL     1       7.584   8.547  17.762  0.00  0.00    +0.000 C 
BRANCH  15  16
ATOM     16  O   UNL     1       8.820   9.229  17.541  0.00  0.00    +0.000 OA
BRANCH  16  17
ATOM     17  C   UNL     1       8.984  10.356  18.312  0.00  0.00    +0.000 A 
ATOM     18  C   UNL     1       9.303  10.124  19.651  0.00  0.00    +0.000 A 
ATOM     19  C   UNL     1       9.483  11.195  20.527  0.00  0.00    +0.000 A 
ATOM     20  C   UNL     1       9.340  12.500  20.062  0.00  0.00    +0.000 A 
ATOM     21  F   UNL     1       9.512  13.513  20.923  0.00  0.00    +0.000 F 
ATOM     22  C   UNL     1       9.025  12.750  18.733  0.00  0.00    +0.000 A 
ATOM     23  C   UNL     1       8.849  11.676  17.854  0.00  0.00    +0.000 A 
BRANCH  22  24
ATOM     24  C   UNL     1       8.875  14.094  18.263  0.00  0.00    +0.000 C 
ATOM     25  N   UNL     1       8.791  15.178  17.862  0.00  0.00    +0.000 NA
ENDBRANCH  22  24
ENDBRANCH  16  17
ENDBRANCH  15  16
ENDBRANCH  14  15
ENDBRANCH   5  14
TORSDOF 6
ENDMDL
MODEL 9
REMARK VINA RESULT:      -7.5      1.912      2.545
REMARK  Name = 
REMARK  7 active torsions:
REMARK  status: ('A' for Active; 'I' for Inactive)
REMARK    1  A    between atoms: C_1  and  C_2
REMARK    2  A    between atoms: C_2  and  C_3
REMARK    3  A    between atoms: N_7  and  C_8
REMARK    4  A    between atoms: C_8  and  C_9
REMARK    5  A    between atoms: C_9  and  O_10
REMARK    6  A    between atoms: O_10  and  C_11
REMARK    7  A    between atoms: C_16  and  C_17
REMARK                            x       y       z     vdW  Elec       q    Type
REMARK                         _______ _______ _______ _____ _____    ______ ____
ROOT
ATOM      1  C   UNL     1       4.595   5.972  16.657  0.00  0.00    +0.000 C 
ATOM      2  C   UNL     1       5.550   5.293  15.659  0.00  0.00    +0.000 C 
ATOM      3  C   UNL     1       6.888   5.386  16.343  0.00  0.00    +0.000 C 
ATOM      4  O   UNL     1       7.839   4.661  16.103  0.00  0.00    +0.000 OA
ATOM      5  N   UNL     1       6.816   6.430  17.255  0.00  0.00    +0.000 N 
ATOM      6  C   UNL     1       5.514   7.051  17.250  0.00  0.00    +0.000 C 
ENDROOT
BRANCH   1   8
ATOM      7  C   UNL     1       4.086   3.537  17.196  0.00  0.00    +0.000 C 
ATOM      8  C   UNL     1       3.932   4.994  17.709  0.00  0.00    +0.000 C 
ATOM      9  C   UNL     1       2.413   5.302  17.828  0.00  0.00    +0.000 C 
ATOM     10  C   UNL     1       1.740   4.520  18.956  0.00  0.00    +0.000 C 
ATOM     11  O   UNL     1       2.397   4.758  20.198  0.00  0.00    +0.000 OA
ATOM     12  C   UNL     1       3.760   4.343  20.185  0.00  0.00    +0.000 C 
ATOM     13  C   UNL     1       4.545   5.112  19.127  0.00  0.00    +0.000 C 
ENDBRANCH   1   8
BRANCH   5  14
ATOM     14  C   UNL     1       7.883   6.904  18.139  0.00  0.00    +0.000 C 
BRANCH  14  15
ATOM     15  C   UNL     1       8.130   8.407  18.067  0.00  0.00    +0.000 C 
BRANCH  15  16
ATOM     16  O   UNL     1       9.045   8.843  19.074  0.00  0.00    +0.000 OA
BRANCH  16  17
ATOM     17  C   UNL     1       9.187  10.209  19.148  0.00  0.00    +0.000 A 
ATOM     18  C   UNL     1       9.349  10.861  17.924  0.00  0.00    +0.000 A 
ATOM     19  C   UNL     1       9.512  12.246  17.880  0.00  0.00    +0.000 A 
ATOM     20  C   UNL     1       9.516  12.979  19.065  0.00  0.00    +0.000 A 
ATOM     21  F   UNL     1       9.680  14.308  18.999  0.00  0.00    +0.000 F 
ATOM     22  C   UNL     1       9.354  12.348  20.291  0.00  0.00    +0.000 A 
ATOM     23  C   UNL     1       9.187  10.960  20.333  0.00  0.00    +0.000 A 
BRANCH  22  24
ATOM     24  C   UNL     1       9.364  13.107  21.505  0.00  0.00    +0.000 C 
ATOM     25  N   UNL     1       9.363  13.685  22.509  0.00  0.00    +0.000 NA
ENDBRANCH  22  24
ENDBRANCH  16  17
ENDBRANCH  15  16
ENDBRANCH  14  15
ENDBRANCH   5  14
TORSDOF 6
ENDMDL
