MODEL 1
REMARK VINA RESULT:      -5.7      0.000      0.000
REMARK  Name = 
REMARK  11 active torsions:
REMARK  status: ('A' for Active; 'I' for Inactive)
REMARK    1  A    between atoms: C_1  and  C_2
REMARK    2  A    between atoms: C_2  and  C_3
REMARK    3  A    between atoms: C_2  and  C_4
REMARK    4  A    between atoms: C_4  and  C_5
REMARK    5  A    between atoms: C_5  and  C_6
REMARK    6  A    between atoms: C_6  and  C_7
REMARK    7  A    between atoms: C_7  and  C_8
REMARK    8  A    between atoms: C_7  and  C_9
REMARK    9  A    between atoms: C_9  and  O_10
REMARK   10  A    between atoms: O_10  and  S_11
REMARK   11  A    between atoms: S_11  and  O_14
REMARK                            x       y       z     vdW  Elec       q    Type
REMARK                         _______ _______ _______ _____ _____    ______ ____
ROOT
ATOM      1  C   UNL     1       3.963   4.294  17.300  0.00  0.00    +0.000 C 
ATOM      2  C   UNL     1       4.398   4.609  18.734  0.00  0.00    +0.000 C 
ENDROOT
BRANCH   1   3
ATOM      3  C   UNL     1       2.674   3.446  17.243  0.00  0.00    +0.000 C 
BRANCH   3   4
ATOM      4  C   UNL     1       1.543   4.022  18.094  0.00  0.00    +0.000 C 
BRANCH   4   5
ATOM      5  C   UNL     1       1.026   3.012  19.120  0.00  0.00    +0.000 C 
BRANCH   5   7
ATOM      6  C   UNL     1       2.145   2.774  21.360  0.00  0.00    +0.000 C 
ATOM      7  C   UNL     1       1.090   3.546  20.564  0.00  0.00    +0.000 C 
ATOM      8  C   UNL     1       1.399   5.043  20.625  0.00  0.00    +0.000 C 
ENDBRANCH   5   7
ENDBRANCH   4   5
ENDBRANCH   3   4
ENDBRANCH   1   3
BRANCH   1   9
ATOM      9  C   UNL     1       5.103   3.573  16.566  0.00  0.00    +0.000 C 
BRANCH   9  10
ATOM     10  O   UNL     1       5.572   4.384  15.499  0.00  0.00    +0.000 OA
BRANCH  10  11
ATOM     11  S   UNL     1       6.973   5.164  15.729  0.00  0.00    +0.000 S 
ATOM     12  O   UNL     1       7.676   4.503  16.805  0.00  0.00    +0.000 OA
ATOM     13  O   UNL     1       7.585   5.414  14.446  0.00  0.00    +0.000 OA
BRANCH  11  14
ATOM     14  O   UNL     1       6.478   6.572  16.336  0.00  0.00    +0.000 OA
ATOM     15  H   UNL     1       5.621   6.418  16.780  0.00  0.00    +0.000 HD
ENDBRANCH  11  14
ENDBRANCH  10  11
ENDBRANCH   9  10
ENDBRANCH   1   9
TORSDOF 8
ENDMDL
MODEL 2
REMARK VINA RESULT:      -5.7      1.370      2.030
REMARK  Name = 
REMARK  11 active torsions:
REMARK  status: ('A' for Active; 'I' for Inactive)
REMARK    1  A    between atoms: C_1  and  C_2
REMARK    2  A    between atoms: C_2  and  C_3
REMARK    3  A    between atoms: C_2  and  C_4
REMARK    4  A    between atoms: C_4  and  C_5
REMARK    5  A    between atoms: C_5  and  C_6
REMARK    6  A    between atoms: C_6  and  C_7
REMARK    7  A    between atoms: C_7  and  C_8
REMARK    8  A    between atoms: C_7  and  C_9
REMARK    9  A    between atoms: C_9  and  O_10
REMARK   10  A    between atoms: O_10  and  S_11
REMARK   11  A    between atoms: S_11  and  O_14
REMARK                            x       y       z     vdW  Elec       q    Type
REMARK                         _______ _______ _______ _____ _____    ______ ____
ROOT
ATOM      1  C   UNL     1       3.589   4.576  17.329  0.00  0.00    +0.000 C 
ATOM      2  C   UNL     1       3.015   5.883  17.885  0.00  0.00    +0.000 C 
ENDROOT
BRANCH   1   3
ATOM      3  C   UNL     1       2.589   3.403  17.417  0.00  0.00    +0.000 C 
BRANCH   3   4
ATOM      4  C   UNL     1       1.292   3.778  18.135  0.00  0.00    +0.000 C 
BRANCH   4   5
ATOM      5  C   UNL     1       0.926   2.764  19.221  0.00  0.00    +0.000 C 
BRANCH   5   7
ATOM      6  C   UNL     1       2.419   2.647  21.242  0.00  0.00    +0.000 C 
ATOM      7  C   UNL     1       1.173   3.304  20.643  0.00  0.00    +0.000 C 
ATOM      8  C   UNL     1       1.330   4.825  20.678  0.00  0.00    +0.000 C 
ENDBRANCH   5   7
ENDBRANCH   4   5
ENDBRANCH   3   4
ENDBRANCH   1   3
BRANCH   1   9
ATOM      9  C   UNL     1       4.883   4.226  18.077  0.00  0.00    +0.000 C 
BRANCH   9  10
ATOM     10  O   UNL     1       6.005   4.557  17.272  0.00  0.00    +0.000 OA
BRANCH  10  11
ATOM     11  S   UNL     1       7.305   5.153  18.032  0.00  0.00    +0.000 S 
ATOM     12  O   UNL     1       7.757   6.311  17.293  0.00  0.00    +0.000 OA
ATOM     13  O   UNL     1       7.038   5.199  19.450  0.00  0.00    +0.000 OA
BRANCH  11  14
ATOM     14  O   UNL     1       8.406   4.010  17.761  0.00  0.00    +0.000 OA
ATOM     15  H   UNL     1       9.191   4.441  17.368  0.00  0.00    +0.000 HD
ENDBRANCH  11  14
ENDBRANCH  10  11
ENDBRANCH   9  10
ENDBRANCH   1   9
TORSDOF 8
ENDMDL
MODEL 3
REMARK VINA RESULT:      -5.7      0.988      1.283
REMARK  Name = 
REMARK  11 active torsions:
REMARK  status: ('A' for Active; 'I' for Inactive)
REMARK    1  A    between atoms: C_1  and  C_2
REMARK    2  A    between atoms: C_2  and  C_3
REMARK    3  A    between atoms: C_2  and  C_4
REMARK    4  A    between atoms: C_4  and  C_5
REMARK    5  A    between atoms: C_5  and  C_6
REMARK    6  A    between atoms: C_6  and  C_7
REMARK    7  A    between atoms: C_7  and  C_8
REMARK    8  A    between atoms: C_7  and  C_9
REMARK    9  A    between atoms: C_9  and  O_10
REMARK   10  A    between atoms: O_10  and  S_11
REMARK   11  A    between atoms: S_11  and  O_14
REMARK                            x       y       z     vdW  Elec       q    Type
REMARK                         _______ _______ _______ _____ _____    ______ ____
ROOT
ATOM      1  C   UNL     1       3.757   4.499  17.365  0.00  0.00    +0.000 C 
ATOM      2  C   UNL     1       3.208   5.823  17.907  0.00  0.00    +0.000 C 
ENDROOT
BRANCH   1   3
ATOM      3  C   UNL     1       2.697   3.377  17.351  0.00  0.00    +0.000 C 
BRANCH   3   4
ATOM      4  C   UNL     1       1.424   3.750  18.111  0.00  0.00    +0.000 C 
BRANCH   4   5
ATOM      5  C   UNL     1       1.083   2.726  19.196  0.00  0.00    +0.000 C 
BRANCH   5   7
ATOM      6  C   UNL     1       2.119   2.651  21.486  0.00  0.00    +0.000 C 
ATOM      7  C   UNL     1       1.071   3.339  20.609  0.00  0.00    +0.000 C 
ATOM      8  C   UNL     1       1.324   4.848  20.599  0.00  0.00    +0.000 C 
ENDBRANCH   5   7
ENDBRANCH   4   5
ENDBRANCH   3   4
ENDBRANCH   1   3
BRANCH   1   9
ATOM      9  C   UNL     1       4.971   4.069  18.201  0.00  0.00    +0.000 C 
BRANCH   9  10
ATOM     10  O   UNL     1       6.043   4.976  17.990  0.00  0.00    +0.000 OA
BRANCH  10  11
ATOM     11  S   UNL     1       7.099   4.607  16.818  0.00  0.00    +0.000 S 
ATOM     12  O   UNL     1       8.316   4.149  17.450  0.00  0.00    +0.000 OA
ATOM     13  O   UNL     1       6.421   3.840  15.801  0.00  0.00    +0.000 OA
BRANCH  11  14
ATOM     14  O   UNL     1       7.447   6.058  16.211  0.00  0.00    +0.000 OA
ATOM     15  H   UNL     1       8.262   6.375  16.647  0.00  0.00    +0.000 HD
ENDBRANCH  11  14
ENDBRANCH  10  11
ENDBRANCH   9  10
ENDBRANCH   1   9
TORSDOF 8
ENDMDL
MODEL 4
REMARK VINA RESULT:      -5.6      1.842      2.221
REMARK  Name = 
REMARK  11 active torsions:
REMARK  status: ('A' for Active; 'I' for Inactive)
REMARK    1  A    between atoms: C_1  and  C_2
REMARK    2  A    between atoms: C_2  and  C_3
REMARK    3  A    between atoms: C_2  and  C_4
REMARK    4  A    between atoms: C_4  and  C_5
REMARK    5  A    between atoms: C_5  and  C_6
REMARK    6  A    between atoms: C_6  and  C_7
REMARK    7  A    between atoms: C_7  and  C_8
REMARK    8  A    between atoms: C_7  and  C_9
REMARK    9  A    between atoms: C_9  and  O_10
REMARK   10  A    between atoms: O_10  and  S_11
REMARK   11  A    between atoms: S_11  and  O_14
REMARK                            x       y       z     vdW  Elec       q    Type
REMARK                         _______ _______ _______ _____ _____    ______ ____
ROOT
ATOM      1  C   UNL     1       3.855   3.355  18.456  0.00  0.00    +0.000 C 
ATOM      2  C   UNL     1       4.138   1.889  18.799  0.00  0.00    +0.000 C 
ENDROOT
BRANCH   1   3
ATOM      3  C   UNL     1       2.720   3.515  17.422  0.00  0.00    +0.000 C 
BRANCH   3   4
ATOM      4  C   UNL     1       1.427   4.053  18.035  0.00  0.00    +0.000 C 
BRANCH   4   5
ATOM      5  C   UNL     1       0.855   3.102  19.089  0.00  0.00    +0.000 C 
BRANCH   5   7
ATOM      6  C   UNL     1       1.543   2.742  21.481  0.00  0.00    +0.000 C 
ATOM      7  C   UNL     1       0.869   3.709  20.506  0.00  0.00    +0.000 C 
ATOM      8  C   UNL     1       1.575   5.065  20.559  0.00  0.00    +0.000 C 
ENDBRANCH   5   7
ENDBRANCH   4   5
ENDBRANCH   3   4
ENDBRANCH   1   3
BRANCH   1   9
ATOM      9  C   UNL     1       5.140   4.016  17.937  0.00  0.00    +0.000 C 
BRANCH   9  10
ATOM     10  O   UNL     1       5.981   4.350  19.031  0.00  0.00    +0.000 OA
BRANCH  10  11
ATOM     11  S   UNL     1       7.294   5.242  18.704  0.00  0.00    +0.000 S 
ATOM     12  O   UNL     1       8.258   4.385  18.050  0.00  0.00    +0.000 OA
ATOM     13  O   UNL     1       6.875   6.502  18.141  0.00  0.00    +0.000 OA
BRANCH  11  14
ATOM     14  O   UNL     1       7.888   5.517  20.176  0.00  0.00    +0.000 OA
ATOM     15  H   UNL     1       7.237   5.185  20.826  0.00  0.00    +0.000 HD
ENDBRANCH  11  14
ENDBRANCH  10  11
ENDBRANCH   9  10
ENDBRANCH   1   9
TORSDOF 8
ENDMDL
MODEL 5
REMARK VINA RESULT:      -5.6      0.928      1.558
REMARK  Name = 
REMARK  11 active torsions:
REMARK  status: ('A' for Active; 'I' for Inactive)
REMARK    1  A    between atoms: C_1  and  C_2
REMARK    2  A    between atoms: C_2  and  C_3
REMARK    3  A    between atoms: C_2  and  C_4
REMARK    4  A    between atoms: C_4  and  C_5
REMARK    5  A    between atoms: C_5  and  C_6
REMARK    6  A    between atoms: C_6  and  C_7
REMARK    7  A    between atoms: C_7  and  C_8
REMARK    8  A    between atoms: C_7  and  C_9
REMARK    9  A    between atoms: C_9  and  O_10
REMARK   10  A    between atoms: O_10  and  S_11
REMARK   11  A    between atoms: S_11  and  O_14
REMARK                            x       y       z     vdW  Elec       q    Type
REMARK                         _______ _______ _______ _____ _____    ______ ____
ROOT
ATOM      1  C   UNL     1       3.837   5.099  17.964  0.00  0.00    +0.000 C 
ATOM      2  C   UNL     1       4.720   5.060  19.214  0.00  0.00    +0.000 C 
ENDROOT
BRANCH   1   3
ATOM      3  C   UNL     1       3.500   3.690  17.429  0.00  0.00    +0.000 C 
BRANCH   3   4
ATOM      4  C   UNL     1       2.123   3.198  17.875  0.00  0.00    +0.000 C 
BRANCH   4   5
ATOM      5  C   UNL     1       2.216   2.229  19.056  0.00  0.00    +0.000 C 
BRANCH   5   7
ATOM      6  C   UNL     1       2.330   2.670  21.530  0.00  0.00    +0.000 C 
ATOM      7  C   UNL     1       1.435   2.722  20.290  0.00  0.00    +0.000 C 
ATOM      8  C   UNL     1       0.886   4.139  20.113  0.00  0.00    +0.000 C 
ENDBRANCH   5   7
ENDBRANCH   4   5
ENDBRANCH   3   4
ENDBRANCH   1   3
BRANCH   1   9
ATOM      9  C   UNL     1       4.532   5.926  16.873  0.00  0.00    +0.000 C 
BRANCH   9  10
ATOM     10  O   UNL     1       5.434   5.102  16.149  0.00  0.00    +0.000 OA
BRANCH  10  11
ATOM     11  S   UNL     1       7.012   5.438  16.292  0.00  0.00    +0.000 S 
ATOM     12  O   UNL     1       7.138   6.840  16.622  0.00  0.00    +0.000 OA
ATOM     13  O   UNL     1       7.642   4.401  17.074  0.00  0.00    +0.000 OA
BRANCH  11  14
ATOM     14  O   UNL     1       7.522   5.304  14.770  0.00  0.00    +0.000 OA
ATOM     15  H   UNL     1       7.995   6.129  14.542  0.00  0.00    +0.000 HD
ENDBRANCH  11  14
ENDBRANCH  10  11
ENDBRANCH   9  10
ENDBRANCH   1   9
TORSDOF 8
ENDMDL
MODEL 6
REMARK VINA RESULT:      -5.6      0.641      1.117
REMARK  Name = 
REMARK  11 active torsions:
REMARK  status: ('A' for Active; 'I' for Inactive)
REMARK    1  A    between atoms: C_1  and  C_2
REMARK    2  A    between atoms: C_2  and  C_3
REMARK    3  A    between atoms: C_2  and  C_4
REMARK    4  A    between atoms: C_4  and  C_5
REMARK    5  A    between atoms: C_5  and  C_6
REMARK    6  A    between atoms: C_6  and  C_7
REMARK    7  A    between atoms: C_7  and  C_8
REMARK    8  A    between atoms: C_7  and  C_9
REMARK    9  A    between atoms: C_9  and  O_10
REMARK   10  A    between atoms: O_10  and  S_11
REMARK   11  A    between atoms: S_11  and  O_14
REMARK                            x       y       z     vdW  Elec       q    Type
REMARK                         _______ _______ _______ _____ _____    ______ ____
ROOT
ATOM      1  C   UNL     1       3.639   4.402  17.076  0.00  0.00    +0.000 C 
ATOM      2  C   UNL     1       3.495   5.741  17.807  0.00  0.00    +0.000 C 
ENDROOT
BRANCH   1   3
ATOM      3  C   UNL     1       2.779   3.285  17.706  0.00  0.00    +0.000 C 
BRANCH   3   4
ATOM      4  C   UNL     1       1.355   3.739  18.028  0.00  0.00    +0.000 C 
BRANCH   4   5
ATOM      5  C   UNL     1       0.889   3.235  19.396  0.00  0.00    +0.000 C 
BRANCH   5   7
ATOM      6  C   UNL     1       1.844   4.979  20.937  0.00  0.00    +0.000 C 
ATOM      7  C   UNL     1       1.917   3.511  20.511  0.00  0.00    +0.000 C 
ATOM      8  C   UNL     1       1.715   2.613  21.733  0.00  0.00    +0.000 C 
ENDBRANCH   5   7
ENDBRANCH   4   5
ENDBRANCH   3   4
ENDBRANCH   1   3
BRANCH   1   9
ATOM      9  C   UNL     1       5.116   3.985  17.057  0.00  0.00    +0.000 C 
BRANCH   9  10
ATOM     10  O   UNL     1       5.697   4.339  15.811  0.00  0.00    +0.000 OA
BRANCH  10  11
ATOM     11  S   UNL     1       7.136   5.082  15.854  0.00  0.00    +0.000 S 
ATOM     12  O   UNL     1       7.941   4.427  16.861  0.00  0.00    +0.000 OA
ATOM     13  O   UNL     1       7.601   5.279  14.503  0.00  0.00    +0.000 OA
BRANCH  11  14
ATOM     14  O   UNL     1       6.754   6.518  16.473  0.00  0.00    +0.000 OA
ATOM     15  H   UNL     1       6.134   6.367  17.214  0.00  0.00    +0.000 HD
ENDBRANCH  11  14
ENDBRANCH  10  11
ENDBRANCH   9  10
ENDBRANCH   1   9
TORSDOF 8
ENDMDL
MODEL 7
REMARK VINA RESULT:      -5.6      1.160      2.166
REMARK  Name = 
REMARK  11 active torsions:
REMARK  status: ('A' for Active; 'I' for Inactive)
REMARK    1  A    between atoms: C_1  and  C_2
REMARK    2  A    between atoms: C_2  and  C_3
REMARK    3  A    between atoms: C_2  and  C_4
REMARK    4  A    between atoms: C_4  and  C_5
REMARK    5  A    between atoms: C_5  and  C_6
REMARK    6  A    between atoms: C_6  and  C_7
REMARK    7  A    between atoms: C_7  and  C_8
REMARK    8  A    between atoms: C_7  and  C_9
REMARK    9  A    between atoms: C_9  and  O_10
REMARK   10  A    between atoms: O_10  and  S_11
REMARK   11  A    between atoms: S_11  and  O_14
REMARK                            x       y       z     vdW  Elec       q    Type
REMARK                         _______ _______ _______ _____ _____    ______ ____
ROOT
ATOM      1  C   UNL     1       4.718   4.689  18.698  0.00  0.00    +0.000 C 
ATOM      2  C   UNL     1       4.675   3.246  19.209  0.00  0.00    +0.000 C 
ENDROOT
BRANCH   1   3
ATOM      3  C   UNL     1       3.710   5.607  19.423  0.00  0.00    +0.000 C 
BRANCH   3   4
ATOM      4  C   UNL     1       2.256   5.211  19.170  0.00  0.00    +0.000 C 
BRANCH   4   5
ATOM      5  C   UNL     1       1.493   4.971  20.475  0.00  0.00    +0.000 C 
BRANCH   5   7
ATOM      6  C   UNL     1       0.976   2.837  19.248  0.00  0.00    +0.000 C 
ATOM      7  C   UNL     1       1.009   3.515  20.620  0.00  0.00    +0.000 C 
ATOM      8  C   UNL     1       1.880   2.697  21.574  0.00  0.00    +0.000 C 
ENDBRANCH   5   7
ENDBRANCH   4   5
ENDBRANCH   3   4
ENDBRANCH   1   3
BRANCH   1   9
ATOM      9  C   UNL     1       4.455   4.704  17.186  0.00  0.00    +0.000 C 
BRANCH   9  10
ATOM     10  O   UNL     1       5.376   3.845  16.531  0.00  0.00    +0.000 OA
BRANCH  10  11
ATOM     11  S   UNL     1       6.472   4.541  15.563  0.00  0.00    +0.000 S 
ATOM     12  O   UNL     1       5.931   5.809  15.125  0.00  0.00    +0.000 OA
ATOM     13  O   UNL     1       7.775   4.427  16.172  0.00  0.00    +0.000 OA
BRANCH  11  14
ATOM     14  O   UNL     1       6.433   3.584  14.268  0.00  0.00    +0.000 OA
ATOM     15  H   UNL     1       6.707   2.690  14.552  0.00  0.00    +0.000 HD
ENDBRANCH  11  14
ENDBRANCH  10  11
ENDBRANCH   9  10
ENDBRANCH   1   9
TORSDOF 8
ENDMDL
MODEL 8
REMARK VINA RESULT:      -5.5      1.645      2.338
REMARK  Name = 
REMARK  11 active torsions:
REMARK  status: ('A' for Active; 'I' for Inactive)
REMARK    1  A    between atoms: C_1  and  C_2
REMARK    2  A    between atoms: C_2  and  C_3
REMARK    3  A    between atoms: C_2  and  C_4
REMARK    4  A    between atoms: C_4  and  C_5
REMARK    5  A    between atoms: C_5  and  C_6
REMARK    6  A    between atoms: C_6  and  C_7
REMARK    7  A    between atoms: C_7  and  C_8
REMARK    8  A    between atoms: C_7  and  C_9
REMARK    9  A    between atoms: C_9  and  O_10
REMARK   10  A    between atoms: O_10  and  S_11
REMARK   11  A    between atoms: S_11  and  O_14
REMARK                            x       y       z     vdW  Elec       q    Type
REMARK                         _______ _______ _______ _____ _____    ______ ____
ROOT
ATOM      1  C   UNL     1       3.654   5.931  17.607  0.00  0.00    +0.000 C 
ATOM      2  C   UNL     1       2.645   7.017  17.993  0.00  0.00    +0.000 C 
ENDROOT
BRANCH   1   3
ATOM      3  C   UNL     1       3.020   4.525  17.540  0.00  0.00    +0.000 C 
BRANCH   3   4
ATOM      4  C   UNL     1       1.566   4.505  18.014  0.00  0.00    +0.000 C 
BRANCH   4   5
ATOM      5  C   UNL     1       1.272   3.297  18.906  0.00  0.00    +0.000 C 
BRANCH   5   7
ATOM      6  C   UNL     1       1.568   2.657  21.320  0.00  0.00    +0.000 C 
ATOM      7  C   UNL     1       0.976   3.695  20.365  0.00  0.00    +0.000 C 
ATOM      8  C   UNL     1       1.515   5.082  20.719  0.00  0.00    +0.000 C 
ENDBRANCH   5   7
ENDBRANCH   4   5
ENDBRANCH   3   4
ENDBRANCH   1   3
BRANCH   1   9
ATOM      9  C   UNL     1       4.820   5.938  18.607  0.00  0.00    +0.000 C 
BRANCH   9  10
ATOM     10  O   UNL     1       6.047   6.096  17.909  0.00  0.00    +0.000 OA
BRANCH  10  11
ATOM     11  S   UNL     1       7.189   4.976  18.167  0.00  0.00    +0.000 S 
ATOM     12  O   UNL     1       7.774   4.640  16.888  0.00  0.00    +0.000 OA
ATOM     13  O   UNL     1       7.988   5.375  19.300  0.00  0.00    +0.000 OA
BRANCH  11  14
ATOM     14  O   UNL     1       6.311   3.694  18.592  0.00  0.00    +0.000 OA
ATOM     15  H   UNL     1       5.825   3.391  17.800  0.00  0.00    +0.000 HD
ENDBRANCH  11  14
ENDBRANCH  10  11
ENDBRANCH   9  10
ENDBRANCH   1   9
TORSDOF 8
ENDMDL
MODEL 9
REMARK VINA RESULT:      -5.5      1.261      1.620
REMARK  Name = 
REMARK  11 active torsions:
REMARK  status: ('A' for Active; 'I' for Inactive)
REMARK    1  A    between atoms: C_1  and  C_2
REMARK    2  A    between atoms: C_2  and  C_3
REMARK    3  A    between atoms: C_2  and  C_4
REMARK    4  A    between atoms: C_4  and  C_5
REMARK    5  A    between atoms: C_5  and  C_6
REMARK    6  A    between atoms: C_6  and  C_7
REMARK    7  A    between atoms: C_7  and  C_8
REMARK    8  A    between atoms: C_7  and  C_9
REMARK    9  A    between atoms: C_9  and  O_10
REMARK   10  A    between atoms: O_10  and  S_11
REMARK   11  A    between atoms: S_11  and  O_14
REMARK                            x       y       z     vdW  Elec       q    Type
REMARK                         _______ _______ _______ _____ _____    ______ ____
ROOT
ATOM      1  C   UNL     1       3.992   5.922  17.025  0.00  0.00    +0.000 C 
ATOM      2  C   UNL     1       3.416   6.985  17.965  0.00  0.00    +0.000 C 
ENDROOT
BRANCH   1   3
ATOM      3  C   UNL     1       3.624   4.485  17.454  0.00  0.00    +0.000 C 
BRANCH   3   4
ATOM      4  C   UNL     1       2.170   4.352  17.906  0.00  0.00    +0.000 C 
BRANCH   4   5
ATOM      5  C   UNL     1       2.005   3.301  19.005  0.00  0.00    +0.000 C 
BRANCH   5   7
ATOM      6  C   UNL     1       1.316   2.829  21.378  0.00  0.00    +0.000 C 
ATOM      7  C   UNL     1       1.236   3.836  20.229  0.00  0.00    +0.000 C 
ATOM      8  C   UNL     1       1.755   5.195  20.703  0.00  0.00    +0.000 C 
ENDBRANCH   5   7
ENDBRANCH   4   5
ENDBRANCH   3   4
ENDBRANCH   1   3
BRANCH   1   9
ATOM      9  C   UNL     1       5.517   6.077  16.951  0.00  0.00    +0.000 C 
BRANCH   9  10
ATOM     10  O   UNL     1       5.942   5.988  15.598  0.00  0.00    +0.000 OA
BRANCH  10  11
ATOM     11  S   UNL     1       6.994   4.812  15.234  0.00  0.00    +0.000 S 
ATOM     12  O   UNL     1       7.795   4.555  16.411  0.00  0.00    +0.000 OA
ATOM     13  O   UNL     1       6.298   3.762  14.531  0.00  0.00    +0.000 OA
BRANCH  11  14
ATOM     14  O   UNL     1       7.978   5.551  14.195  0.00  0.00    +0.000 OA
ATOM     15  H   UNL     1       7.451   6.217  13.710  0.00  0.00    +0.000 HD
ENDBRANCH  11  14
ENDBRANCH  10  11
ENDBRANCH   9  10
ENDBRANCH   1   9
TORSDOF 8
ENDMDL
