MODEL 1
REMARK VINA RESULT:      -8.3      0.000      0.000
REMARK  Name = 
REMARK  14 active torsions:
REMARK  status: ('A' for Active; 'I' for Inactive)
REMARK    1  A    between atoms: C_1  and  C_2
REMARK    2  A    between atoms: C_3  and  C_4
REMARK    3  A    between atoms: N_6  and  N_7
REMARK    4  A    between atoms: N_7  and  C_8
REMARK    5  A    between atoms: C_8  and  N_9
REMARK    6  A    between atoms: C_12  and  C_13
REMARK    7  A    between atoms: C_14  and  C_15
REMARK    8  A    between atoms: C_18  and  N_19
REMARK    9  A    between atoms: N_19  and  C_20
REMARK   10  A    between atoms: N_19  and  C_21
REMARK   11  A    between atoms: C_24  and  C_25
REMARK   12  A    between atoms: N_27  and  N_28
REMARK   13  A    between atoms: N_28  and  C_29
REMARK   14  A    between atoms: C_29  and  N_30
REMARK                            x       y       z     vdW  Elec       q    Type
REMARK                         _______ _______ _______ _____ _____    ______ ____
ROOT
ATOM      1  C   UNL     1       5.298   3.442  16.366  0.00  0.00    +0.000 C 
ATOM      2  C   UNL     1       6.082   4.715  16.353  0.00  0.00    +0.000 A 
ATOM      3  C   UNL     1       6.867   5.212  15.314  0.00  0.00    +0.000 A 
ATOM      4  N   UNL     1       7.538   6.315  15.811  0.00  0.00    +0.000 N 
ATOM      5  C   UNL     1       7.170   6.585  17.107  0.00  0.00    +0.000 A 
ATOM      6  C   UNL     1       6.251   5.604  17.487  0.00  0.00    +0.000 A 
ATOM      7  H   UNL     1       8.227   6.826  15.272  0.00  0.00    +0.000 HD
ENDROOT
BRANCH   3   8
ATOM      8  C   UNL     1       7.125   4.726  13.966  0.00  0.00    +0.000 C 
ATOM      9  O   UNL     1       7.817   5.344  13.162  0.00  0.00    +0.000 OA
ATOM     10  N   UNL     1       6.496   3.536  13.638  0.00  0.00    +0.000 N 
ATOM     11  H   UNL     1       5.646   3.273  14.125  0.00  0.00    +0.000 HD
BRANCH  10  12
ATOM     12  N   UNL     1       6.650   3.015  12.347  0.00  0.00    +0.000 N 
ATOM     13  H   UNL     1       7.582   3.037  11.936  0.00  0.00    +0.000 HD
BRANCH  12  14
ATOM     14  C   UNL     1       5.627   2.392  11.699  0.00  0.00    +0.000 C 
ATOM     15  S   UNL     1       4.203   3.160  11.338  0.00  0.00    +0.000 S 
BRANCH  14  16
ATOM     16  N   UNL     1       5.813   1.088  11.377  0.00  0.00    +0.000 N 
ATOM     17  H   UNL     1       6.319   0.527  12.047  0.00  0.00    +0.000 HD
ATOM     18  H   UNL     1       6.038   0.904  10.404  0.00  0.00    +0.000 HD
ENDBRANCH  14  16
ENDBRANCH  12  14
ENDBRANCH  10  12
ENDBRANCH   3   8
BRANCH   6  19
ATOM     19  C   UNL     1       5.655   5.493  18.831  0.00  0.00    +0.000 C 
ATOM     20  O   UNL     1       6.309   5.302  19.853  0.00  0.00    +0.000 OA
ATOM     21  N   UNL     1       4.277   5.652  18.868  0.00  0.00    +0.000 N 
ATOM     22  H   UNL     1       3.826   6.190  18.140  0.00  0.00    +0.000 HD
BRANCH  21  23
ATOM     23  N   UNL     1       3.650   5.677  20.121  0.00  0.00    +0.000 N 
ATOM     24  H   UNL     1       4.207   5.395  20.929  0.00  0.00    +0.000 HD
BRANCH  23  25
ATOM     25  C   UNL     1       2.306   5.852  20.249  0.00  0.00    +0.000 C 
ATOM     26  S   UNL     1       1.631   7.330  20.573  0.00  0.00    +0.000 S 
BRANCH  25  27
ATOM     27  N   UNL     1       1.530   4.753  20.064  0.00  0.00    +0.000 N 
ATOM     28  H   UNL     1       1.487   4.091  20.823  0.00  0.00    +0.000 HD
ATOM     29  H   UNL     1       0.663   4.905  19.560  0.00  0.00    +0.000 HD
ENDBRANCH  25  27
ENDBRANCH  23  25
ENDBRANCH  21  23
ENDBRANCH   6  19
BRANCH   5  30
ATOM     30  C   UNL     1       7.725   7.678  17.838  0.00  0.00    +0.000 C 
ATOM     31  C   UNL     1       7.908   8.941  17.408  0.00  0.00    +0.000 C 
BRANCH  31  32
ATOM     32  C   UNL     1       8.515   9.989  18.267  0.00  0.00    +0.000 A 
ATOM     33  C   UNL     1       8.493  11.325  17.864  0.00  0.00    +0.000 A 
ATOM     34  C   UNL     1       9.095  12.332  18.648  0.00  0.00    +0.000 A 
ATOM     35  C   UNL     1       9.728  12.065  19.875  0.00  0.00    +0.000 A 
ATOM     36  C   UNL     1       9.704  10.723  20.277  0.00  0.00    +0.000 A 
ATOM     37  C   UNL     1       9.109   9.710  19.501  0.00  0.00    +0.000 A 
BRANCH  35  38
ATOM     38  N   UNL     1      10.374  13.056  20.602  0.00  0.00    +0.000 N 
ATOM     39  C   UNL     1      11.565  13.729  20.088  0.00  0.00    +0.000 C 
ATOM     40  C   UNL     1       9.736  13.741  21.726  0.00  0.00    +0.000 C 
ENDBRANCH  35  38
ENDBRANCH  31  32
ENDBRANCH   5  30
TORSDOF 11
ENDMDL
MODEL 2
REMARK VINA RESULT:      -8.1      0.863      1.066
REMARK  Name = 
REMARK  14 active torsions:
REMARK  status: ('A' for Active; 'I' for Inactive)
REMARK    1  A    between atoms: C_1  and  C_2
REMARK    2  A    between atoms: C_3  and  C_4
REMARK    3  A    between atoms: N_6  and  N_7
REMARK    4  A    between atoms: N_7  and  C_8
REMARK    5  A    between atoms: C_8  and  N_9
REMARK    6  A    between atoms: C_12  and  C_13
REMARK    7  A    between atoms: C_14  and  C_15
REMARK    8  A    between atoms: C_18  and  N_19
REMARK    9  A    between atoms: N_19  and  C_20
REMARK   10  A    between atoms: N_19  and  C_21
REMARK   11  A    between atoms: C_24  and  C_25
REMARK   12  A    between atoms: N_27  and  N_28
REMARK   13  A    between atoms: N_28  and  C_29
REMARK   14  A    between atoms: C_29  and  N_30
REMARK                            x       y       z     vdW  Elec       q    Type
REMARK                         _______ _______ _______ _____ _____    ______ ____
ROOT
ATOM      1  C   UNL     1       4.919   3.616  16.338  0.00  0.00    +0.000 C 
ATOM      2  C   UNL     1       5.727   4.874  16.336  0.00  0.00    +0.000 A 
ATOM      3  C   UNL     1       6.652   5.281  15.375  0.00  0.00    +0.000 A 
ATOM      4  N   UNL     1       7.278   6.409  15.875  0.00  0.00    +0.000 N 
ATOM      5  C   UNL     1       6.753   6.779  17.090  0.00  0.00    +0.000 A 
ATOM      6  C   UNL     1       5.769   5.842  17.415  0.00  0.00    +0.000 A 
ATOM      7  H   UNL     1       8.042   6.869  15.396  0.00  0.00    +0.000 HD
ENDROOT
BRANCH   3   8
ATOM      8  C   UNL     1       7.070   4.693  14.111  0.00  0.00    +0.000 C 
ATOM      9  O   UNL     1       7.999   5.145  13.447  0.00  0.00    +0.000 OA
ATOM     10  N   UNL     1       6.315   3.612  13.685  0.00  0.00    +0.000 N 
ATOM     11  H   UNL     1       5.356   3.522  14.001  0.00  0.00    +0.000 HD
BRANCH  10  12
ATOM     12  N   UNL     1       6.616   3.011  12.457  0.00  0.00    +0.000 N 
ATOM     13  H   UNL     1       7.595   2.972  12.176  0.00  0.00    +0.000 HD
BRANCH  12  14
ATOM     14  C   UNL     1       5.661   2.390  11.710  0.00  0.00    +0.000 C 
ATOM     15  S   UNL     1       4.242   3.134  11.284  0.00  0.00    +0.000 S 
BRANCH  14  16
ATOM     16  N   UNL     1       5.911   1.109  11.342  0.00  0.00    +0.000 N 
ATOM     17  H   UNL     1       5.522   0.388  11.932  0.00  0.00    +0.000 HD
ATOM     18  H   UNL     1       6.848   0.926  10.998  0.00  0.00    +0.000 HD
ENDBRANCH  14  16
ENDBRANCH  12  14
ENDBRANCH  10  12
ENDBRANCH   3   8
BRANCH   6  19
ATOM     19  C   UNL     1       5.003   5.839  18.675  0.00  0.00    +0.000 C 
ATOM     20  O   UNL     1       5.462   5.469  19.752  0.00  0.00    +0.000 OA
ATOM     21  N   UNL     1       3.706   6.321  18.565  0.00  0.00    +0.000 N 
ATOM     22  H   UNL     1       3.487   6.972  17.821  0.00  0.00    +0.000 HD
BRANCH  21  23
ATOM     23  N   UNL     1       2.952   6.460  19.737  0.00  0.00    +0.000 N 
ATOM     24  H   UNL     1       2.906   5.654  20.362  0.00  0.00    +0.000 HD
BRANCH  23  25
ATOM     25  C   UNL     1       2.135   7.529  19.945  0.00  0.00    +0.000 C 
ATOM     26  S   UNL     1       1.786   8.624  18.751  0.00  0.00    +0.000 S 
BRANCH  25  27
ATOM     27  N   UNL     1       1.584   7.641  21.180  0.00  0.00    +0.000 N 
ATOM     28  H   UNL     1       0.900   6.947  21.440  0.00  0.00    +0.000 HD
ATOM     29  H   UNL     1       2.212   7.940  21.919  0.00  0.00    +0.000 HD
ENDBRANCH  25  27
ENDBRANCH  23  25
ENDBRANCH  21  23
ENDBRANCH   6  19
BRANCH   5  30
ATOM     30  C   UNL     1       7.233   7.916  17.806  0.00  0.00    +0.000 C 
ATOM     31  C   UNL     1       8.205   8.770  17.431  0.00  0.00    +0.000 C 
BRANCH  31  32
ATOM     32  C   UNL     1       8.626   9.912  18.280  0.00  0.00    +0.000 A 
ATOM     33  C   UNL     1       8.546  11.216  17.791  0.00  0.00    +0.000 A 
ATOM     34  C   UNL     1       8.974  12.313  18.568  0.00  0.00    +0.000 A 
ATOM     35  C   UNL     1       9.482  12.171  19.871  0.00  0.00    +0.000 A 
ATOM     36  C   UNL     1       9.518  10.857  20.355  0.00  0.00    +0.000 A 
ATOM     37  C   UNL     1       9.096   9.754  19.587  0.00  0.00    +0.000 A 
BRANCH  35  38
ATOM     38  N   UNL     1       9.961  13.252  20.598  0.00  0.00    +0.000 N 
ATOM     39  C   UNL     1       9.499  13.526  21.958  0.00  0.00    +0.000 C 
ATOM     40  C   UNL     1      11.185  13.961  20.227  0.00  0.00    +0.000 C 
ENDBRANCH  35  38
ENDBRANCH  31  32
ENDBRANCH   5  30
TORSDOF 11
ENDMDL
MODEL 3
REMARK VINA RESULT:      -7.7      1.019      1.192
REMARK  Name = 
REMARK  14 active torsions:
REMARK  status: ('A' for Active; 'I' for Inactive)
REMARK    1  A    between atoms: C_1  and  C_2
REMARK    2  A    between atoms: C_3  and  C_4
REMARK    3  A    between atoms: N_6  and  N_7
REMARK    4  A    between atoms: N_7  and  C_8
REMARK    5  A    between atoms: C_8  and  N_9
REMARK    6  A    between atoms: C_12  and  C_13
REMARK    7  A    between atoms: C_14  and  C_15
REMARK    8  A    between atoms: C_18  and  N_19
REMARK    9  A    between atoms: N_19  and  C_20
REMARK   10  A    between atoms: N_19  and  C_21
REMARK   11  A    between atoms: C_24  and  C_25
REMARK   12  A    between atoms: N_27  and  N_28
REMARK   13  A    between atoms: N_28  and  C_29
REMARK   14  A    between atoms: C_29  and  N_30
REMARK                            x       y       z     vdW  Elec       q    Type
REMARK                         _______ _______ _______ _____ _____    ______ ____
ROOT
ATOM      1  C   UNL     1       5.294   3.398  16.331  0.00  0.00    +0.000 C 
ATOM      2  C   UNL     1       5.986   4.723  16.323  0.00  0.00    +0.000 A 
ATOM      3  C   UNL     1       6.763   5.263  15.299  0.00  0.00    +0.000 A 
ATOM      4  N   UNL     1       7.340   6.416  15.799  0.00  0.00    +0.000 N 
ATOM      5  C   UNL     1       6.919   6.673  17.082  0.00  0.00    +0.000 A 
ATOM      6  C   UNL     1       6.061   5.634  17.449  0.00  0.00    +0.000 A 
ATOM      7  H   UNL     1       8.005   6.969  15.272  0.00  0.00    +0.000 HD
ENDROOT
BRANCH   3   8
ATOM      8  C   UNL     1       7.091   4.782  13.964  0.00  0.00    +0.000 C 
ATOM      9  O   UNL     1       7.870   5.373  13.222  0.00  0.00    +0.000 OA
ATOM     10  N   UNL     1       6.427   3.631  13.573  0.00  0.00    +0.000 N 
ATOM     11  H   UNL     1       5.532   3.407  13.993  0.00  0.00    +0.000 HD
BRANCH  10  12
ATOM     12  N   UNL     1       6.646   3.120  12.287  0.00  0.00    +0.000 N 
ATOM     13  H   UNL     1       7.573   3.243  11.881  0.00  0.00    +0.000 HD
BRANCH  12  14
ATOM     14  C   UNL     1       5.703   2.381  11.639  0.00  0.00    +0.000 C 
ATOM     15  S   UNL     1       6.007   0.854  11.068  0.00  0.00    +0.000 S 
BRANCH  14  16
ATOM     16  N   UNL     1       4.492   2.962  11.456  0.00  0.00    +0.000 N 
ATOM     17  H   UNL     1       3.845   2.473  10.854  0.00  0.00    +0.000 HD
ATOM     18  H   UNL     1       4.501   3.971  11.349  0.00  0.00    +0.000 HD
ENDBRANCH  14  16
ENDBRANCH  12  14
ENDBRANCH  10  12
ENDBRANCH   3   8
BRANCH   6  19
ATOM     19  C   UNL     1       5.438   5.495  18.778  0.00  0.00    +0.000 C 
ATOM     20  O   UNL     1       6.075   5.351  19.818  0.00  0.00    +0.000 OA
ATOM     21  N   UNL     1       4.052   5.570  18.779  0.00  0.00    +0.000 N 
ATOM     22  H   UNL     1       3.588   6.076  18.035  0.00  0.00    +0.000 HD
BRANCH  21  23
ATOM     23  N   UNL     1       3.392   5.565  20.014  0.00  0.00    +0.000 N 
ATOM     24  H   UNL     1       3.801   6.122  20.766  0.00  0.00    +0.000 HD
BRANCH  23  25
ATOM     25  C   UNL     1       2.380   4.695  20.286  0.00  0.00    +0.000 C 
ATOM     26  S   UNL     1       2.398   3.698  21.608  0.00  0.00    +0.000 S 
BRANCH  25  27
ATOM     27  N   UNL     1       1.325   4.707  19.431  0.00  0.00    +0.000 N 
ATOM     28  H   UNL     1       1.286   5.461  18.763  0.00  0.00    +0.000 HD
ATOM     29  H   UNL     1       1.022   3.800  19.092  0.00  0.00    +0.000 HD
ENDBRANCH  25  27
ENDBRANCH  23  25
ENDBRANCH  21  23
ENDBRANCH   6  19
BRANCH   5  30
ATOM     30  C   UNL     1       7.374   7.811  17.813  0.00  0.00    +0.000 C 
ATOM     31  C   UNL     1       8.221   8.770  17.391  0.00  0.00    +0.000 C 
BRANCH  31  32
ATOM     32  C   UNL     1       8.631   9.901  18.261  0.00  0.00    +0.000 A 
ATOM     33  C   UNL     1       8.475  11.216  17.820  0.00  0.00    +0.000 A 
ATOM     34  C   UNL     1       8.891  12.304  18.617  0.00  0.00    +0.000 A 
ATOM     35  C   UNL     1       9.461  12.141  19.891  0.00  0.00    +0.000 A 
ATOM     36  C   UNL     1       9.573  10.815  20.328  0.00  0.00    +0.000 A 
ATOM     37  C   UNL     1       9.164   9.721  19.540  0.00  0.00    +0.000 A 
BRANCH  35  38
ATOM     38  N   UNL     1       9.927  13.218  20.634  0.00  0.00    +0.000 N 
ATOM     39  C   UNL     1       9.450  13.475  21.991  0.00  0.00    +0.000 C 
ATOM     40  C   UNL     1      11.150  13.938  20.282  0.00  0.00    +0.000 C 
ENDBRANCH  35  38
ENDBRANCH  31  32
ENDBRANCH   5  30
TORSDOF 11
ENDMDL
MODEL 4
REMARK VINA RESULT:      -7.6      4.715      6.369
REMARK  Name = 
REMARK  14 active torsions:
REMARK  status: ('A' for Active; 'I' for Inactive)
REMARK    1  A    between atoms: C_1  and  C_2
REMARK    2  A    between atoms: C_3  and  C_4
REMARK    3  A    between atoms: N_6  and  N_7
REMARK    4  A    between atoms: N_7  and  C_8
REMARK    5  A    between atoms: C_8  and  N_9
REMARK    6  A    between atoms: C_12  and  C_13
REMARK    7  A    between atoms: C_14  and  C_15
REMARK    8  A    between atoms: C_18  and  N_19
REMARK    9  A    between atoms: N_19  and  C_20
REMARK   10  A    between atoms: N_19  and  C_21
REMARK   11  A    between atoms: C_24  and  C_25
REMARK   12  A    between atoms: N_27  and  N_28
REMARK   13  A    between atoms: N_28  and  C_29
REMARK   14  A    between atoms: C_29  and  N_30
REMARK                            x       y       z     vdW  Elec       q    Type
REMARK                         _______ _______ _______ _____ _____    ______ ____
ROOT
ATOM      1  C   UNL     1       4.945   3.534  17.719  0.00  0.00    +0.000 C 
ATOM      2  C   UNL     1       4.468   4.935  17.507  0.00  0.00    +0.000 A 
ATOM      3  C   UNL     1       5.149   5.972  16.872  0.00  0.00    +0.000 A 
ATOM      4  N   UNL     1       4.403   7.121  17.068  0.00  0.00    +0.000 N 
ATOM      5  C   UNL     1       3.240   6.854  17.749  0.00  0.00    +0.000 A 
ATOM      6  C   UNL     1       3.238   5.488  18.041  0.00  0.00    +0.000 A 
ATOM      7  H   UNL     1       4.712   8.034  16.758  0.00  0.00    +0.000 HD
ENDROOT
BRANCH   3   8
ATOM      8  C   UNL     1       6.438   6.025  16.197  0.00  0.00    +0.000 C 
ATOM      9  O   UNL     1       7.403   6.626  16.662  0.00  0.00    +0.000 OA
ATOM     10  N   UNL     1       6.487   5.386  14.969  0.00  0.00    +0.000 N 
ATOM     11  H   UNL     1       5.633   5.270  14.436  0.00  0.00    +0.000 HD
BRANCH  10  12
ATOM     12  N   UNL     1       7.674   5.423  14.227  0.00  0.00    +0.000 N 
ATOM     13  H   UNL     1       8.551   5.508  14.740  0.00  0.00    +0.000 HD
BRANCH  12  14
ATOM     14  C   UNL     1       7.682   5.235  12.878  0.00  0.00    +0.000 C 
ATOM     15  S   UNL     1       6.970   3.921  12.159  0.00  0.00    +0.000 S 
BRANCH  14  16
ATOM     16  N   UNL     1       8.327   6.168  12.135  0.00  0.00    +0.000 N 
ATOM     17  H   UNL     1       9.324   6.047  12.028  0.00  0.00    +0.000 HD
ATOM     18  H   UNL     1       8.021   7.126  12.272  0.00  0.00    +0.000 HD
ENDBRANCH  14  16
ENDBRANCH  12  14
ENDBRANCH  10  12
ENDBRANCH   3   8
BRANCH   6  19
ATOM     19  C   UNL     1       2.192   4.803  18.822  0.00  0.00    +0.000 C 
ATOM     20  O   UNL     1       1.266   4.172  18.318  0.00  0.00    +0.000 OA
ATOM     21  N   UNL     1       2.343   4.896  20.199  0.00  0.00    +0.000 N 
ATOM     22  H   UNL     1       3.268   5.044  20.581  0.00  0.00    +0.000 HD
BRANCH  21  23
ATOM     23  N   UNL     1       1.457   4.174  21.010  0.00  0.00    +0.000 N 
ATOM     24  H   UNL     1       0.616   4.656  21.328  0.00  0.00    +0.000 HD
BRANCH  23  25
ATOM     25  C   UNL     1       1.790   2.964  21.539  0.00  0.00    +0.000 C 
ATOM     26  S   UNL     1       3.235   2.221  21.215  0.00  0.00    +0.000 S 
BRANCH  25  27
ATOM     27  N   UNL     1       0.887   2.402  22.382  0.00  0.00    +0.000 N 
ATOM     28  H   UNL     1       0.940   2.670  23.353  0.00  0.00    +0.000 HD
ATOM     29  H   UNL     1      -0.048   2.278  22.009  0.00  0.00    +0.000 HD
ENDBRANCH  25  27
ENDBRANCH  23  25
ENDBRANCH  21  23
ENDBRANCH   6  19
BRANCH   5  30
ATOM     30  C   UNL     1       2.300   7.880  18.070  0.00  0.00    +0.000 C 
ATOM     31  C   UNL     1       2.444   9.207  17.890  0.00  0.00    +0.000 C 
BRANCH  31  32
ATOM     32  C   UNL     1       1.391  10.176  18.284  0.00  0.00    +0.000 A 
ATOM     33  C   UNL     1       1.738  11.477  18.652  0.00  0.00    +0.000 A 
ATOM     34  C   UNL     1       0.757  12.404  19.064  0.00  0.00    +0.000 A 
ATOM     35  C   UNL     1      -0.612  12.092  19.111  0.00  0.00    +0.000 A 
ATOM     36  C   UNL     1      -0.941  10.793  18.702  0.00  0.00    +0.000 A 
ATOM     37  C   UNL     1       0.030   9.859  18.292  0.00  0.00    +0.000 A 
BRANCH  35  38
ATOM     38  N   UNL     1      -1.558  12.993  19.583  0.00  0.00    +0.000 N 
ATOM     39  C   UNL     1      -2.877  12.552  20.032  0.00  0.00    +0.000 C 
ATOM     40  C   UNL     1      -1.204  14.348  20.001  0.00  0.00    +0.000 C 
ENDBRANCH  35  38
ENDBRANCH  31  32
ENDBRANCH   5  30
TORSDOF 11
ENDMDL
MODEL 5
REMARK VINA RESULT:      -7.5      4.632      5.391
REMARK  Name = 
REMARK  14 active torsions:
REMARK  status: ('A' for Active; 'I' for Inactive)
REMARK    1  A    between atoms: C_1  and  C_2
REMARK    2  A    between atoms: C_3  and  C_4
REMARK    3  A    between atoms: N_6  and  N_7
REMARK    4  A    between atoms: N_7  and  C_8
REMARK    5  A    between atoms: C_8  and  N_9
REMARK    6  A    between atoms: C_12  and  C_13
REMARK    7  A    between atoms: C_14  and  C_15
REMARK    8  A    between atoms: C_18  and  N_19
REMARK    9  A    between atoms: N_19  and  C_20
REMARK   10  A    between atoms: N_19  and  C_21
REMARK   11  A    between atoms: C_24  and  C_25
REMARK   12  A    between atoms: N_27  and  N_28
REMARK   13  A    between atoms: N_28  and  C_29
REMARK   14  A    between atoms: C_29  and  N_30
REMARK                            x       y       z     vdW  Elec       q    Type
REMARK                         _______ _______ _______ _____ _____    ______ ____
ROOT
ATOM      1  C   UNL     1       4.436   3.129  17.309  0.00  0.00    +0.000 C 
ATOM      2  C   UNL     1       4.316   4.602  17.079  0.00  0.00    +0.000 A 
ATOM      3  C   UNL     1       5.058   5.380  16.191  0.00  0.00    +0.000 A 
ATOM      4  N   UNL     1       4.731   6.699  16.446  0.00  0.00    +0.000 N 
ATOM      5  C   UNL     1       3.764   6.799  17.417  0.00  0.00    +0.000 A 
ATOM      6  C   UNL     1       3.470   5.501  17.839  0.00  0.00    +0.000 A 
ATOM      7  H   UNL     1       5.181   7.476  15.976  0.00  0.00    +0.000 HD
ENDROOT
BRANCH   3   8
ATOM      8  C   UNL     1       6.086   5.039  15.217  0.00  0.00    +0.000 C 
ATOM      9  O   UNL     1       7.259   5.381  15.347  0.00  0.00    +0.000 OA
ATOM     10  N   UNL     1       5.638   4.340  14.109  0.00  0.00    +0.000 N 
ATOM     11  H   UNL     1       4.669   4.430  13.823  0.00  0.00    +0.000 HD
BRANCH  10  12
ATOM     12  N   UNL     1       6.548   4.009  13.097  0.00  0.00    +0.000 N 
ATOM     13  H   UNL     1       7.501   4.360  13.185  0.00  0.00    +0.000 HD
BRANCH  12  14
ATOM     14  C   UNL     1       6.220   3.154  12.089  0.00  0.00    +0.000 C 
ATOM     15  S   UNL     1       4.690   3.072  11.455  0.00  0.00    +0.000 S 
BRANCH  14  16
ATOM     16  N   UNL     1       7.204   2.341  11.632  0.00  0.00    +0.000 N 
ATOM     17  H   UNL     1       8.111   2.766  11.497  0.00  0.00    +0.000 HD
ATOM     18  H   UNL     1       6.928   1.677  10.916  0.00  0.00    +0.000 HD
ENDBRANCH  14  16
ENDBRANCH  12  14
ENDBRANCH  10  12
ENDBRANCH   3   8
BRANCH   6  19
ATOM     19  C   UNL     1       2.525   5.168  18.922  0.00  0.00    +0.000 C 
ATOM     20  O   UNL     1       1.304   5.199  18.794  0.00  0.00    +0.000 OA
ATOM     21  N   UNL     1       3.122   4.781  20.113  0.00  0.00    +0.000 N 
ATOM     22  H   UNL     1       4.050   4.378  20.087  0.00  0.00    +0.000 HD
BRANCH  21  23
ATOM     23  N   UNL     1       2.294   4.337  21.152  0.00  0.00    +0.000 N 
ATOM     24  H   UNL     1       2.168   4.961  21.949  0.00  0.00    +0.000 HD
BRANCH  23  25
ATOM     25  C   UNL     1       1.848   3.052  21.217  0.00  0.00    +0.000 C 
ATOM     26  S   UNL     1       1.950   2.011  19.932  0.00  0.00    +0.000 S 
BRANCH  25  27
ATOM     27  N   UNL     1       1.340   2.646  22.409  0.00  0.00    +0.000 N 
ATOM     28  H   UNL     1       0.790   1.800  22.407  0.00  0.00    +0.000 HD
ATOM     29  H   UNL     1       1.942   2.779  23.214  0.00  0.00    +0.000 HD
ENDBRANCH  25  27
ENDBRANCH  23  25
ENDBRANCH  21  23
ENDBRANCH   6  19
BRANCH   5  30
ATOM     30  C   UNL     1       3.258   8.061  17.853  0.00  0.00    +0.000 C 
ATOM     31  C   UNL     1       1.996   8.518  17.742  0.00  0.00    +0.000 C 
BRANCH  31  32
ATOM     32  C   UNL     1       1.598   9.865  18.224  0.00  0.00    +0.000 A 
ATOM     33  C   UNL     1       2.385  10.978  17.922  0.00  0.00    +0.000 A 
ATOM     34  C   UNL     1       2.045  12.261  18.399  0.00  0.00    +0.000 A 
ATOM     35  C   UNL     1       0.902  12.505  19.180  0.00  0.00    +0.000 A 
ATOM     36  C   UNL     1       0.108  11.380  19.439  0.00  0.00    +0.000 A 
ATOM     37  C   UNL     1       0.439  10.094  18.970  0.00  0.00    +0.000 A 
BRANCH  35  38
ATOM     38  N   UNL     1       0.616  13.761  19.699  0.00  0.00    +0.000 N 
ATOM     39  C   UNL     1      -0.188  14.730  18.958  0.00  0.00    +0.000 C 
ATOM     40  C   UNL     1       0.773  14.073  21.118  0.00  0.00    +0.000 C 
ENDBRANCH  35  38
ENDBRANCH  31  32
ENDBRANCH   5  30
TORSDOF 11
ENDMDL
MODEL 6
REMARK VINA RESULT:      -7.4      4.783      8.071
REMARK  Name = 
REMARK  14 active torsions:
REMARK  status: ('A' for Active; 'I' for Inactive)
REMARK    1  A    between atoms: C_1  and  C_2
REMARK    2  A    between atoms: C_3  and  C_4
REMARK    3  A    between atoms: N_6  and  N_7
REMARK    4  A    between atoms: N_7  and  C_8
REMARK    5  A    between atoms: C_8  and  N_9
REMARK    6  A    between atoms: C_12  and  C_13
REMARK    7  A    between atoms: C_14  and  C_15
REMARK    8  A    between atoms: C_18  and  N_19
REMARK    9  A    between atoms: N_19  and  C_20
REMARK   10  A    between atoms: N_19  and  C_21
REMARK   11  A    between atoms: C_24  and  C_25
REMARK   12  A    between atoms: N_27  and  N_28
REMARK   13  A    between atoms: N_28  and  C_29
REMARK   14  A    between atoms: C_29  and  N_30
REMARK                            x       y       z     vdW  Elec       q    Type
REMARK                         _______ _______ _______ _____ _____    ______ ____
ROOT
ATOM      1  C   UNL     1       5.796   4.426  17.557  0.00  0.00    +0.000 C 
ATOM      2  C   UNL     1       5.041   5.715  17.486  0.00  0.00    +0.000 A 
ATOM      3  C   UNL     1       5.570   6.995  17.333  0.00  0.00    +0.000 A 
ATOM      4  N   UNL     1       4.523   7.884  17.500  0.00  0.00    +0.000 N 
ATOM      5  C   UNL     1       3.332   7.227  17.693  0.00  0.00    +0.000 A 
ATOM      6  C   UNL     1       3.612   5.858  17.686  0.00  0.00    +0.000 A 
ATOM      7  H   UNL     1       4.652   8.889  17.499  0.00  0.00    +0.000 HD
ENDROOT
BRANCH   3   8
ATOM      8  C   UNL     1       6.933   7.473  17.144  0.00  0.00    +0.000 C 
ATOM      9  O   UNL     1       7.775   6.838  16.514  0.00  0.00    +0.000 OA
ATOM     10  N   UNL     1       7.226   8.677  17.765  0.00  0.00    +0.000 N 
ATOM     11  H   UNL     1       6.692   8.959  18.579  0.00  0.00    +0.000 HD
BRANCH  10  12
ATOM     12  N   UNL     1       8.526   9.191  17.675  0.00  0.00    +0.000 N 
ATOM     13  H   UNL     1       9.107   8.877  16.899  0.00  0.00    +0.000 HD
BRANCH  12  14
ATOM     14  C   UNL     1       8.970  10.165  18.518  0.00  0.00    +0.000 C 
ATOM     15  S   UNL     1       9.201  11.731  18.024  0.00  0.00    +0.000 S 
BRANCH  14  16
ATOM     16  N   UNL     1       9.244   9.792  19.792  0.00  0.00    +0.000 N 
ATOM     17  H   UNL     1       9.160   8.807  20.000  0.00  0.00    +0.000 HD
ATOM     18  H   UNL     1       8.900  10.416  20.515  0.00  0.00    +0.000 HD
ENDBRANCH  14  16
ENDBRANCH  12  14
ENDBRANCH  10  12
ENDBRANCH   3   8
BRANCH   6  19
ATOM     19  C   UNL     1       2.613   4.800  17.925  0.00  0.00    +0.000 C 
ATOM     20  O   UNL     1       2.366   3.901  17.126  0.00  0.00    +0.000 OA
ATOM     21  N   UNL     1       1.976   4.873  19.156  0.00  0.00    +0.000 N 
ATOM     22  H   UNL     1       2.449   5.330  19.926  0.00  0.00    +0.000 HD
BRANCH  21  23
ATOM     23  N   UNL     1       1.099   3.838  19.508  0.00  0.00    +0.000 N 
ATOM     24  H   UNL     1       0.100   4.048  19.499  0.00  0.00    +0.000 HD
BRANCH  23  25
ATOM     25  C   UNL     1       1.544   2.672  20.050  0.00  0.00    +0.000 C 
ATOM     26  S   UNL     1       1.889   2.517  21.663  0.00  0.00    +0.000 S 
BRANCH  25  27
ATOM     27  N   UNL     1       1.663   1.616  19.204  0.00  0.00    +0.000 N 
ATOM     28  H   UNL     1       2.284   0.873  19.485  0.00  0.00    +0.000 HD
ATOM     29  H   UNL     1       0.810   1.326  18.738  0.00  0.00    +0.000 HD
ENDBRANCH  25  27
ENDBRANCH  23  25
ENDBRANCH  21  23
ENDBRANCH   6  19
BRANCH   5  30
ATOM     30  C   UNL     1       2.104   7.928  17.887  0.00  0.00    +0.000 C 
ATOM     31  C   UNL     1       1.945   9.226  18.210  0.00  0.00    +0.000 C 
BRANCH  31  32
ATOM     32  C   UNL     1       0.605   9.835  18.401  0.00  0.00    +0.000 A 
ATOM     33  C   UNL     1      -0.448   9.491  17.551  0.00  0.00    +0.000 A 
ATOM     34  C   UNL     1      -1.720  10.084  17.693  0.00  0.00    +0.000 A 
ATOM     35  C   UNL     1      -2.013  11.028  18.692  0.00  0.00    +0.000 A 
ATOM     36  C   UNL     1      -0.952  11.330  19.555  0.00  0.00    +0.000 A 
ATOM     37  C   UNL     1       0.323  10.746  19.421  0.00  0.00    +0.000 A 
BRANCH  35  38
ATOM     38  N   UNL     1      -3.251  11.653  18.776  0.00  0.00    +0.000 N 
ATOM     39  C   UNL     1      -3.569  12.578  19.862  0.00  0.00    +0.000 C 
ATOM     40  C   UNL     1      -4.167  11.726  17.639  0.00  0.00    +0.000 C 
ENDBRANCH  35  38
ENDBRANCH  31  32
ENDBRANCH   5  30
TORSDOF 11
ENDMDL
MODEL 7
REMARK VINA RESULT:      -7.4      6.540      9.338
REMARK  Name = 
REMARK  14 active torsions:
REMARK  status: ('A' for Active; 'I' for Inactive)
REMARK    1  A    between atoms: C_1  and  C_2
REMARK    2  A    between atoms: C_3  and  C_4
REMARK    3  A    between atoms: N_6  and  N_7
REMARK    4  A    between atoms: N_7  and  C_8
REMARK    5  A    between atoms: C_8  and  N_9
REMARK    6  A    between atoms: C_12  and  C_13
REMARK    7  A    between atoms: C_14  and  C_15
REMARK    8  A    between atoms: C_18  and  N_19
REMARK    9  A    between atoms: N_19  and  C_20
REMARK   10  A    between atoms: N_19  and  C_21
REMARK   11  A    between atoms: C_24  and  C_25
REMARK   12  A    between atoms: N_27  and  N_28
REMARK   13  A    between atoms: N_28  and  C_29
REMARK   14  A    between atoms: C_29  and  N_30
REMARK                            x       y       z     vdW  Elec       q    Type
REMARK                         _______ _______ _______ _____ _____    ______ ____
ROOT
ATOM      1  C   UNL     1      -2.107  12.388  19.387  0.00  0.00    +0.000 C 
ATOM      2  C   UNL     1      -1.235  11.399  18.683  0.00  0.00    +0.000 A 
ATOM      3  C   UNL     1      -1.576  10.600  17.592  0.00  0.00    +0.000 A 
ATOM      4  N   UNL     1      -0.524   9.723  17.394  0.00  0.00    +0.000 N 
ATOM      5  C   UNL     1       0.504   9.965  18.273  0.00  0.00    +0.000 A 
ATOM      6  C   UNL     1       0.100  11.016  19.099  0.00  0.00    +0.000 A 
ATOM      7  H   UNL     1      -0.547   8.989  16.697  0.00  0.00    +0.000 HD
ENDROOT
BRANCH   3   8
ATOM      8  C   UNL     1      -2.787  10.507  16.790  0.00  0.00    +0.000 C 
ATOM      9  O   UNL     1      -3.896  10.328  17.287  0.00  0.00    +0.000 OA
ATOM     10  N   UNL     1      -2.596  10.589  15.421  0.00  0.00    +0.000 N 
ATOM     11  H   UNL     1      -1.699  10.324  15.029  0.00  0.00    +0.000 HD
BRANCH  10  12
ATOM     12  N   UNL     1      -3.700  10.463  14.569  0.00  0.00    +0.000 N 
ATOM     13  H   UNL     1      -4.586  10.858  14.881  0.00  0.00    +0.000 HD
BRANCH  12  14
ATOM     14  C   UNL     1      -3.582   9.942  13.316  0.00  0.00    +0.000 C 
ATOM     15  S   UNL     1      -4.876   9.793  12.289  0.00  0.00    +0.000 S 
BRANCH  14  16
ATOM     16  N   UNL     1      -2.349   9.520  12.943  0.00  0.00    +0.000 N 
ATOM     17  H   UNL     1      -1.624   9.575  13.645  0.00  0.00    +0.000 HD
ATOM     18  H   UNL     1      -2.061   9.780  12.006  0.00  0.00    +0.000 HD
ENDBRANCH  14  16
ENDBRANCH  12  14
ENDBRANCH  10  12
ENDBRANCH   3   8
BRANCH   6  19
ATOM     19  C   UNL     1       0.892  11.545  20.225  0.00  0.00    +0.000 C 
ATOM     20  O   UNL     1       1.072  10.938  21.278  0.00  0.00    +0.000 OA
ATOM     21  N   UNL     1       1.458  12.792  20.000  0.00  0.00    +0.000 N 
ATOM     22  H   UNL     1       1.647  13.080  19.048  0.00  0.00    +0.000 HD
BRANCH  21  23
ATOM     23  N   UNL     1       2.321  13.311  20.975  0.00  0.00    +0.000 N 
ATOM     24  H   UNL     1       2.050  13.188  21.952  0.00  0.00    +0.000 HD
BRANCH  23  25
ATOM     25  C   UNL     1       3.358  14.132  20.654  0.00  0.00    +0.000 C 
ATOM     26  S   UNL     1       3.355  15.074  19.292  0.00  0.00    +0.000 S 
BRANCH  25  27
ATOM     27  N   UNL     1       4.395  14.170  21.530  0.00  0.00    +0.000 N 
ATOM     28  H   UNL     1       5.254  13.730  21.241  0.00  0.00    +0.000 HD
ATOM     29  H   UNL     1       4.495  15.030  22.058  0.00  0.00    +0.000 HD
ENDBRANCH  25  27
ENDBRANCH  23  25
ENDBRANCH  21  23
ENDBRANCH   6  19
BRANCH   5  30
ATOM     30  C   UNL     1       1.703   9.191  18.265  0.00  0.00    +0.000 C 
ATOM     31  C   UNL     1       1.822   7.868  18.039  0.00  0.00    +0.000 C 
BRANCH  31  32
ATOM     32  C   UNL     1       3.134   7.175  18.075  0.00  0.00    +0.000 A 
ATOM     33  C   UNL     1       3.399   6.227  19.065  0.00  0.00    +0.000 A 
ATOM     34  C   UNL     1       4.651   5.582  19.139  0.00  0.00    +0.000 A 
ATOM     35  C   UNL     1       5.691   5.831  18.226  0.00  0.00    +0.000 A 
ATOM     36  C   UNL     1       5.389   6.757  17.219  0.00  0.00    +0.000 A 
ATOM     37  C   UNL     1       4.143   7.409  17.138  0.00  0.00    +0.000 A 
BRANCH  35  38
ATOM     38  N   UNL     1       6.941   5.238  18.352  0.00  0.00    +0.000 N 
ATOM     39  C   UNL     1       7.525   4.448  17.270  0.00  0.00    +0.000 C 
ATOM     40  C   UNL     1       7.896   5.643  19.382  0.00  0.00    +0.000 C 
ENDBRANCH  35  38
ENDBRANCH  31  32
ENDBRANCH   5  30
TORSDOF 11
ENDMDL
MODEL 8
REMARK VINA RESULT:      -7.3      6.295     10.388
REMARK  Name = 
REMARK  14 active torsions:
REMARK  status: ('A' for Active; 'I' for Inactive)
REMARK    1  A    between atoms: C_1  and  C_2
REMARK    2  A    between atoms: C_3  and  C_4
REMARK    3  A    between atoms: N_6  and  N_7
REMARK    4  A    between atoms: N_7  and  C_8
REMARK    5  A    between atoms: C_8  and  N_9
REMARK    6  A    between atoms: C_12  and  C_13
REMARK    7  A    between atoms: C_14  and  C_15
REMARK    8  A    between atoms: C_18  and  N_19
REMARK    9  A    between atoms: N_19  and  C_20
REMARK   10  A    between atoms: N_19  and  C_21
REMARK   11  A    between atoms: C_24  and  C_25
REMARK   12  A    between atoms: N_27  and  N_28
REMARK   13  A    between atoms: N_28  and  C_29
REMARK   14  A    between atoms: C_29  and  N_30
REMARK                            x       y       z     vdW  Elec       q    Type
REMARK                         _______ _______ _______ _____ _____    ______ ____
ROOT
ATOM      1  C   UNL     1      -0.512  13.736  18.191  0.00  0.00    +0.000 C 
ATOM      2  C   UNL     1       0.529  12.693  18.448  0.00  0.00    +0.000 A 
ATOM      3  C   UNL     1       1.904  12.885  18.572  0.00  0.00    +0.000 A 
ATOM      4  N   UNL     1       2.481  11.629  18.625  0.00  0.00    +0.000 N 
ATOM      5  C   UNL     1       1.529  10.638  18.601  0.00  0.00    +0.000 A 
ATOM      6  C   UNL     1       0.285  11.264  18.496  0.00  0.00    +0.000 A 
ATOM      7  H   UNL     1       3.483  11.487  18.652  0.00  0.00    +0.000 HD
ENDROOT
BRANCH   3   8
ATOM      8  C   UNL     1       2.728  14.085  18.554  0.00  0.00    +0.000 C 
ATOM      9  O   UNL     1       2.488  15.063  19.259  0.00  0.00    +0.000 OA
ATOM     10  N   UNL     1       3.778  14.066  17.650  0.00  0.00    +0.000 N 
ATOM     11  H   UNL     1       3.715  13.474  16.830  0.00  0.00    +0.000 HD
BRANCH  10  12
ATOM     12  N   UNL     1       4.597  15.196  17.531  0.00  0.00    +0.000 N 
ATOM     13  H   UNL     1       4.272  15.955  16.933  0.00  0.00    +0.000 HD
BRANCH  12  14
ATOM     14  C   UNL     1       5.729  15.342  18.274  0.00  0.00    +0.000 C 
ATOM     15  S   UNL     1       7.183  14.690  17.816  0.00  0.00    +0.000 S 
BRANCH  14  16
ATOM     16  N   UNL     1       5.613  16.032  19.435  0.00  0.00    +0.000 N 
ATOM     17  H   UNL     1       5.999  16.966  19.444  0.00  0.00    +0.000 HD
ATOM     18  H   UNL     1       5.765  15.495  20.282  0.00  0.00    +0.000 HD
ENDBRANCH  14  16
ENDBRANCH  12  14
ENDBRANCH  10  12
ENDBRANCH   3   8
BRANCH   6  19
ATOM     19  C   UNL     1      -1.000  10.552  18.376  0.00  0.00    +0.000 C 
ATOM     20  O   UNL     1      -1.613  10.085  19.332  0.00  0.00    +0.000 OA
ATOM     21  N   UNL     1      -1.498  10.470  17.083  0.00  0.00    +0.000 N 
ATOM     22  H   UNL     1      -1.224  11.171  16.407  0.00  0.00    +0.000 HD
BRANCH  21  23
ATOM     23  N   UNL     1      -2.770   9.912  16.900  0.00  0.00    +0.000 N 
ATOM     24  H   UNL     1      -2.975   9.042  17.393  0.00  0.00    +0.000 HD
BRANCH  23  25
ATOM     25  C   UNL     1      -3.627  10.372  15.947  0.00  0.00    +0.000 C 
ATOM     26  S   UNL     1      -3.367  10.128  14.329  0.00  0.00    +0.000 S 
BRANCH  25  27
ATOM     27  N   UNL     1      -4.736  11.018  16.388  0.00  0.00    +0.000 N 
ATOM     28  H   UNL     1      -4.680  11.453  17.296  0.00  0.00    +0.000 HD
ATOM     29  H   UNL     1      -5.258  11.530  15.685  0.00  0.00    +0.000 HD
ENDBRANCH  25  27
ENDBRANCH  23  25
ENDBRANCH  21  23
ENDBRANCH   6  19
BRANCH   5  30
ATOM     30  C   UNL     1       1.878   9.254  18.648  0.00  0.00    +0.000 C 
ATOM     31  C   UNL     1       2.595   8.560  17.744  0.00  0.00    +0.000 C 
BRANCH  31  32
ATOM     32  C   UNL     1       2.877   7.111  17.903  0.00  0.00    +0.000 A 
ATOM     33  C   UNL     1       1.840   6.224  18.198  0.00  0.00    +0.000 A 
ATOM     34  C   UNL     1       2.091   4.849  18.387  0.00  0.00    +0.000 A 
ATOM     35  C   UNL     1       3.374   4.286  18.274  0.00  0.00    +0.000 A 
ATOM     36  C   UNL     1       4.392   5.189  17.940  0.00  0.00    +0.000 A 
ATOM     37  C   UNL     1       4.154   6.564  17.752  0.00  0.00    +0.000 A 
BRANCH  35  38
ATOM     38  N   UNL     1       3.615   2.942  18.529  0.00  0.00    +0.000 N 
ATOM     39  C   UNL     1       4.343   2.509  19.720  0.00  0.00    +0.000 C 
ATOM     40  C   UNL     1       2.876   1.875  17.856  0.00  0.00    +0.000 C 
ENDBRANCH  35  38
ENDBRANCH  31  32
ENDBRANCH   5  30
TORSDOF 11
ENDMDL
MODEL 9
REMARK VINA RESULT:      -7.3      7.146     11.115
REMARK  Name = 
REMARK  14 active torsions:
REMARK  status: ('A' for Active; 'I' for Inactive)
REMARK    1  A    between atoms: C_1  and  C_2
REMARK    2  A    between atoms: C_3  and  C_4
REMARK    3  A    between atoms: N_6  and  N_7
REMARK    4  A    between atoms: N_7  and  C_8
REMARK    5  A    between atoms: C_8  and  N_9
REMARK    6  A    between atoms: C_12  and  C_13
REMARK    7  A    between atoms: C_14  and  C_15
REMARK    8  A    between atoms: C_18  and  N_19
REMARK    9  A    between atoms: N_19  and  C_20
REMARK   10  A    between atoms: N_19  and  C_21
REMARK   11  A    between atoms: C_24  and  C_25
REMARK   12  A    between atoms: N_27  and  N_28
REMARK   13  A    between atoms: N_28  and  C_29
REMARK   14  A    between atoms: C_29  and  N_30
REMARK                            x       y       z     vdW  Elec       q    Type
REMARK                         _______ _______ _______ _____ _____    ______ ____
ROOT
ATOM      1  C   UNL     1      -0.607  14.757  19.717  0.00  0.00    +0.000 C 
ATOM      2  C   UNL     1      -0.507  13.272  19.573  0.00  0.00    +0.000 A 
ATOM      3  C   UNL     1      -1.541  12.343  19.671  0.00  0.00    +0.000 A 
ATOM      4  N   UNL     1      -0.957  11.089  19.647  0.00  0.00    +0.000 N 
ATOM      5  C   UNL     1       0.404  11.171  19.476  0.00  0.00    +0.000 A 
ATOM      6  C   UNL     1       0.729  12.529  19.419  0.00  0.00    +0.000 A 
ATOM      7  H   UNL     1      -1.488  10.235  19.767  0.00  0.00    +0.000 HD
ENDROOT
BRANCH   3   8
ATOM      8  C   UNL     1      -2.975  12.495  19.874  0.00  0.00    +0.000 C 
ATOM      9  O   UNL     1      -3.452  12.926  20.921  0.00  0.00    +0.000 OA
ATOM     10  N   UNL     1      -3.767  12.078  18.817  0.00  0.00    +0.000 N 
ATOM     11  H   UNL     1      -3.411  11.378  18.177  0.00  0.00    +0.000 HD
BRANCH  10  12
ATOM     12  N   UNL     1      -5.161  12.145  18.941  0.00  0.00    +0.000 N 
ATOM     13  H   UNL     1      -5.550  12.202  19.881  0.00  0.00    +0.000 HD
BRANCH  12  14
ATOM     14  C   UNL     1      -5.972  12.252  17.852  0.00  0.00    +0.000 C 
ATOM     15  S   UNL     1      -7.383  13.123  17.876  0.00  0.00    +0.000 S 
BRANCH  14  16
ATOM     16  N   UNL     1      -5.586  11.588  16.735  0.00  0.00    +0.000 N 
ATOM     17  H   UNL     1      -5.593  12.115  15.873  0.00  0.00    +0.000 HD
ATOM     18  H   UNL     1      -5.916  10.631  16.657  0.00  0.00    +0.000 HD
ENDBRANCH  14  16
ENDBRANCH  12  14
ENDBRANCH  10  12
ENDBRANCH   3   8
BRANCH   6  19
ATOM     19  C   UNL     1       2.102  13.054  19.306  0.00  0.00    +0.000 C 
ATOM     20  O   UNL     1       2.800  13.353  20.271  0.00  0.00    +0.000 OA
ATOM     21  N   UNL     1       2.575  13.163  18.005  0.00  0.00    +0.000 N 
ATOM     22  H   UNL     1       2.184  12.562  17.290  0.00  0.00    +0.000 HD
BRANCH  21  23
ATOM     23  N   UNL     1       3.911  13.542  17.818  0.00  0.00    +0.000 N 
ATOM     24  H   UNL     1       4.619  12.811  17.893  0.00  0.00    +0.000 HD
BRANCH  23  25
ATOM     25  C   UNL     1       4.285  14.850  17.759  0.00  0.00    +0.000 C 
ATOM     26  S   UNL     1       5.604  15.433  18.574  0.00  0.00    +0.000 S 
BRANCH  25  27
ATOM     27  N   UNL     1       3.540  15.659  16.964  0.00  0.00    +0.000 N 
ATOM     28  H   UNL     1       3.023  15.218  16.218  0.00  0.00    +0.000 HD
ATOM     29  H   UNL     1       3.070  16.427  17.431  0.00  0.00    +0.000 HD
ENDBRANCH  25  27
ENDBRANCH  23  25
ENDBRANCH  21  23
ENDBRANCH   6  19
BRANCH   5  30
ATOM     30  C   UNL     1       1.230  10.009  19.416  0.00  0.00    +0.000 C 
ATOM     31  C   UNL     1       1.494   9.247  18.338  0.00  0.00    +0.000 C 
BRANCH  31  32
ATOM     32  C   UNL     1       2.362   8.045  18.413  0.00  0.00    +0.000 A 
ATOM     33  C   UNL     1       2.236   7.154  19.480  0.00  0.00    +0.000 A 
ATOM     34  C   UNL     1       3.075   6.025  19.588  0.00  0.00    +0.000 A 
ATOM     35  C   UNL     1       4.063   5.717  18.637  0.00  0.00    +0.000 A 
ATOM     36  C   UNL     1       4.146   6.604  17.557  0.00  0.00    +0.000 A 
ATOM     37  C   UNL     1       3.316   7.736  17.439  0.00  0.00    +0.000 A 
BRANCH  35  38
ATOM     38  N   UNL     1       4.926   4.640  18.793  0.00  0.00    +0.000 N 
ATOM     39  C   UNL     1       4.445   3.332  19.234  0.00  0.00    +0.000 C 
ATOM     40  C   UNL     1       6.263   4.619  18.201  0.00  0.00    +0.000 C 
ENDBRANCH  35  38
ENDBRANCH  31  32
ENDBRANCH   5  30
TORSDOF 11
ENDMDL
