MODEL 1
REMARK VINA RESULT:      -8.0      0.000      0.000
REMARK  Name = 
REMARK  10 active torsions:
REMARK  status: ('A' for Active; 'I' for Inactive)
REMARK    1  A    between atoms: C_1  and  O_2
REMARK    2  A    between atoms: O_2  and  C_3
REMARK    3  A    between atoms: C_6  and  C_7
REMARK    4  A    between atoms: N_9  and  C_10
REMARK    5  A    between atoms: C_10  and  C_11
REMARK    6  A    between atoms: N_14  and  C_15
REMARK    7  A    between atoms: C_24  and  O_25
REMARK    8  A    between atoms: O_25  and  C_26
REMARK    9  A    between atoms: C_26  and  C_27
REMARK   10  A    between atoms: C_27  and  C_28
REMARK                            x       y       z     vdW  Elec       q    Type
REMARK                         _______ _______ _______ _____ _____    ______ ____
ROOT
ATOM      1  C   UNL     1       2.114   4.177  19.678  0.00  0.00    +0.000 A 
ATOM      2  C   UNL     1       1.944   5.266  20.556  0.00  0.00    +0.000 A 
ATOM      3  C   UNL     1       2.017   6.590  20.111  0.00  0.00    +0.000 A 
ATOM      4  C   UNL     1       2.185   6.857  18.757  0.00  0.00    +0.000 A 
ATOM      5  C   UNL     1       2.314   5.778  17.877  0.00  0.00    +0.000 A 
ATOM      6  C   UNL     1       2.365   4.436  18.323  0.00  0.00    +0.000 A 
ENDROOT
BRANCH   4   7
ATOM      7  C   UNL     1       2.203   8.275  18.274  0.00  0.00    +0.000 C 
ATOM      8  O   UNL     1       2.780   8.552  17.229  0.00  0.00    +0.000 OA
ATOM      9  N   UNL     1       1.553   9.225  19.045  0.00  0.00    +0.000 N 
ATOM     10  H   UNL     1       0.973   8.950  19.820  0.00  0.00    +0.000 HD
BRANCH   9  11
ATOM     11  C   UNL     1       1.605  10.646  18.754  0.00  0.00    +0.000 C 
BRANCH  11  12
ATOM     12  C   UNL     1       0.748  11.458  19.746  0.00  0.00    +0.000 C 
ATOM     13  C   UNL     1      -0.379  10.599  20.353  0.00  0.00    +0.000 C 
ATOM     14  C   UNL     1      -1.535  10.342  19.380  0.00  0.00    +0.000 C 
ATOM     15  N   UNL     1      -1.992  11.619  18.822  0.00  0.00    +0.000 N 
ATOM     16  C   UNL     1      -0.970  12.400  18.120  0.00  0.00    +0.000 C 
ATOM     17  C   UNL     1       0.142  12.724  19.116  0.00  0.00    +0.000 C 
BRANCH  15  18
ATOM     18  C   UNL     1      -3.343  11.857  18.607  0.00  0.00    +0.000 A 
ATOM     19  C   UNL     1      -3.959  11.481  17.409  0.00  0.00    +0.000 A 
ATOM     20  C   UNL     1      -5.329  11.641  17.251  0.00  0.00    +0.000 A 
ATOM     21  N   UNL     1      -6.141  12.157  18.193  0.00  0.00    +0.000 NA
ATOM     22  C   UNL     1      -5.544  12.529  19.340  0.00  0.00    +0.000 A 
ATOM     23  C   UNL     1      -4.181  12.405  19.584  0.00  0.00    +0.000 A 
ENDBRANCH  15  18
ENDBRANCH  11  12
ENDBRANCH   9  11
ENDBRANCH   4   7
BRANCH   1  25
ATOM     24  C   UNL     1       2.438   2.853  21.666  0.00  0.00    +0.000 C 
ATOM     25  O   UNL     1       1.981   2.986  20.334  0.00  0.00    +0.000 OA
ENDBRANCH   1  25
BRANCH   6  26
ATOM     26  O   UNL     1       2.662   3.415  17.431  0.00  0.00    +0.000 OA
BRANCH  26  27
ATOM     27  C   UNL     1       4.039   2.991  17.496  0.00  0.00    +0.000 C 
BRANCH  27  28
ATOM     28  C   UNL     1       4.918   3.524  16.366  0.00  0.00    +0.000 C 
BRANCH  28  29
ATOM     29  C   UNL     1       5.863   4.572  16.932  0.00  0.00    +0.000 A 
ATOM     30  C   UNL     1       6.096   4.640  18.316  0.00  0.00    +0.000 A 
ATOM     31  C   UNL     1       6.888   5.657  18.857  0.00  0.00    +0.000 A 
ATOM     32  C   UNL     1       7.456   6.613  18.020  0.00  0.00    +0.000 A 
ATOM     33 CL   UNL     1       8.422   7.872  18.687  0.00  0.00    +0.000 Cl
ATOM     34  C   UNL     1       7.233   6.563  16.646  0.00  0.00    +0.000 A 
ATOM     35  C   UNL     1       6.437   5.548  16.103  0.00  0.00    +0.000 A 
ENDBRANCH  28  29
ENDBRANCH  27  28
ENDBRANCH  26  27
ENDBRANCH   6  26
TORSDOF 9
ENDMDL
MODEL 2
REMARK VINA RESULT:      -7.9      3.661      6.939
REMARK  Name = 
REMARK  10 active torsions:
REMARK  status: ('A' for Active; 'I' for Inactive)
REMARK    1  A    between atoms: C_1  and  O_2
REMARK    2  A    between atoms: O_2  and  C_3
REMARK    3  A    between atoms: C_6  and  C_7
REMARK    4  A    between atoms: N_9  and  C_10
REMARK    5  A    between atoms: C_10  and  C_11
REMARK    6  A    between atoms: N_14  and  C_15
REMARK    7  A    between atoms: C_24  and  O_25
REMARK    8  A    between atoms: O_25  and  C_26
REMARK    9  A    between atoms: C_26  and  C_27
REMARK   10  A    between atoms: C_27  and  C_28
REMARK                            x       y       z     vdW  Elec       q    Type
REMARK                         _______ _______ _______ _____ _____    ______ ____
ROOT
ATOM      1  C   UNL     1       7.254   5.283  15.227  0.00  0.00    +0.000 A 
ATOM      2  C   UNL     1       6.580   4.046  15.168  0.00  0.00    +0.000 A 
ATOM      3  C   UNL     1       5.858   3.548  16.257  0.00  0.00    +0.000 A 
ATOM      4  C   UNL     1       5.724   4.316  17.409  0.00  0.00    +0.000 A 
ATOM      5  C   UNL     1       6.358   5.560  17.455  0.00  0.00    +0.000 A 
ATOM      6  C   UNL     1       7.194   6.028  16.412  0.00  0.00    +0.000 A 
ENDROOT
BRANCH   4   7
ATOM      7  C   UNL     1       4.899   3.807  18.552  0.00  0.00    +0.000 C 
ATOM      8  O   UNL     1       5.270   4.006  19.702  0.00  0.00    +0.000 OA
ATOM      9  N   UNL     1       3.733   3.124  18.248  0.00  0.00    +0.000 N 
ATOM     10  H   UNL     1       3.383   3.096  17.305  0.00  0.00    +0.000 HD
BRANCH   9  11
ATOM     11  C   UNL     1       2.915   2.475  19.256  0.00  0.00    +0.000 C 
BRANCH  11  12
ATOM     12  C   UNL     1       1.520   3.124  19.357  0.00  0.00    +0.000 C 
ATOM     13  C   UNL     1       1.294   4.153  18.231  0.00  0.00    +0.000 C 
ATOM     14  C   UNL     1       2.052   5.467  18.451  0.00  0.00    +0.000 C 
ATOM     15  N   UNL     1       1.758   5.977  19.794  0.00  0.00    +0.000 N 
ATOM     16  C   UNL     1       2.089   5.070  20.897  0.00  0.00    +0.000 C 
ATOM     17  C   UNL     1       1.268   3.793  20.719  0.00  0.00    +0.000 C 
BRANCH  15  18
ATOM     18  C   UNL     1       1.592   7.338  20.017  0.00  0.00    +0.000 A 
ATOM     19  C   UNL     1       1.724   8.259  18.973  0.00  0.00    +0.000 A 
ATOM     20  C   UNL     1       1.460   9.605  19.195  0.00  0.00    +0.000 A 
ATOM     21  N   UNL     1       1.082  10.111  20.383  0.00  0.00    +0.000 NA
ATOM     22  C   UNL     1       0.967   9.224  21.389  0.00  0.00    +0.000 A 
ATOM     23  C   UNL     1       1.211   7.862  21.256  0.00  0.00    +0.000 A 
ENDBRANCH  15  18
ENDBRANCH  11  12
ENDBRANCH   9  11
ENDBRANCH   4   7
BRANCH   1  25
ATOM     24  C   UNL     1       7.371   5.032  12.832  0.00  0.00    +0.000 C 
ATOM     25  O   UNL     1       7.872   5.566  14.042  0.00  0.00    +0.000 OA
ENDBRANCH   1  25
BRANCH   6  26
ATOM     26  O   UNL     1       7.932   7.191  16.578  0.00  0.00    +0.000 OA
BRANCH  26  27
ATOM     27  C   UNL     1       7.515   7.969  17.717  0.00  0.00    +0.000 C 
BRANCH  27  28
ATOM     28  C   UNL     1       8.625   8.261  18.725  0.00  0.00    +0.000 C 
BRANCH  28  29
ATOM     29  C   UNL     1       8.883   9.759  18.750  0.00  0.00    +0.000 A 
ATOM     30  C   UNL     1       9.350  10.377  19.923  0.00  0.00    +0.000 A 
ATOM     31  C   UNL     1       9.502  11.765  19.987  0.00  0.00    +0.000 A 
ATOM     32  C   UNL     1       9.190  12.548  18.878  0.00  0.00    +0.000 A 
ATOM     33 CL   UNL     1       9.366  14.258  18.960  0.00  0.00    +0.000 Cl
ATOM     34  C   UNL     1       8.723  11.953  17.709  0.00  0.00    +0.000 A 
ATOM     35  C   UNL     1       8.567  10.564  17.645  0.00  0.00    +0.000 A 
ENDBRANCH  28  29
ENDBRANCH  27  28
ENDBRANCH  26  27
ENDBRANCH   6  26
TORSDOF 9
ENDMDL
MODEL 3
REMARK VINA RESULT:      -7.8      2.198      2.921
REMARK  Name = 
REMARK  10 active torsions:
REMARK  status: ('A' for Active; 'I' for Inactive)
REMARK    1  A    between atoms: C_1  and  O_2
REMARK    2  A    between atoms: O_2  and  C_3
REMARK    3  A    between atoms: C_6  and  C_7
REMARK    4  A    between atoms: N_9  and  C_10
REMARK    5  A    between atoms: C_10  and  C_11
REMARK    6  A    between atoms: N_14  and  C_15
REMARK    7  A    between atoms: C_24  and  O_25
REMARK    8  A    between atoms: O_25  and  C_26
REMARK    9  A    between atoms: C_26  and  C_27
REMARK   10  A    between atoms: C_27  and  C_28
REMARK                            x       y       z     vdW  Elec       q    Type
REMARK                         _______ _______ _______ _____ _____    ______ ____
ROOT
ATOM      1  C   UNL     1       2.341   5.008  20.561  0.00  0.00    +0.000 A 
ATOM      2  C   UNL     1       1.670   6.108  21.131  0.00  0.00    +0.000 A 
ATOM      3  C   UNL     1       1.579   7.339  20.472  0.00  0.00    +0.000 A 
ATOM      4  C   UNL     1       2.092   7.475  19.186  0.00  0.00    +0.000 A 
ATOM      5  C   UNL     1       2.723   6.373  18.602  0.00  0.00    +0.000 A 
ATOM      6  C   UNL     1       2.932   5.159  19.299  0.00  0.00    +0.000 A 
ENDROOT
BRANCH   4   7
ATOM      7  C   UNL     1       1.940   8.775  18.458  0.00  0.00    +0.000 C 
ATOM      8  O   UNL     1       2.284   8.856  17.285  0.00  0.00    +0.000 OA
ATOM      9  N   UNL     1       1.408   9.846  19.158  0.00  0.00    +0.000 N 
ATOM     10  H   UNL     1       1.008   9.716  20.072  0.00  0.00    +0.000 HD
BRANCH   9  11
ATOM     11  C   UNL     1       1.329  11.186  18.606  0.00  0.00    +0.000 C 
BRANCH  11  12
ATOM     12  C   UNL     1      -0.127  11.694  18.562  0.00  0.00    +0.000 C 
ATOM     13  C   UNL     1      -0.217  13.180  18.960  0.00  0.00    +0.000 C 
ATOM     14  C   UNL     1      -0.056  13.414  20.466  0.00  0.00    +0.000 C 
ATOM     15  N   UNL     1      -0.985  12.543  21.194  0.00  0.00    +0.000 N 
ATOM     16  C   UNL     1      -0.833  11.108  20.936  0.00  0.00    +0.000 C 
ATOM     17  C   UNL     1      -1.077  10.869  19.447  0.00  0.00    +0.000 C 
BRANCH  15  18
ATOM     18  C   UNL     1      -1.643  12.997  22.329  0.00  0.00    +0.000 A 
ATOM     19  C   UNL     1      -1.130  14.058  23.083  0.00  0.00    +0.000 A 
ATOM     20  C   UNL     1      -1.851  14.560  24.159  0.00  0.00    +0.000 A 
ATOM     21  N   UNL     1      -3.046  14.081  24.553  0.00  0.00    +0.000 NA
ATOM     22  C   UNL     1      -3.532  13.053  23.834  0.00  0.00    +0.000 A 
ATOM     23  C   UNL     1      -2.879  12.489  22.744  0.00  0.00    +0.000 A 
ENDBRANCH  15  18
ENDBRANCH  11  12
ENDBRANCH   9  11
ENDBRANCH   4   7
BRANCH   1  25
ATOM     24  C   UNL     1       1.350   2.882  21.119  0.00  0.00    +0.000 C 
ATOM     25  O   UNL     1       2.281   3.915  21.378  0.00  0.00    +0.000 OA
ENDBRANCH   1  25
BRANCH   6  26
ATOM     26  O   UNL     1       3.710   4.156  18.737  0.00  0.00    +0.000 OA
BRANCH  26  27
ATOM     27  C   UNL     1       3.511   4.016  17.316  0.00  0.00    +0.000 C 
BRANCH  27  28
ATOM     28  C   UNL     1       4.800   3.869  16.509  0.00  0.00    +0.000 C 
BRANCH  28  29
ATOM     29  C   UNL     1       5.789   4.929  16.968  0.00  0.00    +0.000 A 
ATOM     30  C   UNL     1       6.799   4.601  17.889  0.00  0.00    +0.000 A 
ATOM     31  C   UNL     1       7.655   5.587  18.390  0.00  0.00    +0.000 A 
ATOM     32  C   UNL     1       7.511   6.907  17.973  0.00  0.00    +0.000 A 
ATOM     33 CL   UNL     1       8.558   8.122  18.597  0.00  0.00    +0.000 Cl
ATOM     34  C   UNL     1       6.514   7.250  17.062  0.00  0.00    +0.000 A 
ATOM     35  C   UNL     1       5.654   6.265  16.564  0.00  0.00    +0.000 A 
ENDBRANCH  28  29
ENDBRANCH  27  28
ENDBRANCH  26  27
ENDBRANCH   6  26
TORSDOF 9
ENDMDL
MODEL 4
REMARK VINA RESULT:      -7.7      2.377      3.746
REMARK  Name = 
REMARK  10 active torsions:
REMARK  status: ('A' for Active; 'I' for Inactive)
REMARK    1  A    between atoms: C_1  and  O_2
REMARK    2  A    between atoms: O_2  and  C_3
REMARK    3  A    between atoms: C_6  and  C_7
REMARK    4  A    between atoms: N_9  and  C_10
REMARK    5  A    between atoms: C_10  and  C_11
REMARK    6  A    between atoms: N_14  and  C_15
REMARK    7  A    between atoms: C_24  and  O_25
REMARK    8  A    between atoms: O_25  and  C_26
REMARK    9  A    between atoms: C_26  and  C_27
REMARK   10  A    between atoms: C_27  and  C_28
REMARK                            x       y       z     vdW  Elec       q    Type
REMARK                         _______ _______ _______ _____ _____    ______ ____
ROOT
ATOM      1  C   UNL     1       2.428   4.342  19.915  0.00  0.00    +0.000 A 
ATOM      2  C   UNL     1       2.281   5.473  20.743  0.00  0.00    +0.000 A 
ATOM      3  C   UNL     1       2.222   6.769  20.218  0.00  0.00    +0.000 A 
ATOM      4  C   UNL     1       2.230   6.958  18.840  0.00  0.00    +0.000 A 
ATOM      5  C   UNL     1       2.336   5.835  18.015  0.00  0.00    +0.000 A 
ATOM      6  C   UNL     1       2.519   4.529  18.529  0.00  0.00    +0.000 A 
ENDROOT
BRANCH   4   7
ATOM      7  C   UNL     1       2.106   8.342  18.278  0.00  0.00    +0.000 C 
ATOM      8  O   UNL     1       2.683   8.626  17.236  0.00  0.00    +0.000 OA
ATOM      9  N   UNL     1       1.328   9.252  18.976  0.00  0.00    +0.000 N 
ATOM     10  H   UNL     1       0.757   8.954  19.749  0.00  0.00    +0.000 HD
BRANCH   9  11
ATOM     11  C   UNL     1       1.232  10.651  18.606  0.00  0.00    +0.000 C 
BRANCH  11  12
ATOM     12  C   UNL     1       0.562  11.485  19.717  0.00  0.00    +0.000 C 
ATOM     13  C   UNL     1      -0.494  12.449  19.139  0.00  0.00    +0.000 C 
ATOM     14  C   UNL     1       0.118  13.663  18.433  0.00  0.00    +0.000 C 
ATOM     15  N   UNL     1       1.088  14.306  19.325  0.00  0.00    +0.000 N 
ATOM     16  C   UNL     1       2.183  13.446  19.785  0.00  0.00    +0.000 C 
ATOM     17  C   UNL     1       1.573  12.281  20.561  0.00  0.00    +0.000 C 
BRANCH  15  18
ATOM     18  C   UNL     1       1.198  15.689  19.377  0.00  0.00    +0.000 A 
ATOM     19  C   UNL     1       2.050  16.310  20.296  0.00  0.00    +0.000 A 
ATOM     20  C   UNL     1       2.218  17.688  20.268  0.00  0.00    +0.000 A 
ATOM     21  N   UNL     1       1.593  18.505  19.398  0.00  0.00    +0.000 NA
ATOM     22  C   UNL     1       0.765  17.907  18.523  0.00  0.00    +0.000 A 
ATOM     23  C   UNL     1       0.538  16.536  18.480  0.00  0.00    +0.000 A 
ENDBRANCH  15  18
ENDBRANCH  11  12
ENDBRANCH   9  11
ENDBRANCH   4   7
BRANCH   1  25
ATOM     24  C   UNL     1       1.301   2.807  21.394  0.00  0.00    +0.000 C 
ATOM     25  O   UNL     1       2.441   3.190  20.649  0.00  0.00    +0.000 OA
ENDBRANCH   1  25
BRANCH   6  26
ATOM     26  O   UNL     1       2.787   3.472  17.670  0.00  0.00    +0.000 OA
BRANCH  26  27
ATOM     27  C   UNL     1       4.193   3.171  17.565  0.00  0.00    +0.000 C 
BRANCH  27  28
ATOM     28  C   UNL     1       4.891   3.822  16.372  0.00  0.00    +0.000 C 
BRANCH  28  29
ATOM     29  C   UNL     1       5.858   4.878  16.884  0.00  0.00    +0.000 A 
ATOM     30  C   UNL     1       6.568   4.666  18.078  0.00  0.00    +0.000 A 
ATOM     31  C   UNL     1       7.388   5.667  18.608  0.00  0.00    +0.000 A 
ATOM     32  C   UNL     1       7.505   6.888  17.948  0.00  0.00    +0.000 A 
ATOM     33 CL   UNL     1       8.506   8.124  18.606  0.00  0.00    +0.000 Cl
ATOM     34  C   UNL     1       6.806   7.116  16.766  0.00  0.00    +0.000 A 
ATOM     35  C   UNL     1       5.982   6.116  16.237  0.00  0.00    +0.000 A 
ENDBRANCH  28  29
ENDBRANCH  27  28
ENDBRANCH  26  27
ENDBRANCH   6  26
TORSDOF 9
ENDMDL
MODEL 5
REMARK VINA RESULT:      -7.5      6.504     10.127
REMARK  Name = 
REMARK  10 active torsions:
REMARK  status: ('A' for Active; 'I' for Inactive)
REMARK    1  A    between atoms: C_1  and  O_2
REMARK    2  A    between atoms: O_2  and  C_3
REMARK    3  A    between atoms: C_6  and  C_7
REMARK    4  A    between atoms: N_9  and  C_10
REMARK    5  A    between atoms: C_10  and  C_11
REMARK    6  A    between atoms: N_14  and  C_15
REMARK    7  A    between atoms: C_24  and  O_25
REMARK    8  A    between atoms: O_25  and  C_26
REMARK    9  A    between atoms: C_26  and  C_27
REMARK   10  A    between atoms: C_27  and  C_28
REMARK                            x       y       z     vdW  Elec       q    Type
REMARK                         _______ _______ _______ _____ _____    ______ ____
ROOT
ATOM      1  C   UNL     1       9.272  12.234  18.947  0.00  0.00    +0.000 A 
ATOM      2  C   UNL     1       8.691  11.826  17.730  0.00  0.00    +0.000 A 
ATOM      3  C   UNL     1       8.375  10.487  17.475  0.00  0.00    +0.000 A 
ATOM      4  C   UNL     1       8.561   9.531  18.469  0.00  0.00    +0.000 A 
ATOM      5  C   UNL     1       9.101   9.940  19.692  0.00  0.00    +0.000 A 
ATOM      6  C   UNL     1       9.539  11.266  19.925  0.00  0.00    +0.000 A 
ENDROOT
BRANCH   4   7
ATOM      7  C   UNL     1       8.166   8.108  18.217  0.00  0.00    +0.000 C 
ATOM      8  O   UNL     1       8.534   7.232  18.989  0.00  0.00    +0.000 OA
ATOM      9  N   UNL     1       7.388   7.845  17.101  0.00  0.00    +0.000 N 
ATOM     10  H   UNL     1       6.986   8.596  16.564  0.00  0.00    +0.000 HD
BRANCH   9  11
ATOM     11  C   UNL     1       7.046   6.500  16.678  0.00  0.00    +0.000 C 
BRANCH  11  12
ATOM     12  C   UNL     1       5.582   6.410  16.203  0.00  0.00    +0.000 C 
ATOM     13  C   UNL     1       4.612   6.978  17.258  0.00  0.00    +0.000 C 
ATOM     14  C   UNL     1       4.405   6.044  18.455  0.00  0.00    +0.000 C 
ATOM     15  N   UNL     1       4.045   4.707  17.971  0.00  0.00    +0.000 N 
ATOM     16  C   UNL     1       5.017   4.084  17.068  0.00  0.00    +0.000 C 
ATOM     17  C   UNL     1       5.158   4.978  15.837  0.00  0.00    +0.000 C 
BRANCH  15  18
ATOM     18  C   UNL     1       3.099   3.941  18.639  0.00  0.00    +0.000 A 
ATOM     19  C   UNL     1       1.944   3.495  17.987  0.00  0.00    +0.000 A 
ATOM     20  C   UNL     1       1.057   2.651  18.643  0.00  0.00    +0.000 A 
ATOM     21  N   UNL     1       1.224   2.220  19.908  0.00  0.00    +0.000 NA
ATOM     22  C   UNL     1       2.329   2.661  20.536  0.00  0.00    +0.000 A 
ATOM     23  C   UNL     1       3.269   3.506  19.957  0.00  0.00    +0.000 A 
ENDBRANCH  15  18
ENDBRANCH  11  12
ENDBRANCH   9  11
ENDBRANCH   4   7
BRANCH   1  25
ATOM     24  C   UNL     1       9.397  14.338  17.777  0.00  0.00    +0.000 C 
ATOM     25  O   UNL     1       9.471  13.585  18.972  0.00  0.00    +0.000 OA
ENDBRANCH   1  25
BRANCH   6  26
ATOM     26  O   UNL     1      10.220  11.581  21.092  0.00  0.00    +0.000 OA
BRANCH  26  27
ATOM     27  C   UNL     1       9.489  12.483  21.947  0.00  0.00    +0.000 C 
BRANCH  27  28
ATOM     28  C   UNL     1       8.180  11.916  22.493  0.00  0.00    +0.000 C 
BRANCH  28  29
ATOM     29  C   UNL     1       7.966  12.445  23.903  0.00  0.00    +0.000 A 
ATOM     30  C   UNL     1       8.424  13.727  24.254  0.00  0.00    +0.000 A 
ATOM     31  C   UNL     1       8.316  14.187  25.570  0.00  0.00    +0.000 A 
ATOM     32  C   UNL     1       7.750  13.371  26.545  0.00  0.00    +0.000 A 
ATOM     33 CL   UNL     1       7.628  13.932  28.168  0.00  0.00    +0.000 Cl
ATOM     34  C   UNL     1       7.294  12.097  26.216  0.00  0.00    +0.000 A 
ATOM     35  C   UNL     1       7.405  11.633  24.900  0.00  0.00    +0.000 A 
ENDBRANCH  28  29
ENDBRANCH  27  28
ENDBRANCH  26  27
ENDBRANCH   6  26
TORSDOF 9
ENDMDL
MODEL 6
REMARK VINA RESULT:      -7.5      2.256      2.953
REMARK  Name = 
REMARK  10 active torsions:
REMARK  status: ('A' for Active; 'I' for Inactive)
REMARK    1  A    between atoms: C_1  and  O_2
REMARK    2  A    between atoms: O_2  and  C_3
REMARK    3  A    between atoms: C_6  and  C_7
REMARK    4  A    between atoms: N_9  and  C_10
REMARK    5  A    between atoms: C_10  and  C_11
REMARK    6  A    between atoms: N_14  and  C_15
REMARK    7  A    between atoms: C_24  and  O_25
REMARK    8  A    between atoms: O_25  and  C_26
REMARK    9  A    between atoms: C_26  and  C_27
REMARK   10  A    between atoms: C_27  and  C_28
REMARK                            x       y       z     vdW  Elec       q    Type
REMARK                         _______ _______ _______ _____ _____    ______ ____
ROOT
ATOM      1  C   UNL     1       2.912   3.320  19.141  0.00  0.00    +0.000 A 
ATOM      2  C   UNL     1       2.553   3.813  20.411  0.00  0.00    +0.000 A 
ATOM      3  C   UNL     1       2.297   5.171  20.629  0.00  0.00    +0.000 A 
ATOM      4  C   UNL     1       2.317   6.060  19.560  0.00  0.00    +0.000 A 
ATOM      5  C   UNL     1       2.634   5.566  18.291  0.00  0.00    +0.000 A 
ATOM      6  C   UNL     1       3.015   4.220  18.072  0.00  0.00    +0.000 A 
ENDROOT
BRANCH   4   7
ATOM      7  C   UNL     1       1.983   7.503  19.784  0.00  0.00    +0.000 C 
ATOM      8  O   UNL     1       2.194   8.319  18.894  0.00  0.00    +0.000 OA
ATOM      9  N   UNL     1       1.441   7.855  21.009  0.00  0.00    +0.000 N 
ATOM     10  H   UNL     1       1.151   7.149  21.666  0.00  0.00    +0.000 HD
BRANCH   9  11
ATOM     11  C   UNL     1       1.193   9.231  21.395  0.00  0.00    +0.000 C 
BRANCH  11  12
ATOM     12  C   UNL     1      -0.308   9.578  21.322  0.00  0.00    +0.000 C 
ATOM     13  C   UNL     1      -0.696  10.110  19.928  0.00  0.00    +0.000 C 
ATOM     14  C   UNL     1      -0.230  11.549  19.678  0.00  0.00    +0.000 C 
ATOM     15  N   UNL     1      -0.671  12.401  20.787  0.00  0.00    +0.000 N 
ATOM     16  C   UNL     1      -0.204  11.994  22.116  0.00  0.00    +0.000 C 
ATOM     17  C   UNL     1      -0.741  10.592  22.395  0.00  0.00    +0.000 C 
BRANCH  15  18
ATOM     18  C   UNL     1      -1.118  13.695  20.554  0.00  0.00    +0.000 A 
ATOM     19  C   UNL     1      -2.394  14.100  20.962  0.00  0.00    +0.000 A 
ATOM     20  C   UNL     1      -2.786  15.423  20.805  0.00  0.00    +0.000 A 
ATOM     21  N   UNL     1      -2.010  16.379  20.263  0.00  0.00    +0.000 NA
ATOM     22  C   UNL     1      -0.788  15.984  19.860  0.00  0.00    +0.000 A 
ATOM     23  C   UNL     1      -0.313  14.683  19.979  0.00  0.00    +0.000 A 
ENDBRANCH  15  18
ENDBRANCH  11  12
ENDBRANCH   9  11
ENDBRANCH   4   7
BRANCH   1  25
ATOM     24  C   UNL     1       4.384   1.424  19.369  0.00  0.00    +0.000 C 
ATOM     25  O   UNL     1       3.093   1.966  19.170  0.00  0.00    +0.000 OA
ENDBRANCH   1  25
BRANCH   6  26
ATOM     26  O   UNL     1       3.482   3.820  16.828  0.00  0.00    +0.000 OA
BRANCH  26  27
ATOM     27  C   UNL     1       4.652   4.547  16.402  0.00  0.00    +0.000 C 
BRANCH  27  28
ATOM     28  C   UNL     1       5.930   4.183  17.155  0.00  0.00    +0.000 C 
BRANCH  28  29
ATOM     29  C   UNL     1       6.614   5.464  17.608  0.00  0.00    +0.000 A 
ATOM     30  C   UNL     1       6.352   6.677  16.948  0.00  0.00    +0.000 A 
ATOM     31  C   UNL     1       7.044   7.842  17.294  0.00  0.00    +0.000 A 
ATOM     32  C   UNL     1       8.003   7.804  18.303  0.00  0.00    +0.000 A 
ATOM     33 CL   UNL     1       8.863   9.235  18.721  0.00  0.00    +0.000 Cl
ATOM     34  C   UNL     1       8.278   6.610  18.965  0.00  0.00    +0.000 A 
ATOM     35  C   UNL     1       7.589   5.442  18.617  0.00  0.00    +0.000 A 
ENDBRANCH  28  29
ENDBRANCH  27  28
ENDBRANCH  26  27
ENDBRANCH   6  26
TORSDOF 9
ENDMDL
MODEL 7
REMARK VINA RESULT:      -7.5      2.993      4.520
REMARK  Name = 
REMARK  10 active torsions:
REMARK  status: ('A' for Active; 'I' for Inactive)
REMARK    1  A    between atoms: C_1  and  O_2
REMARK    2  A    between atoms: O_2  and  C_3
REMARK    3  A    between atoms: C_6  and  C_7
REMARK    4  A    between atoms: N_9  and  C_10
REMARK    5  A    between atoms: C_10  and  C_11
REMARK    6  A    between atoms: N_14  and  C_15
REMARK    7  A    between atoms: C_24  and  O_25
REMARK    8  A    between atoms: O_25  and  C_26
REMARK    9  A    between atoms: C_26  and  C_27
REMARK   10  A    between atoms: C_27  and  C_28
REMARK                            x       y       z     vdW  Elec       q    Type
REMARK                         _______ _______ _______ _____ _____    ______ ____
ROOT
ATOM      1  C   UNL     1       5.851   4.874  16.370  0.00  0.00    +0.000 A 
ATOM      2  C   UNL     1       4.648   4.221  16.706  0.00  0.00    +0.000 A 
ATOM      3  C   UNL     1       3.676   4.831  17.505  0.00  0.00    +0.000 A 
ATOM      4  C   UNL     1       3.848   6.147  17.922  0.00  0.00    +0.000 A 
ATOM      5  C   UNL     1       5.023   6.811  17.556  0.00  0.00    +0.000 A 
ATOM      6  C   UNL     1       6.071   6.172  16.853  0.00  0.00    +0.000 A 
ENDROOT
BRANCH   4   7
ATOM      7  C   UNL     1       2.778   6.820  18.726  0.00  0.00    +0.000 C 
ATOM      8  O   UNL     1       2.073   6.154  19.474  0.00  0.00    +0.000 OA
ATOM      9  N   UNL     1       2.634   8.191  18.584  0.00  0.00    +0.000 N 
ATOM     10  H   UNL     1       3.312   8.730  18.072  0.00  0.00    +0.000 HD
BRANCH   9  11
ATOM     11  C   UNL     1       1.558   8.938  19.208  0.00  0.00    +0.000 C 
BRANCH  11  12
ATOM     12  C   UNL     1       1.084  10.101  18.313  0.00  0.00    +0.000 C 
ATOM     13  C   UNL     1       1.157  11.450  19.056  0.00  0.00    +0.000 C 
ATOM     14  C   UNL     1       0.039  11.632  20.089  0.00  0.00    +0.000 C 
ATOM     15  N   UNL     1      -1.256  11.369  19.454  0.00  0.00    +0.000 N 
ATOM     16  C   UNL     1      -1.403  10.040  18.854  0.00  0.00    +0.000 C 
ATOM     17  C   UNL     1      -0.339   9.895  17.767  0.00  0.00    +0.000 C 
BRANCH  15  18
ATOM     18  C   UNL     1      -2.370  12.136  19.769  0.00  0.00    +0.000 A 
ATOM     19  C   UNL     1      -3.578  11.966  19.085  0.00  0.00    +0.000 A 
ATOM     20  C   UNL     1      -4.706  12.674  19.479  0.00  0.00    +0.000 A 
ATOM     21  N   UNL     1      -4.726  13.552  20.500  0.00  0.00    +0.000 NA
ATOM     22  C   UNL     1      -3.559  13.723  21.149  0.00  0.00    +0.000 A 
ATOM     23  C   UNL     1      -2.384  13.056  20.823  0.00  0.00    +0.000 A 
ENDBRANCH  15  18
ENDBRANCH  11  12
ENDBRANCH   9  11
ENDBRANCH   4   7
BRANCH   1  25
ATOM     24  C   UNL     1       6.530   4.184  14.162  0.00  0.00    +0.000 C 
ATOM     25  O   UNL     1       6.632   4.091  15.570  0.00  0.00    +0.000 OA
ENDBRANCH   1  25
BRANCH   6  26
ATOM     26  O   UNL     1       7.282   6.822  16.661  0.00  0.00    +0.000 OA
BRANCH  26  27
ATOM     27  C   UNL     1       7.326   8.127  17.273  0.00  0.00    +0.000 C 
BRANCH  27  28
ATOM     28  C   UNL     1       8.354   8.265  18.394  0.00  0.00    +0.000 C 
BRANCH  28  29
ATOM     29  C   UNL     1       8.695   9.736  18.569  0.00  0.00    +0.000 A 
ATOM     30  C   UNL     1       8.201  10.689  17.662  0.00  0.00    +0.000 A 
ATOM     31  C   UNL     1       8.583  12.031  17.758  0.00  0.00    +0.000 A 
ATOM     32  C   UNL     1       9.462  12.431  18.761  0.00  0.00    +0.000 A 
ATOM     33 CL   UNL     1       9.942  14.081  18.871  0.00  0.00    +0.000 Cl
ATOM     34  C   UNL     1       9.964  11.500  19.666  0.00  0.00    +0.000 A 
ATOM     35  C   UNL     1       9.585  10.156  19.569  0.00  0.00    +0.000 A 
ENDBRANCH  28  29
ENDBRANCH  27  28
ENDBRANCH  26  27
ENDBRANCH   6  26
TORSDOF 9
ENDMDL
MODEL 8
REMARK VINA RESULT:      -7.4      3.730      9.681
REMARK  Name = 
REMARK  10 active torsions:
REMARK  status: ('A' for Active; 'I' for Inactive)
REMARK    1  A    between atoms: C_1  and  O_2
REMARK    2  A    between atoms: O_2  and  C_3
REMARK    3  A    between atoms: C_6  and  C_7
REMARK    4  A    between atoms: N_9  and  C_10
REMARK    5  A    between atoms: C_10  and  C_11
REMARK    6  A    between atoms: N_14  and  C_15
REMARK    7  A    between atoms: C_24  and  O_25
REMARK    8  A    between atoms: O_25  and  C_26
REMARK    9  A    between atoms: C_26  and  C_27
REMARK   10  A    between atoms: C_27  and  C_28
REMARK                            x       y       z     vdW  Elec       q    Type
REMARK                         _______ _______ _______ _____ _____    ______ ____
ROOT
ATOM      1  C   UNL     1       1.462   9.505  19.722  0.00  0.00    +0.000 A 
ATOM      2  C   UNL     1       1.905   8.575  18.760  0.00  0.00    +0.000 A 
ATOM      3  C   UNL     1       2.067   7.220  19.064  0.00  0.00    +0.000 A 
ATOM      4  C   UNL     1       1.712   6.745  20.322  0.00  0.00    +0.000 A 
ATOM      5  C   UNL     1       1.234   7.659  21.266  0.00  0.00    +0.000 A 
ATOM      6  C   UNL     1       1.178   9.051  21.017  0.00  0.00    +0.000 A 
ENDROOT
BRANCH   4   7
ATOM      7  C   UNL     1       1.829   5.283  20.628  0.00  0.00    +0.000 C 
ATOM      8  O   UNL     1       2.457   4.919  21.615  0.00  0.00    +0.000 OA
ATOM      9  N   UNL     1       1.209   4.395  19.764  0.00  0.00    +0.000 N 
ATOM     10  H   UNL     1       0.587   4.725  19.044  0.00  0.00    +0.000 HD
BRANCH   9  11
ATOM     11  C   UNL     1       1.353   2.956  19.878  0.00  0.00    +0.000 C 
BRANCH  11  12
ATOM     12  C   UNL     1       1.926   2.340  18.585  0.00  0.00    +0.000 C 
ATOM     13  C   UNL     1       3.389   1.893  18.774  0.00  0.00    +0.000 C 
ATOM     14  C   UNL     1       4.381   3.061  18.798  0.00  0.00    +0.000 C 
ATOM     15  N   UNL     1       4.162   3.907  17.621  0.00  0.00    +0.000 N 
ATOM     16  C   UNL     1       2.811   4.459  17.486  0.00  0.00    +0.000 C 
ATOM     17  C   UNL     1       1.834   3.289  17.378  0.00  0.00    +0.000 C 
BRANCH  15  18
ATOM     18  C   UNL     1       5.235   4.475  16.946  0.00  0.00    +0.000 A 
ATOM     19  C   UNL     1       5.927   5.566  17.482  0.00  0.00    +0.000 A 
ATOM     20  C   UNL     1       7.055   6.058  16.838  0.00  0.00    +0.000 A 
ATOM     21  N   UNL     1       7.547   5.554  15.690  0.00  0.00    +0.000 NA
ATOM     22  C   UNL     1       6.872   4.513  15.170  0.00  0.00    +0.000 A 
ATOM     23  C   UNL     1       5.736   3.957  15.747  0.00  0.00    +0.000 A 
ENDBRANCH  15  18
ENDBRANCH  11  12
ENDBRANCH   9  11
ENDBRANCH   4   7
BRANCH   1  25
ATOM     24  C   UNL     1       2.145  11.120  18.067  0.00  0.00    +0.000 C 
ATOM     25  O   UNL     1       1.363  10.759  19.189  0.00  0.00    +0.000 OA
ENDBRANCH   1  25
BRANCH   6  26
ATOM     26  O   UNL     1       0.856   9.931  22.041  0.00  0.00    +0.000 OA
BRANCH  26  27
ATOM     27  C   UNL     1      -0.440   9.677  22.619  0.00  0.00    +0.000 C 
BRANCH  27  28
ATOM     28  C   UNL     1      -1.197  10.931  23.050  0.00  0.00    +0.000 C 
BRANCH  28  29
ATOM     29  C   UNL     1      -1.030  11.997  21.979  0.00  0.00    +0.000 A 
ATOM     30  C   UNL     1      -1.644  11.841  20.724  0.00  0.00    +0.000 A 
ATOM     31  C   UNL     1      -1.422  12.768  19.701  0.00  0.00    +0.000 A 
ATOM     32  C   UNL     1      -0.586  13.859  19.924  0.00  0.00    +0.000 A 
ATOM     33 CL   UNL     1      -0.303  14.994  18.661  0.00  0.00    +0.000 Cl
ATOM     34  C   UNL     1       0.033  14.028  21.160  0.00  0.00    +0.000 A 
ATOM     35  C   UNL     1      -0.186  13.099  22.184  0.00  0.00    +0.000 A 
ENDBRANCH  28  29
ENDBRANCH  27  28
ENDBRANCH  26  27
ENDBRANCH   6  26
TORSDOF 9
ENDMDL
MODEL 9
REMARK VINA RESULT:      -7.4      1.949      2.615
REMARK  Name = 
REMARK  10 active torsions:
REMARK  status: ('A' for Active; 'I' for Inactive)
REMARK    1  A    between atoms: C_1  and  O_2
REMARK    2  A    between atoms: O_2  and  C_3
REMARK    3  A    between atoms: C_6  and  C_7
REMARK    4  A    between atoms: N_9  and  C_10
REMARK    5  A    between atoms: C_10  and  C_11
REMARK    6  A    between atoms: N_14  and  C_15
REMARK    7  A    between atoms: C_24  and  O_25
REMARK    8  A    between atoms: O_25  and  C_26
REMARK    9  A    between atoms: C_26  and  C_27
REMARK   10  A    between atoms: C_27  and  C_28
REMARK                            x       y       z     vdW  Elec       q    Type
REMARK                         _______ _______ _______ _____ _____    ______ ____
ROOT
ATOM      1  C   UNL     1       2.509   4.770  20.445  0.00  0.00    +0.000 A 
ATOM      2  C   UNL     1       1.743   5.796  21.033  0.00  0.00    +0.000 A 
ATOM      3  C   UNL     1       1.604   7.051  20.431  0.00  0.00    +0.000 A 
ATOM      4  C   UNL     1       2.166   7.284  19.180  0.00  0.00    +0.000 A 
ATOM      5  C   UNL     1       2.893   6.254  18.575  0.00  0.00    +0.000 A 
ATOM      6  C   UNL     1       3.147   5.021  19.222  0.00  0.00    +0.000 A 
ENDROOT
BRANCH   4   7
ATOM      7  C   UNL     1       1.965   8.608  18.508  0.00  0.00    +0.000 C 
ATOM      8  O   UNL     1       2.288   8.747  17.334  0.00  0.00    +0.000 OA
ATOM      9  N   UNL     1       1.412   9.632  19.259  0.00  0.00    +0.000 N 
ATOM     10  H   UNL     1       1.031   9.453  20.173  0.00  0.00    +0.000 HD
BRANCH   9  11
ATOM     11  C   UNL     1       1.285  10.991  18.765  0.00  0.00    +0.000 C 
BRANCH  11  12
ATOM     12  C   UNL     1      -0.180  11.334  18.425  0.00  0.00    +0.000 C 
ATOM     13  C   UNL     1      -0.420  12.857  18.443  0.00  0.00    +0.000 C 
ATOM     14  C   UNL     1      -0.487  13.441  19.859  0.00  0.00    +0.000 C 
ATOM     15  N   UNL     1      -1.451  12.675  20.655  0.00  0.00    +0.000 N 
ATOM     16  C   UNL     1      -1.172  11.240  20.767  0.00  0.00    +0.000 C 
ATOM     17  C   UNL     1      -1.189  10.646  19.360  0.00  0.00    +0.000 C 
BRANCH  15  18
ATOM     18  C   UNL     1      -2.289  13.311  21.561  0.00  0.00    +0.000 A 
ATOM     19  C   UNL     1      -3.458  12.694  22.017  0.00  0.00    +0.000 A 
ATOM     20  C   UNL     1      -4.233  13.305  22.994  0.00  0.00    +0.000 A 
ATOM     21  N   UNL     1      -3.939  14.495  23.552  0.00  0.00    +0.000 NA
ATOM     22  C   UNL     1      -2.820  15.092  23.103  0.00  0.00    +0.000 A 
ATOM     23  C   UNL     1      -1.987  14.553  22.130  0.00  0.00    +0.000 A 
ENDBRANCH  15  18
ENDBRANCH  11  12
ENDBRANCH   9  11
ENDBRANCH   4   7
BRANCH   1  25
ATOM     24  C   UNL     1       1.330   2.814  21.217  0.00  0.00    +0.000 C 
ATOM     25  O   UNL     1       2.482   3.635  21.204  0.00  0.00    +0.000 OA
ENDBRANCH   1  25
BRANCH   6  26
ATOM     26  O   UNL     1       4.012   4.098  18.651  0.00  0.00    +0.000 OA
BRANCH  26  27
ATOM     27  C   UNL     1       3.784   3.906  17.241  0.00  0.00    +0.000 C 
BRANCH  27  28
ATOM     28  C   UNL     1       5.020   4.107  16.367  0.00  0.00    +0.000 C 
BRANCH  28  29
ATOM     29  C   UNL     1       5.886   5.194  16.984  0.00  0.00    +0.000 A 
ATOM     30  C   UNL     1       5.692   6.539  16.626  0.00  0.00    +0.000 A 
ATOM     31  C   UNL     1       6.542   7.537  17.115  0.00  0.00    +0.000 A 
ATOM     32  C   UNL     1       7.591   7.198  17.965  0.00  0.00    +0.000 A 
ATOM     33 CL   UNL     1       8.644   8.424  18.558  0.00  0.00    +0.000 Cl
ATOM     34  C   UNL     1       7.799   5.869  18.328  0.00  0.00    +0.000 A 
ATOM     35  C   UNL     1       6.952   4.870  17.836  0.00  0.00    +0.000 A 
ENDBRANCH  28  29
ENDBRANCH  27  28
ENDBRANCH  26  27
ENDBRANCH   6  26
TORSDOF 9
ENDMDL
