MODEL 1
REMARK VINA RESULT:      -7.2      0.000      0.000
REMARK  Name = 
REMARK  1 active torsions:
REMARK  status: ('A' for Active; 'I' for Inactive)
REMARK    1  A    between atoms: N_3  and  C_4
REMARK                            x       y       z     vdW  Elec       q    Type
REMARK                         _______ _______ _______ _____ _____    ______ ____
ROOT
ATOM      1  O   UNL     1       5.635   6.443  17.644  0.00  0.00    +0.000 OA
ATOM      2  C   UNL     1       5.558   5.618  16.735  0.00  0.00    +0.000 C 
ATOM      3  N   UNL     1       4.698   4.558  16.680  0.00  0.00    +0.000 N 
ATOM      4  N   UNL     1       6.443   5.733  15.694  0.00  0.00    +0.000 N 
ATOM      5  C   UNL     1       6.502   4.986  14.513  0.00  0.00    +0.000 A 
ATOM      6  C   UNL     1       7.490   5.276  13.574  0.00  0.00    +0.000 A 
ATOM      7  N   UNL     1       7.591   4.639  12.380  0.00  0.00    +0.000 NA
ATOM      8  C   UNL     1       6.656   3.690  12.155  0.00  0.00    +0.000 A 
ATOM      9  C   UNL     1       5.679   3.383  13.083  0.00  0.00    +0.000 A 
ATOM     10  N   UNL     1       5.592   4.011  14.281  0.00  0.00    +0.000 NA
ATOM     11  H   UNL     1       4.868   3.932  15.897  0.00  0.00    +0.000 HD
ATOM     12  H   UNL     1       7.096   6.493  15.823  0.00  0.00    +0.000 HD
ENDROOT
BRANCH   3  13
ATOM     13  C   UNL     1       3.718   4.169  17.607  0.00  0.00    +0.000 A 
ATOM     14  C   UNL     1       2.346   4.429  17.437  0.00  0.00    +0.000 A 
ATOM     15  C   UNL     1       1.418   4.043  18.414  0.00  0.00    +0.000 A 
ATOM     16  C   UNL     1       1.896   3.422  19.545  0.00  0.00    +0.000 A 
ATOM     17  C   UNL     1       3.233   3.152  19.709  0.00  0.00    +0.000 A 
ATOM     18  C   UNL     1       4.165   3.492  18.751  0.00  0.00    +0.000 A 
ATOM     19  O   UNL     1       3.501   2.548  20.897  0.00  0.00    +0.000 OA
ATOM     20  C   UNL     1       2.186   2.530  21.490  0.00  0.00    +0.000 C 
ATOM     21  O   UNL     1       1.153   3.017  20.609  0.00  0.00    +0.000 OA
ENDBRANCH   3  13
TORSDOF 1
ENDMDL
MODEL 2
REMARK VINA RESULT:      -7.2      1.066      1.084
REMARK  Name = 
REMARK  1 active torsions:
REMARK  status: ('A' for Active; 'I' for Inactive)
REMARK    1  A    between atoms: N_3  and  C_4
REMARK                            x       y       z     vdW  Elec       q    Type
REMARK                         _______ _______ _______ _____ _____    ______ ____
ROOT
ATOM      1  O   UNL     1       6.880   6.528  17.629  0.00  0.00    +0.000 OA
ATOM      2  C   UNL     1       6.429   5.778  16.765  0.00  0.00    +0.000 C 
ATOM      3  N   UNL     1       5.290   5.030  16.863  0.00  0.00    +0.000 N 
ATOM      4  N   UNL     1       7.149   5.634  15.607  0.00  0.00    +0.000 N 
ATOM      5  C   UNL     1       6.810   4.921  14.453  0.00  0.00    +0.000 A 
ATOM      6  C   UNL     1       7.695   4.911  13.376  0.00  0.00    +0.000 A 
ATOM      7  N   UNL     1       7.428   4.289  12.199  0.00  0.00    +0.000 NA
ATOM      8  C   UNL     1       6.227   3.672  12.136  0.00  0.00    +0.000 A 
ATOM      9  C   UNL     1       5.345   3.663  13.201  0.00  0.00    +0.000 A 
ATOM     10  N   UNL     1       5.624   4.271  14.380  0.00  0.00    +0.000 NA
ATOM     11  H   UNL     1       5.149   4.393  16.083  0.00  0.00    +0.000 HD
ATOM     12  H   UNL     1       8.013   6.157  15.621  0.00  0.00    +0.000 HD
ENDROOT
BRANCH   3  13
ATOM     13  C   UNL     1       4.381   4.944  17.929  0.00  0.00    +0.000 A 
ATOM     14  C   UNL     1       3.526   5.997  18.304  0.00  0.00    +0.000 A 
ATOM     15  C   UNL     1       2.662   5.862  19.399  0.00  0.00    +0.000 A 
ATOM     16  C   UNL     1       2.692   4.679  20.100  0.00  0.00    +0.000 A 
ATOM     17  C   UNL     1       3.513   3.642  19.729  0.00  0.00    +0.000 A 
ATOM     18  C   UNL     1       4.352   3.735  18.638  0.00  0.00    +0.000 A 
ATOM     19  O   UNL     1       3.405   2.569  20.557  0.00  0.00    +0.000 OA
ATOM     20  C   UNL     1       2.468   3.077  21.530  0.00  0.00    +0.000 C 
ATOM     21  O   UNL     1       1.958   4.387  21.207  0.00  0.00    +0.000 OA
ENDBRANCH   3  13
TORSDOF 1
ENDMDL
MODEL 3
REMARK VINA RESULT:      -7.2      0.954      1.673
REMARK  Name = 
REMARK  1 active torsions:
REMARK  status: ('A' for Active; 'I' for Inactive)
REMARK    1  A    between atoms: N_3  and  C_4
REMARK                            x       y       z     vdW  Elec       q    Type
REMARK                         _______ _______ _______ _____ _____    ______ ____
ROOT
ATOM      1  O   UNL     1       6.526   6.094  17.638  0.00  0.00    +0.000 OA
ATOM      2  C   UNL     1       6.299   5.357  16.680  0.00  0.00    +0.000 C 
ATOM      3  N   UNL     1       5.387   4.340  16.644  0.00  0.00    +0.000 N 
ATOM      4  N   UNL     1       7.054   5.531  15.548  0.00  0.00    +0.000 N 
ATOM      5  C   UNL     1       6.932   4.892  14.311  0.00  0.00    +0.000 A 
ATOM      6  C   UNL     1       7.811   5.227  13.283  0.00  0.00    +0.000 A 
ATOM      7  N   UNL     1       7.734   4.696  12.036  0.00  0.00    +0.000 NA
ATOM      8  C   UNL     1       6.733   3.808  11.851  0.00  0.00    +0.000 A 
ATOM      9  C   UNL     1       5.862   3.456  12.866  0.00  0.00    +0.000 A 
ATOM     10  N   UNL     1       5.953   3.977  14.114  0.00  0.00    +0.000 NA
ATOM     11  H   UNL     1       5.430   3.781  15.796  0.00  0.00    +0.000 HD
ATOM     12  H   UNL     1       7.755   6.251  15.658  0.00  0.00    +0.000 HD
ENDROOT
BRANCH   3  13
ATOM     13  C   UNL     1       4.510   3.908  17.651  0.00  0.00    +0.000 A 
ATOM     14  C   UNL     1       4.926   3.596  18.958  0.00  0.00    +0.000 A 
ATOM     15  C   UNL     1       4.007   3.139  19.912  0.00  0.00    +0.000 A 
ATOM     16  C   UNL     1       2.695   2.990  19.522  0.00  0.00    +0.000 A 
ATOM     17  C   UNL     1       2.281   3.309  18.252  0.00  0.00    +0.000 A 
ATOM     18  C   UNL     1       3.157   3.789  17.301  0.00  0.00    +0.000 A 
ATOM     19  O   UNL     1       0.954   3.078  18.063  0.00  0.00    +0.000 OA
ATOM     20  C   UNL     1       0.597   2.515  19.342  0.00  0.00    +0.000 C 
ATOM     21  O   UNL     1       1.680   2.523  20.295  0.00  0.00    +0.000 OA
ENDBRANCH   3  13
TORSDOF 1
ENDMDL
MODEL 4
REMARK VINA RESULT:      -7.1      4.122      7.221
REMARK  Name = 
REMARK  1 active torsions:
REMARK  status: ('A' for Active; 'I' for Inactive)
REMARK    1  A    between atoms: N_3  and  C_4
REMARK                            x       y       z     vdW  Elec       q    Type
REMARK                         _______ _______ _______ _____ _____    ______ ____
ROOT
ATOM      1  O   UNL     1       2.651   4.948  20.630  0.00  0.00    +0.000 OA
ATOM      2  C   UNL     1       2.482   6.040  20.091  0.00  0.00    +0.000 C 
ATOM      3  N   UNL     1       2.923   6.403  18.850  0.00  0.00    +0.000 N 
ATOM      4  N   UNL     1       1.832   7.011  20.809  0.00  0.00    +0.000 N 
ATOM      5  C   UNL     1       1.441   8.288  20.394  0.00  0.00    +0.000 A 
ATOM      6  C   UNL     1       0.778   9.121  21.293  0.00  0.00    +0.000 A 
ATOM      7  N   UNL     1       0.318  10.355  20.963  0.00  0.00    +0.000 NA
ATOM      8  C   UNL     1       0.546  10.729  19.685  0.00  0.00    +0.000 A 
ATOM      9  C   UNL     1       1.214   9.918  18.786  0.00  0.00    +0.000 A 
ATOM     10  N   UNL     1       1.686   8.694  19.125  0.00  0.00    +0.000 NA
ATOM     11  H   UNL     1       2.776   7.385  18.633  0.00  0.00    +0.000 HD
ATOM     12  H   UNL     1       1.591   6.706  21.741  0.00  0.00    +0.000 HD
ENDROOT
BRANCH   3  13
ATOM     13  C   UNL     1       3.641   5.643  17.913  0.00  0.00    +0.000 A 
ATOM     14  C   UNL     1       3.342   4.302  17.612  0.00  0.00    +0.000 A 
ATOM     15  C   UNL     1       4.117   3.585  16.690  0.00  0.00    +0.000 A 
ATOM     16  C   UNL     1       5.182   4.231  16.105  0.00  0.00    +0.000 A 
ATOM     17  C   UNL     1       5.469   5.545  16.383  0.00  0.00    +0.000 A 
ATOM     18  C   UNL     1       4.706   6.284  17.264  0.00  0.00    +0.000 A 
ATOM     19  O   UNL     1       6.567   5.991  15.717  0.00  0.00    +0.000 OA
ATOM     20  C   UNL     1       6.975   4.785  15.039  0.00  0.00    +0.000 C 
ATOM     21  O   UNL     1       6.062   3.685  15.224  0.00  0.00    +0.000 OA
ENDBRANCH   3  13
TORSDOF 1
ENDMDL
MODEL 5
REMARK VINA RESULT:      -6.9      3.865      7.319
REMARK  Name = 
REMARK  1 active torsions:
REMARK  status: ('A' for Active; 'I' for Inactive)
REMARK    1  A    between atoms: N_3  and  C_4
REMARK                            x       y       z     vdW  Elec       q    Type
REMARK                         _______ _______ _______ _____ _____    ______ ____
ROOT
ATOM      1  O   UNL     1       3.047   4.277  20.498  0.00  0.00    +0.000 OA
ATOM      2  C   UNL     1       2.879   5.443  20.144  0.00  0.00    +0.000 C 
ATOM      3  N   UNL     1       3.611   6.112  19.203  0.00  0.00    +0.000 N 
ATOM      4  N   UNL     1       1.899   6.165  20.773  0.00  0.00    +0.000 N 
ATOM      5  C   UNL     1       1.456   7.462  20.494  0.00  0.00    +0.000 A 
ATOM      6  C   UNL     1       0.430   8.010  21.263  0.00  0.00    +0.000 A 
ATOM      7  N   UNL     1      -0.097   9.239  21.032  0.00  0.00    +0.000 NA
ATOM      8  C   UNL     1       0.443   9.909  19.990  0.00  0.00    +0.000 A 
ATOM      9  C   UNL     1       1.470   9.382  19.227  0.00  0.00    +0.000 A 
ATOM     10  N   UNL     1       2.004   8.162  19.473  0.00  0.00    +0.000 NA
ATOM     11  H   UNL     1       3.383   7.101  19.134  0.00  0.00    +0.000 HD
ATOM     12  H   UNL     1       1.439   5.640  21.503  0.00  0.00    +0.000 HD
ENDROOT
BRANCH   3  13
ATOM     13  C   UNL     1       4.688   5.649  18.431  0.00  0.00    +0.000 A 
ATOM     14  C   UNL     1       5.967   5.399  18.959  0.00  0.00    +0.000 A 
ATOM     15  C   UNL     1       7.012   4.967  18.131  0.00  0.00    +0.000 A 
ATOM     16  C   UNL     1       6.747   4.814  16.789  0.00  0.00    +0.000 A 
ATOM     17  C   UNL     1       5.495   5.040  16.271  0.00  0.00    +0.000 A 
ATOM     18  C   UNL     1       4.441   5.437  17.067  0.00  0.00    +0.000 A 
ATOM     19  O   UNL     1       5.445   4.847  14.926  0.00  0.00    +0.000 OA
ATOM     20  C   UNL     1       6.826   4.537  14.649  0.00  0.00    +0.000 C 
ATOM     21  O   UNL     1       7.643   4.444  15.835  0.00  0.00    +0.000 OA
ENDBRANCH   3  13
TORSDOF 1
ENDMDL
MODEL 6
REMARK VINA RESULT:      -6.9      1.659      2.084
REMARK  Name = 
REMARK  1 active torsions:
REMARK  status: ('A' for Active; 'I' for Inactive)
REMARK    1  A    between atoms: N_3  and  C_4
REMARK                            x       y       z     vdW  Elec       q    Type
REMARK                         _______ _______ _______ _____ _____    ______ ____
ROOT
ATOM      1  O   UNL     1       7.201   6.455  17.390  0.00  0.00    +0.000 OA
ATOM      2  C   UNL     1       6.691   5.698  16.566  0.00  0.00    +0.000 C 
ATOM      3  N   UNL     1       5.570   4.940  16.754  0.00  0.00    +0.000 N 
ATOM      4  N   UNL     1       7.319   5.557  15.355  0.00  0.00    +0.000 N 
ATOM      5  C   UNL     1       6.898   4.837  14.233  0.00  0.00    +0.000 A 
ATOM      6  C   UNL     1       7.695   4.832  13.090  0.00  0.00    +0.000 A 
ATOM      7  N   UNL     1       7.342   4.204  11.939  0.00  0.00    +0.000 NA
ATOM      8  C   UNL     1       6.146   3.576  11.972  0.00  0.00    +0.000 A 
ATOM      9  C   UNL     1       5.351   3.562  13.103  0.00  0.00    +0.000 A 
ATOM     10  N   UNL     1       5.716   4.176  14.254  0.00  0.00    +0.000 NA
ATOM     11  H   UNL     1       5.375   4.299  15.990  0.00  0.00    +0.000 HD
ATOM     12  H   UNL     1       8.176   6.088  15.300  0.00  0.00    +0.000 HD
ENDROOT
BRANCH   3  13
ATOM     13  C   UNL     1       4.748   4.849  17.889  0.00  0.00    +0.000 A 
ATOM     14  C   UNL     1       4.645   3.689  18.678  0.00  0.00    +0.000 A 
ATOM     15  C   UNL     1       3.782   3.649  19.782  0.00  0.00    +0.000 A 
ATOM     16  C   UNL     1       3.034   4.771  20.055  0.00  0.00    +0.000 A 
ATOM     17  C   UNL     1       3.143   5.912  19.297  0.00  0.00    +0.000 A 
ATOM     18  C   UNL     1       4.005   5.990  18.224  0.00  0.00    +0.000 A 
ATOM     19  O   UNL     1       2.311   6.900  19.720  0.00  0.00    +0.000 OA
ATOM     20  C   UNL     1       1.618   6.225  20.790  0.00  0.00    +0.000 C 
ATOM     21  O   UNL     1       2.121   4.899  21.054  0.00  0.00    +0.000 OA
ENDBRANCH   3  13
TORSDOF 1
ENDMDL
MODEL 7
REMARK VINA RESULT:      -6.6      1.039      1.434
REMARK  Name = 
REMARK  1 active torsions:
REMARK  status: ('A' for Active; 'I' for Inactive)
REMARK    1  A    between atoms: N_3  and  C_4
REMARK                            x       y       z     vdW  Elec       q    Type
REMARK                         _______ _______ _______ _____ _____    ______ ____
ROOT
ATOM      1  O   UNL     1       6.367   5.837  17.718  0.00  0.00    +0.000 OA
ATOM      2  C   UNL     1       6.155   5.163  16.711  0.00  0.00    +0.000 C 
ATOM      3  N   UNL     1       5.217   4.177  16.585  0.00  0.00    +0.000 N 
ATOM      4  N   UNL     1       6.957   5.378  15.620  0.00  0.00    +0.000 N 
ATOM      5  C   UNL     1       6.862   4.813  14.344  0.00  0.00    +0.000 A 
ATOM      6  C   UNL     1       7.788   5.180  13.369  0.00  0.00    +0.000 A 
ATOM      7  N   UNL     1       7.743   4.723  12.091  0.00  0.00    +0.000 NA
ATOM      8  C   UNL     1       6.725   3.876  11.820  0.00  0.00    +0.000 A 
ATOM      9  C   UNL     1       5.807   3.494  12.782  0.00  0.00    +0.000 A 
ATOM     10  N   UNL     1       5.867   3.941  14.060  0.00  0.00    +0.000 NA
ATOM     11  H   UNL     1       5.276   3.666  15.708  0.00  0.00    +0.000 HD
ATOM     12  H   UNL     1       7.673   6.069  15.795  0.00  0.00    +0.000 HD
ENDROOT
BRANCH   3  13
ATOM     13  C   UNL     1       4.292   3.715  17.534  0.00  0.00    +0.000 A 
ATOM     14  C   UNL     1       4.089   2.352  17.817  0.00  0.00    +0.000 A 
ATOM     15  C   UNL     1       3.127   1.951  18.754  0.00  0.00    +0.000 A 
ATOM     16  C   UNL     1       2.380   2.930  19.369  0.00  0.00    +0.000 A 
ATOM     17  C   UNL     1       2.585   4.263  19.107  0.00  0.00    +0.000 A 
ATOM     18  C   UNL     1       3.545   4.688  18.213  0.00  0.00    +0.000 A 
ATOM     19  O   UNL     1       1.738   5.067  19.804  0.00  0.00    +0.000 OA
ATOM     20  C   UNL     1       0.934   4.081  20.483  0.00  0.00    +0.000 C 
ATOM     21  O   UNL     1       1.381   2.726  20.267  0.00  0.00    +0.000 OA
ENDBRANCH   3  13
TORSDOF 1
ENDMDL
MODEL 8
REMARK VINA RESULT:      -6.6      2.829      7.011
REMARK  Name = 
REMARK  1 active torsions:
REMARK  status: ('A' for Active; 'I' for Inactive)
REMARK    1  A    between atoms: N_3  and  C_4
REMARK                            x       y       z     vdW  Elec       q    Type
REMARK                         _______ _______ _______ _____ _____    ______ ____
ROOT
ATOM      1  O   UNL     1       3.760   7.166  17.410  0.00  0.00    +0.000 OA
ATOM      2  C   UNL     1       3.794   6.044  17.912  0.00  0.00    +0.000 C 
ATOM      3  N   UNL     1       4.529   4.983  17.463  0.00  0.00    +0.000 N 
ATOM      4  N   UNL     1       2.991   5.807  18.998  0.00  0.00    +0.000 N 
ATOM      5  C   UNL     1       2.916   4.658  19.792  0.00  0.00    +0.000 A 
ATOM      6  C   UNL     1       2.024   4.630  20.863  0.00  0.00    +0.000 A 
ATOM      7  N   UNL     1       1.920   3.580  21.717  0.00  0.00    +0.000 NA
ATOM      8  C   UNL     1       2.752   2.547  21.459  0.00  0.00    +0.000 A 
ATOM      9  C   UNL     1       3.632   2.556  20.393  0.00  0.00    +0.000 A 
ATOM     10  N   UNL     1       3.720   3.600  19.533  0.00  0.00    +0.000 NA
ATOM     11  H   UNL     1       4.334   4.113  17.952  0.00  0.00    +0.000 HD
ATOM     12  H   UNL     1       2.422   6.606  19.241  0.00  0.00    +0.000 HD
ENDROOT
BRANCH   3  13
ATOM     13  C   UNL     1       5.402   4.918  16.366  0.00  0.00    +0.000 A 
ATOM     14  C   UNL     1       6.659   5.548  16.339  0.00  0.00    +0.000 A 
ATOM     15  C   UNL     1       7.474   5.472  15.201  0.00  0.00    +0.000 A 
ATOM     16  C   UNL     1       6.995   4.779  14.112  0.00  0.00    +0.000 A 
ATOM     17  C   UNL     1       5.775   4.149  14.139  0.00  0.00    +0.000 A 
ATOM     18  C   UNL     1       4.966   4.181  15.255  0.00  0.00    +0.000 A 
ATOM     19  O   UNL     1       5.480   3.533  12.963  0.00  0.00    +0.000 OA
ATOM     20  C   UNL     1       6.628   3.906  12.172  0.00  0.00    +0.000 C 
ATOM     21  O   UNL     1       7.625   4.636  12.916  0.00  0.00    +0.000 OA
ENDBRANCH   3  13
TORSDOF 1
ENDMDL
MODEL 9
REMARK VINA RESULT:      -6.6      2.689      6.934
REMARK  Name = 
REMARK  1 active torsions:
REMARK  status: ('A' for Active; 'I' for Inactive)
REMARK    1  A    between atoms: N_3  and  C_4
REMARK                            x       y       z     vdW  Elec       q    Type
REMARK                         _______ _______ _______ _____ _____    ______ ____
ROOT
ATOM      1  O   UNL     1       6.525   4.752  19.286  0.00  0.00    +0.000 OA
ATOM      2  C   UNL     1       5.413   4.409  18.889  0.00  0.00    +0.000 C 
ATOM      3  N   UNL     1       5.026   4.285  17.584  0.00  0.00    +0.000 N 
ATOM      4  N   UNL     1       4.446   4.168  19.831  0.00  0.00    +0.000 N 
ATOM      5  C   UNL     1       3.147   3.685  19.644  0.00  0.00    +0.000 A 
ATOM      6  C   UNL     1       2.322   3.506  20.753  0.00  0.00    +0.000 A 
ATOM      7  N   UNL     1       1.067   2.996  20.671  0.00  0.00    +0.000 NA
ATOM      8  C   UNL     1       0.661   2.665  19.426  0.00  0.00    +0.000 A 
ATOM      9  C   UNL     1       1.464   2.850  18.315  0.00  0.00    +0.000 A 
ATOM     10  N   UNL     1       2.710   3.375  18.400  0.00  0.00    +0.000 NA
ATOM     11  H   UNL     1       4.034   4.097  17.466  0.00  0.00    +0.000 HD
ATOM     12  H   UNL     1       4.771   4.341  20.772  0.00  0.00    +0.000 HD
ENDROOT
BRANCH   3  13
ATOM     13  C   UNL     1       5.777   4.501  16.418  0.00  0.00    +0.000 A 
ATOM     14  C   UNL     1       6.797   5.465  16.322  0.00  0.00    +0.000 A 
ATOM     15  C   UNL     1       7.492   5.655  15.120  0.00  0.00    +0.000 A 
ATOM     16  C   UNL     1       7.132   4.882  14.040  0.00  0.00    +0.000 A 
ATOM     17  C   UNL     1       6.148   3.928  14.133  0.00  0.00    +0.000 A 
ATOM     18  C   UNL     1       5.469   3.698  15.311  0.00  0.00    +0.000 A 
ATOM     19  O   UNL     1       5.934   3.284  12.955  0.00  0.00    +0.000 OA
ATOM     20  C   UNL     1       6.851   3.991  12.094  0.00  0.00    +0.000 C 
ATOM     21  O   UNL     1       7.665   4.956  12.792  0.00  0.00    +0.000 OA
ENDBRANCH   3  13
TORSDOF 1
ENDMDL
