MODEL 1
REMARK VINA RESULT:      -8.7      0.000      0.000
REMARK  Name = 
REMARK  8 active torsions:
REMARK  status: ('A' for Active; 'I' for Inactive)
REMARK    1  A    between atoms: O_1  and  C_2
REMARK    2  A    between atoms: C_2  and  C_3
REMARK    3  A    between atoms: C_3  and  O_4
REMARK    4  A    between atoms: C_3  and  C_5
REMARK    5  A    between atoms: C_5  and  C_6
REMARK    6  A    between atoms: N_8  and  C_9
REMARK    7  A    between atoms: C_12  and  O_13
REMARK    8  A    between atoms: O_13  and  C_14
REMARK                            x       y       z     vdW  Elec       q    Type
REMARK                         _______ _______ _______ _____ _____    ______ ____
ROOT
ATOM      1  C   UNL     1       5.048   4.945  17.610  0.00  0.00    +0.000 A 
ATOM      2  C   UNL     1       4.566   6.230  17.696  0.00  0.00    +0.000 A 
ATOM      3  N   UNL     1       3.232   6.196  18.043  0.00  0.00    +0.000 N 
ATOM      4  C   UNL     1       2.805   4.871  17.995  0.00  0.00    +0.000 A 
ATOM      5  C   UNL     1       1.538   4.296  18.118  0.00  0.00    +0.000 A 
ATOM      6  N   UNL     1       1.398   2.952  18.039  0.00  0.00    +0.000 NA
ATOM      7  C   UNL     1       2.484   2.191  17.810  0.00  0.00    +0.000 A 
ATOM      8  C   UNL     1       3.767   2.684  17.650  0.00  0.00    +0.000 A 
ATOM      9  C   UNL     1       3.926   4.078  17.729  0.00  0.00    +0.000 A 
ENDROOT
BRANCH   3  10
ATOM     10  C   UNL     1       2.505   7.345  18.466  0.00  0.00    +0.000 A 
ATOM     11  C   UNL     1       2.375   8.444  17.600  0.00  0.00    +0.000 A 
ATOM     12  C   UNL     1       1.719   9.601  18.027  0.00  0.00    +0.000 A 
ATOM     13  C   UNL     1       1.205   9.676  19.320  0.00  0.00    +0.000 A 
ATOM     14  C   UNL     1       1.394   8.607  20.203  0.00  0.00    +0.000 A 
ATOM     15  C   UNL     1       2.012   7.432  19.770  0.00  0.00    +0.000 A 
BRANCH  13  16
ATOM     16  O   UNL     1       0.572  10.853  19.653  0.00  0.00    +0.000 OA
BRANCH  16  17
ATOM     17  C   UNL     1      -0.721  11.051  19.230  0.00  0.00    +0.000 A 
ATOM     18  C   UNL     1      -1.443  12.062  19.866  0.00  0.00    +0.000 A 
ATOM     19  C   UNL     1      -2.783  12.275  19.527  0.00  0.00    +0.000 A 
ATOM     20  C   UNL     1      -3.377  11.482  18.555  0.00  0.00    +0.000 A 
ATOM     21  F   UNL     1      -4.673  11.656  18.262  0.00  0.00    +0.000 F 
ATOM     22  C   UNL     1      -2.655  10.506  17.881  0.00  0.00    +0.000 A 
ATOM     23  C   UNL     1      -1.310  10.310  18.196  0.00  0.00    +0.000 A 
ENDBRANCH  16  17
ENDBRANCH  13  16
ENDBRANCH   3  10
BRANCH   1  24
ATOM     24  C   UNL     1       6.489   4.565  17.473  0.00  0.00    +0.000 C 
BRANCH  24  25
ATOM     25  C   UNL     1       6.984   4.643  16.016  0.00  0.00    +0.000 C 
BRANCH  25  26
ATOM     26  O   UNL     1       7.484   5.965  15.774  0.00  0.00    +0.000 OA
ATOM     27  H   UNL     1       8.037   5.885  14.971  0.00  0.00    +0.000 HD
ENDBRANCH  25  26
BRANCH  25  28
ATOM     28  C   UNL     1       5.887   4.340  14.985  0.00  0.00    +0.000 C 
BRANCH  28  29
ATOM     29  O   UNL     1       6.402   3.450  13.992  0.00  0.00    +0.000 OA
ATOM     30  H   UNL     1       6.072   2.561  14.222  0.00  0.00    +0.000 HD
ENDBRANCH  28  29
ENDBRANCH  25  28
ENDBRANCH  24  25
ENDBRANCH   1  24
TORSDOF 8
ENDMDL
MODEL 2
REMARK VINA RESULT:      -8.5      0.278      1.319
REMARK  Name = 
REMARK  8 active torsions:
REMARK  status: ('A' for Active; 'I' for Inactive)
REMARK    1  A    between atoms: O_1  and  C_2
REMARK    2  A    between atoms: C_2  and  C_3
REMARK    3  A    between atoms: C_3  and  O_4
REMARK    4  A    between atoms: C_3  and  C_5
REMARK    5  A    between atoms: C_5  and  C_6
REMARK    6  A    between atoms: N_8  and  C_9
REMARK    7  A    between atoms: C_12  and  O_13
REMARK    8  A    between atoms: O_13  and  C_14
REMARK                            x       y       z     vdW  Elec       q    Type
REMARK                         _______ _______ _______ _____ _____    ______ ____
ROOT
ATOM      1  C   UNL     1       5.123   4.938  17.676  0.00  0.00    +0.000 A 
ATOM      2  C   UNL     1       4.676   6.236  17.762  0.00  0.00    +0.000 A 
ATOM      3  N   UNL     1       3.338   6.238  18.091  0.00  0.00    +0.000 N 
ATOM      4  C   UNL     1       2.873   4.927  18.030  0.00  0.00    +0.000 A 
ATOM      5  C   UNL     1       1.589   4.387  18.133  0.00  0.00    +0.000 A 
ATOM      6  N   UNL     1       1.412   3.049  18.045  0.00  0.00    +0.000 NA
ATOM      7  C   UNL     1       2.479   2.258  17.827  0.00  0.00    +0.000 A 
ATOM      8  C   UNL     1       3.777   2.715  17.687  0.00  0.00    +0.000 A 
ATOM      9  C   UNL     1       3.975   4.103  17.775  0.00  0.00    +0.000 A 
ENDROOT
BRANCH   3  10
ATOM     10  C   UNL     1       2.638   7.406  18.511  0.00  0.00    +0.000 A 
ATOM     11  C   UNL     1       2.078   7.457  19.799  0.00  0.00    +0.000 A 
ATOM     12  C   UNL     1       1.336   8.570  20.199  0.00  0.00    +0.000 A 
ATOM     13  C   UNL     1       1.135   9.629  19.316  0.00  0.00    +0.000 A 
ATOM     14  C   UNL     1       1.635   9.548  18.012  0.00  0.00    +0.000 A 
ATOM     15  C   UNL     1       2.413   8.456  17.619  0.00  0.00    +0.000 A 
BRANCH  13  16
ATOM     16  O   UNL     1       0.393  10.686  19.796  0.00  0.00    +0.000 OA
BRANCH  16  17
ATOM     17  C   UNL     1      -0.862  10.901  19.277  0.00  0.00    +0.000 A 
ATOM     18  C   UNL     1      -1.247  10.090  18.208  0.00  0.00    +0.000 A 
ATOM     19  C   UNL     1      -2.485  10.297  17.592  0.00  0.00    +0.000 A 
ATOM     20  C   UNL     1      -3.321  11.303  18.057  0.00  0.00    +0.000 A 
ATOM     21  F   UNL     1      -4.488  11.530  17.439  0.00  0.00    +0.000 F 
ATOM     22  C   UNL     1      -2.970  12.083  19.151  0.00  0.00    +0.000 A 
ATOM     23  C   UNL     1      -1.747  11.860  19.786  0.00  0.00    +0.000 A 
ENDBRANCH  16  17
ENDBRANCH  13  16
ENDBRANCH   3  10
BRANCH   1  24
ATOM     24  C   UNL     1       6.554   4.517  17.555  0.00  0.00    +0.000 C 
BRANCH  24  25
ATOM     25  C   UNL     1       7.040   4.488  16.094  0.00  0.00    +0.000 C 
BRANCH  25  26
ATOM     26  O   UNL     1       7.411   5.818  15.708  0.00  0.00    +0.000 OA
ATOM     27  H   UNL     1       7.885   5.714  14.859  0.00  0.00    +0.000 HD
ENDBRANCH  25  26
BRANCH  25  28
ATOM     28  C   UNL     1       5.978   3.973  15.111  0.00  0.00    +0.000 C 
BRANCH  28  29
ATOM     29  O   UNL     1       6.603   3.636  13.870  0.00  0.00    +0.000 OA
ATOM     30  H   UNL     1       6.185   2.807  13.569  0.00  0.00    +0.000 HD
ENDBRANCH  28  29
ENDBRANCH  25  28
ENDBRANCH  24  25
ENDBRANCH   1  24
TORSDOF 8
ENDMDL
MODEL 3
REMARK VINA RESULT:      -8.5      1.846      2.380
REMARK  Name = 
REMARK  8 active torsions:
REMARK  status: ('A' for Active; 'I' for Inactive)
REMARK    1  A    between atoms: O_1  and  C_2
REMARK    2  A    between atoms: C_2  and  C_3
REMARK    3  A    between atoms: C_3  and  O_4
REMARK    4  A    between atoms: C_3  and  C_5
REMARK    5  A    between atoms: C_5  and  C_6
REMARK    6  A    between atoms: N_8  and  C_9
REMARK    7  A    between atoms: C_12  and  O_13
REMARK    8  A    between atoms: O_13  and  C_14
REMARK                            x       y       z     vdW  Elec       q    Type
REMARK                         _______ _______ _______ _____ _____    ______ ____
ROOT
ATOM      1  C   UNL     1       5.033   4.951  17.655  0.00  0.00    +0.000 A 
ATOM      2  C   UNL     1       4.562   6.235  17.801  0.00  0.00    +0.000 A 
ATOM      3  N   UNL     1       3.229   6.198  18.150  0.00  0.00    +0.000 N 
ATOM      4  C   UNL     1       2.789   4.881  18.043  0.00  0.00    +0.000 A 
ATOM      5  C   UNL     1       1.518   4.312  18.144  0.00  0.00    +0.000 A 
ATOM      6  N   UNL     1       1.365   2.975  18.004  0.00  0.00    +0.000 NA
ATOM      7  C   UNL     1       2.443   2.215  17.737  0.00  0.00    +0.000 A 
ATOM      8  C   UNL     1       3.730   2.703  17.597  0.00  0.00    +0.000 A 
ATOM      9  C   UNL     1       3.903   4.090  17.738  0.00  0.00    +0.000 A 
ENDROOT
BRANCH   3  10
ATOM     10  C   UNL     1       2.514   7.333  18.628  0.00  0.00    +0.000 A 
ATOM     11  C   UNL     1       2.113   7.388  19.973  0.00  0.00    +0.000 A 
ATOM     12  C   UNL     1       1.357   8.466  20.437  0.00  0.00    +0.000 A 
ATOM     13  C   UNL     1       0.983   9.485  19.563  0.00  0.00    +0.000 A 
ATOM     14  C   UNL     1       1.324   9.395  18.209  0.00  0.00    +0.000 A 
ATOM     15  C   UNL     1       2.116   8.342  17.748  0.00  0.00    +0.000 A 
BRANCH  13  16
ATOM     16  O   UNL     1       0.240  10.509  20.108  0.00  0.00    +0.000 OA
BRANCH  16  17
ATOM     17  C   UNL     1       0.438  11.788  19.642  0.00  0.00    +0.000 A 
ATOM     18  C   UNL     1       1.608  12.431  20.049  0.00  0.00    +0.000 A 
ATOM     19  C   UNL     1       1.842  13.754  19.663  0.00  0.00    +0.000 A 
ATOM     20  C   UNL     1       0.909  14.411  18.871  0.00  0.00    +0.000 A 
ATOM     21  F   UNL     1       1.111  15.692  18.537  0.00  0.00    +0.000 F 
ATOM     22  C   UNL     1      -0.235  13.765  18.419  0.00  0.00    +0.000 A 
ATOM     23  C   UNL     1      -0.457  12.435  18.780  0.00  0.00    +0.000 A 
ENDBRANCH  16  17
ENDBRANCH  13  16
ENDBRANCH   3  10
BRANCH   1  24
ATOM     24  C   UNL     1       6.470   4.565  17.496  0.00  0.00    +0.000 C 
BRANCH  24  25
ATOM     25  C   UNL     1       6.968   4.726  16.048  0.00  0.00    +0.000 C 
BRANCH  25  26
ATOM     26  O   UNL     1       7.447   6.067  15.877  0.00  0.00    +0.000 OA
ATOM     27  H   UNL     1       8.286   5.977  15.382  0.00  0.00    +0.000 HD
ENDBRANCH  25  26
BRANCH  25  28
ATOM     28  C   UNL     1       5.880   4.459  14.998  0.00  0.00    +0.000 C 
BRANCH  28  29
ATOM     29  O   UNL     1       6.329   3.446  14.095  0.00  0.00    +0.000 OA
ATOM     30  H   UNL     1       5.551   2.893  13.894  0.00  0.00    +0.000 HD
ENDBRANCH  28  29
ENDBRANCH  25  28
ENDBRANCH  24  25
ENDBRANCH   1  24
TORSDOF 8
ENDMDL
MODEL 4
REMARK VINA RESULT:      -8.5      2.030      3.496
REMARK  Name = 
REMARK  8 active torsions:
REMARK  status: ('A' for Active; 'I' for Inactive)
REMARK    1  A    between atoms: O_1  and  C_2
REMARK    2  A    between atoms: C_2  and  C_3
REMARK    3  A    between atoms: C_3  and  O_4
REMARK    4  A    between atoms: C_3  and  C_5
REMARK    5  A    between atoms: C_5  and  C_6
REMARK    6  A    between atoms: N_8  and  C_9
REMARK    7  A    between atoms: C_12  and  O_13
REMARK    8  A    between atoms: O_13  and  C_14
REMARK                            x       y       z     vdW  Elec       q    Type
REMARK                         _______ _______ _______ _____ _____    ______ ____
ROOT
ATOM      1  C   UNL     1       3.270   4.073  17.584  0.00  0.00    +0.000 A 
ATOM      2  C   UNL     1       2.561   5.007  18.304  0.00  0.00    +0.000 A 
ATOM      3  N   UNL     1       3.149   6.244  18.152  0.00  0.00    +0.000 N 
ATOM      4  C   UNL     1       4.357   6.072  17.481  0.00  0.00    +0.000 A 
ATOM      5  C   UNL     1       5.398   6.957  17.195  0.00  0.00    +0.000 A 
ATOM      6  N   UNL     1       6.480   6.525  16.506  0.00  0.00    +0.000 NA
ATOM      7  C   UNL     1       6.549   5.233  16.134  0.00  0.00    +0.000 A 
ATOM      8  C   UNL     1       5.574   4.288  16.402  0.00  0.00    +0.000 A 
ATOM      9  C   UNL     1       4.447   4.724  17.117  0.00  0.00    +0.000 A 
ENDROOT
BRANCH   3  10
ATOM     10  C   UNL     1       2.522   7.461  18.548  0.00  0.00    +0.000 A 
ATOM     11  C   UNL     1       1.967   7.572  19.834  0.00  0.00    +0.000 A 
ATOM     12  C   UNL     1       1.295   8.736  20.211  0.00  0.00    +0.000 A 
ATOM     13  C   UNL     1       1.158   9.787  19.307  0.00  0.00    +0.000 A 
ATOM     14  C   UNL     1       1.652   9.650  18.005  0.00  0.00    +0.000 A 
ATOM     15  C   UNL     1       2.362   8.505  17.635  0.00  0.00    +0.000 A 
BRANCH  13  16
ATOM     16  O   UNL     1       0.483  10.897  19.765  0.00  0.00    +0.000 OA
BRANCH  16  17
ATOM     17  C   UNL     1      -0.815  11.095  19.357  0.00  0.00    +0.000 A 
ATOM     18  C   UNL     1      -1.264  10.313  18.291  0.00  0.00    +0.000 A 
ATOM     19  C   UNL     1      -2.553  10.507  17.785  0.00  0.00    +0.000 A 
ATOM     20  C   UNL     1      -3.374  11.471  18.354  0.00  0.00    +0.000 A 
ATOM     21  F   UNL     1      -4.592  11.687  17.840  0.00  0.00    +0.000 F 
ATOM     22  C   UNL     1      -2.955  12.221  19.445  0.00  0.00    +0.000 A 
ATOM     23  C   UNL     1      -1.680  12.010  19.972  0.00  0.00    +0.000 A 
ENDBRANCH  16  17
ENDBRANCH  13  16
ENDBRANCH   3  10
BRANCH   1  24
ATOM     24  C   UNL     1       2.832   2.667  17.316  0.00  0.00    +0.000 C 
BRANCH  24  25
ATOM     25  C   UNL     1       3.016   1.749  18.538  0.00  0.00    +0.000 C 
BRANCH  25  26
ATOM     26  O   UNL     1       1.725   1.463  19.094  0.00  0.00    +0.000 OA
ATOM     27  H   UNL     1       1.364   2.333  19.359  0.00  0.00    +0.000 HD
ENDBRANCH  25  26
BRANCH  25  28
ATOM     28  C   UNL     1       3.894   2.367  19.637  0.00  0.00    +0.000 C 
BRANCH  28  29
ATOM     29  O   UNL     1       5.081   1.586  19.793  0.00  0.00    +0.000 OA
ATOM     30  H   UNL     1       4.822   0.659  19.634  0.00  0.00    +0.000 HD
ENDBRANCH  28  29
ENDBRANCH  25  28
ENDBRANCH  24  25
ENDBRANCH   1  24
TORSDOF 8
ENDMDL
MODEL 5
REMARK VINA RESULT:      -8.4      1.728      2.340
REMARK  Name = 
REMARK  8 active torsions:
REMARK  status: ('A' for Active; 'I' for Inactive)
REMARK    1  A    between atoms: O_1  and  C_2
REMARK    2  A    between atoms: C_2  and  C_3
REMARK    3  A    between atoms: C_3  and  O_4
REMARK    4  A    between atoms: C_3  and  C_5
REMARK    5  A    between atoms: C_5  and  C_6
REMARK    6  A    between atoms: N_8  and  C_9
REMARK    7  A    between atoms: C_12  and  O_13
REMARK    8  A    between atoms: O_13  and  C_14
REMARK                            x       y       z     vdW  Elec       q    Type
REMARK                         _______ _______ _______ _____ _____    ______ ____
ROOT
ATOM      1  C   UNL     1       4.676   4.879  18.803  0.00  0.00    +0.000 A 
ATOM      2  C   UNL     1       4.124   6.071  18.391  0.00  0.00    +0.000 A 
ATOM      3  N   UNL     1       2.942   6.285  19.066  0.00  0.00    +0.000 N 
ATOM      4  C   UNL     1       2.634   5.129  19.780  0.00  0.00    +0.000 A 
ATOM      5  C   UNL     1       1.502   4.758  20.510  0.00  0.00    +0.000 A 
ATOM      6  N   UNL     1       1.463   3.555  21.128  0.00  0.00    +0.000 NA
ATOM      7  C   UNL     1       2.510   2.718  21.001  0.00  0.00    +0.000 A 
ATOM      8  C   UNL     1       3.654   2.998  20.276  0.00  0.00    +0.000 A 
ATOM      9  C   UNL     1       3.707   4.244  19.629  0.00  0.00    +0.000 A 
ENDROOT
BRANCH   3  10
ATOM     10  C   UNL     1       2.258   7.534  19.069  0.00  0.00    +0.000 A 
ATOM     11  C   UNL     1       1.629   7.981  20.243  0.00  0.00    +0.000 A 
ATOM     12  C   UNL     1       0.902   9.174  20.240  0.00  0.00    +0.000 A 
ATOM     13  C   UNL     1       0.785   9.918  19.068  0.00  0.00    +0.000 A 
ATOM     14  C   UNL     1       1.355   9.438  17.884  0.00  0.00    +0.000 A 
ATOM     15  C   UNL     1       2.118   8.268  17.889  0.00  0.00    +0.000 A 
BRANCH  13  16
ATOM     16  O   UNL     1       0.053  11.081  19.158  0.00  0.00    +0.000 OA
BRANCH  16  17
ATOM     17  C   UNL     1      -1.260  11.067  18.750  0.00  0.00    +0.000 A 
ATOM     18  C   UNL     1      -2.111  12.005  19.339  0.00  0.00    +0.000 A 
ATOM     19  C   UNL     1      -3.471  12.006  19.015  0.00  0.00    +0.000 A 
ATOM     20  C   UNL     1      -3.959  11.078  18.105  0.00  0.00    +0.000 A 
ATOM     21  F   UNL     1      -5.269  11.049  17.829  0.00  0.00    +0.000 F 
ATOM     22  C   UNL     1      -3.113  10.173  17.476  0.00  0.00    +0.000 A 
ATOM     23  C   UNL     1      -1.750  10.188  17.775  0.00  0.00    +0.000 A 
ENDBRANCH  16  17
ENDBRANCH  13  16
ENDBRANCH   3  10
BRANCH   1  24
ATOM     24  C   UNL     1       6.054   4.399  18.471  0.00  0.00    +0.000 C 
BRANCH  24  25
ATOM     25  C   UNL     1       7.017   5.554  18.137  0.00  0.00    +0.000 C 
BRANCH  25  26
ATOM     26  O   UNL     1       7.517   5.362  16.807  0.00  0.00    +0.000 OA
ATOM     27  H   UNL     1       7.673   4.399  16.730  0.00  0.00    +0.000 HD
ENDBRANCH  25  26
BRANCH  25  28
ATOM     28  C   UNL     1       8.211   5.647  19.099  0.00  0.00    +0.000 C 
BRANCH  28  29
ATOM     29  O   UNL     1       7.745   5.551  20.447  0.00  0.00    +0.000 OA
ATOM     30  H   UNL     1       8.433   5.069  20.942  0.00  0.00    +0.000 HD
ENDBRANCH  28  29
ENDBRANCH  25  28
ENDBRANCH  24  25
ENDBRANCH   1  24
TORSDOF 8
ENDMDL
MODEL 6
REMARK VINA RESULT:      -8.4      1.107      1.518
REMARK  Name = 
REMARK  8 active torsions:
REMARK  status: ('A' for Active; 'I' for Inactive)
REMARK    1  A    between atoms: O_1  and  C_2
REMARK    2  A    between atoms: C_2  and  C_3
REMARK    3  A    between atoms: C_3  and  O_4
REMARK    4  A    between atoms: C_3  and  C_5
REMARK    5  A    between atoms: C_5  and  C_6
REMARK    6  A    between atoms: N_8  and  C_9
REMARK    7  A    between atoms: C_12  and  O_13
REMARK    8  A    between atoms: O_13  and  C_14
REMARK                            x       y       z     vdW  Elec       q    Type
REMARK                         _______ _______ _______ _____ _____    ______ ____
ROOT
ATOM      1  C   UNL     1       4.934   5.146  17.262  0.00  0.00    +0.000 A 
ATOM      2  C   UNL     1       4.399   6.400  17.443  0.00  0.00    +0.000 A 
ATOM      3  N   UNL     1       3.121   6.284  17.946  0.00  0.00    +0.000 N 
ATOM      4  C   UNL     1       2.761   4.939  17.909  0.00  0.00    +0.000 A 
ATOM      5  C   UNL     1       1.550   4.292  18.166  0.00  0.00    +0.000 A 
ATOM      6  N   UNL     1       1.472   2.944  18.064  0.00  0.00    +0.000 NA
ATOM      7  C   UNL     1       2.561   2.250  17.685  0.00  0.00    +0.000 A 
ATOM      8  C   UNL     1       3.788   2.817  17.388  0.00  0.00    +0.000 A 
ATOM      9  C   UNL     1       3.882   4.216  17.488  0.00  0.00    +0.000 A 
ENDROOT
BRANCH   3  10
ATOM     10  C   UNL     1       2.391   7.381  18.487  0.00  0.00    +0.000 A 
ATOM     11  C   UNL     1       2.151   8.516  17.694  0.00  0.00    +0.000 A 
ATOM     12  C   UNL     1       1.492   9.623  18.233  0.00  0.00    +0.000 A 
ATOM     13  C   UNL     1       1.084   9.612  19.565  0.00  0.00    +0.000 A 
ATOM     14  C   UNL     1       1.383   8.509  20.372  0.00  0.00    +0.000 A 
ATOM     15  C   UNL     1       2.004   7.383  19.829  0.00  0.00    +0.000 A 
BRANCH  13  16
ATOM     16  O   UNL     1       0.440  10.746  20.011  0.00  0.00    +0.000 OA
BRANCH  16  17
ATOM     17  C   UNL     1      -0.810  11.033  19.515  0.00  0.00    +0.000 A 
ATOM     18  C   UNL     1      -1.461  12.143  20.055  0.00  0.00    +0.000 A 
ATOM     19  C   UNL     1      -2.759  12.455  19.641  0.00  0.00    +0.000 A 
ATOM     20  C   UNL     1      -3.384  11.660  18.689  0.00  0.00    +0.000 A 
ATOM     21  F   UNL     1      -4.643  11.933  18.325  0.00  0.00    +0.000 F 
ATOM     22  C   UNL     1      -2.728  10.582  18.109  0.00  0.00    +0.000 A 
ATOM     23  C   UNL     1      -1.421  10.285  18.499  0.00  0.00    +0.000 A 
ENDBRANCH  16  17
ENDBRANCH  13  16
ENDBRANCH   3  10
BRANCH   1  24
ATOM     24  C   UNL     1       6.366   4.851  16.942  0.00  0.00    +0.000 C 
BRANCH  24  25
ATOM     25  C   UNL     1       7.308   5.146  18.124  0.00  0.00    +0.000 C 
BRANCH  25  26
ATOM     26  O   UNL     1       6.633   4.807  19.343  0.00  0.00    +0.000 OA
ATOM     27  H   UNL     1       7.172   5.211  20.053  0.00  0.00    +0.000 HD
ENDBRANCH  25  26
BRANCH  25  28
ATOM     28  C   UNL     1       7.743   6.618  18.200  0.00  0.00    +0.000 C 
BRANCH  28  29
ATOM     29  O   UNL     1       7.785   7.170  16.883  0.00  0.00    +0.000 OA
ATOM     30  H   UNL     1       8.023   8.111  16.987  0.00  0.00    +0.000 HD
ENDBRANCH  28  29
ENDBRANCH  25  28
ENDBRANCH  24  25
ENDBRANCH   1  24
TORSDOF 8
ENDMDL
MODEL 7
REMARK VINA RESULT:      -8.4      0.605      1.095
REMARK  Name = 
REMARK  8 active torsions:
REMARK  status: ('A' for Active; 'I' for Inactive)
REMARK    1  A    between atoms: O_1  and  C_2
REMARK    2  A    between atoms: C_2  and  C_3
REMARK    3  A    between atoms: C_3  and  O_4
REMARK    4  A    between atoms: C_3  and  C_5
REMARK    5  A    between atoms: C_5  and  C_6
REMARK    6  A    between atoms: N_8  and  C_9
REMARK    7  A    between atoms: C_12  and  O_13
REMARK    8  A    between atoms: O_13  and  C_14
REMARK                            x       y       z     vdW  Elec       q    Type
REMARK                         _______ _______ _______ _____ _____    ______ ____
ROOT
ATOM      1  C   UNL     1       5.219   5.011  18.072  0.00  0.00    +0.000 A 
ATOM      2  C   UNL     1       4.690   6.276  17.958  0.00  0.00    +0.000 A 
ATOM      3  N   UNL     1       3.383   6.267  18.396  0.00  0.00    +0.000 N 
ATOM      4  C   UNL     1       3.008   4.944  18.617  0.00  0.00    +0.000 A 
ATOM      5  C   UNL     1       1.777   4.364  18.928  0.00  0.00    +0.000 A 
ATOM      6  N   UNL     1       1.687   3.025  19.103  0.00  0.00    +0.000 NA
ATOM      7  C   UNL     1       2.788   2.266  18.941  0.00  0.00    +0.000 A 
ATOM      8  C   UNL     1       4.037   2.759  18.607  0.00  0.00    +0.000 A 
ATOM      9  C   UNL     1       4.143   4.148  18.422  0.00  0.00    +0.000 A 
ENDROOT
BRANCH   3  10
ATOM     10  C   UNL     1       2.637   7.452  18.654  0.00  0.00    +0.000 A 
ATOM     11  C   UNL     1       1.996   7.616  19.894  0.00  0.00    +0.000 A 
ATOM     12  C   UNL     1       1.209   8.744  20.135  0.00  0.00    +0.000 A 
ATOM     13  C   UNL     1       1.044   9.705  19.140  0.00  0.00    +0.000 A 
ATOM     14  C   UNL     1       1.628   9.509  17.884  0.00  0.00    +0.000 A 
ATOM     15  C   UNL     1       2.449   8.404  17.650  0.00  0.00    +0.000 A 
BRANCH  13  16
ATOM     16  O   UNL     1       0.254  10.786  19.467  0.00  0.00    +0.000 OA
BRANCH  16  17
ATOM     17  C   UNL     1      -1.007  10.869  18.924  0.00  0.00    +0.000 A 
ATOM     18  C   UNL     1      -1.857  11.839  19.458  0.00  0.00    +0.000 A 
ATOM     19  C   UNL     1      -3.173  11.937  18.995  0.00  0.00    +0.000 A 
ATOM     20  C   UNL     1      -3.616  11.071  18.004  0.00  0.00    +0.000 A 
ATOM     21  F   UNL     1      -4.889  11.135  17.593  0.00  0.00    +0.000 F 
ATOM     22  C   UNL     1      -2.765  10.135  17.432  0.00  0.00    +0.000 A 
ATOM     23  C   UNL     1      -1.442  10.054  17.871  0.00  0.00    +0.000 A 
ENDBRANCH  16  17
ENDBRANCH  13  16
ENDBRANCH   3  10
BRANCH   1  24
ATOM     24  C   UNL     1       6.663   4.655  17.907  0.00  0.00    +0.000 C 
BRANCH  24  25
ATOM     25  C   UNL     1       7.063   4.478  16.431  0.00  0.00    +0.000 C 
BRANCH  25  26
ATOM     26  O   UNL     1       7.384   5.765  15.886  0.00  0.00    +0.000 OA
ATOM     27  H   UNL     1       6.683   6.363  16.215  0.00  0.00    +0.000 HD
ENDBRANCH  25  26
BRANCH  25  28
ATOM     28  C   UNL     1       5.955   3.848  15.573  0.00  0.00    +0.000 C 
BRANCH  28  29
ATOM     29  O   UNL     1       6.457   3.594  14.259  0.00  0.00    +0.000 OA
ATOM     30  H   UNL     1       6.209   2.676  14.043  0.00  0.00    +0.000 HD
ENDBRANCH  28  29
ENDBRANCH  25  28
ENDBRANCH  24  25
ENDBRANCH   1  24
TORSDOF 8
ENDMDL
MODEL 8
REMARK VINA RESULT:      -8.3      2.165      2.982
REMARK  Name = 
REMARK  8 active torsions:
REMARK  status: ('A' for Active; 'I' for Inactive)
REMARK    1  A    between atoms: O_1  and  C_2
REMARK    2  A    between atoms: C_2  and  C_3
REMARK    3  A    between atoms: C_3  and  O_4
REMARK    4  A    between atoms: C_3  and  C_5
REMARK    5  A    between atoms: C_5  and  C_6
REMARK    6  A    between atoms: N_8  and  C_9
REMARK    7  A    between atoms: C_12  and  O_13
REMARK    8  A    between atoms: O_13  and  C_14
REMARK                            x       y       z     vdW  Elec       q    Type
REMARK                         _______ _______ _______ _____ _____    ______ ____
ROOT
ATOM      1  C   UNL     1       5.132   5.665  17.099  0.00  0.00    +0.000 A 
ATOM      2  C   UNL     1       4.498   6.866  17.320  0.00  0.00    +0.000 A 
ATOM      3  N   UNL     1       3.270   6.636  17.902  0.00  0.00    +0.000 N 
ATOM      4  C   UNL     1       3.031   5.264  17.882  0.00  0.00    +0.000 A 
ATOM      5  C   UNL     1       1.902   4.510  18.210  0.00  0.00    +0.000 A 
ATOM      6  N   UNL     1       1.939   3.161  18.107  0.00  0.00    +0.000 NA
ATOM      7  C   UNL     1       3.060   2.568  17.656  0.00  0.00    +0.000 A 
ATOM      8  C   UNL     1       4.209   3.243  17.285  0.00  0.00    +0.000 A 
ATOM      9  C   UNL     1       4.183   4.644  17.386  0.00  0.00    +0.000 A 
ENDROOT
BRANCH   3  10
ATOM     10  C   UNL     1       2.480   7.663  18.494  0.00  0.00    +0.000 A 
ATOM     11  C   UNL     1       2.127   7.574  19.851  0.00  0.00    +0.000 A 
ATOM     12  C   UNL     1       1.301   8.542  20.426  0.00  0.00    +0.000 A 
ATOM     13  C   UNL     1       0.810   9.591  19.652  0.00  0.00    +0.000 A 
ATOM     14  C   UNL     1       1.107   9.641  18.286  0.00  0.00    +0.000 A 
ATOM     15  C   UNL     1       1.966   8.700  17.714  0.00  0.00    +0.000 A 
BRANCH  13  16
ATOM     16  O   UNL     1       0.005  10.500  20.303  0.00  0.00    +0.000 OA
BRANCH  16  17
ATOM     17  C   UNL     1       0.243  11.842  20.120  0.00  0.00    +0.000 A 
ATOM     18  C   UNL     1      -0.733  12.564  19.430  0.00  0.00    +0.000 A 
ATOM     19  C   UNL     1      -0.526  13.919  19.155  0.00  0.00    +0.000 A 
ATOM     20  C   UNL     1       0.645  14.533  19.579  0.00  0.00    +0.000 A 
ATOM     21  F   UNL     1       0.863  15.819  19.276  0.00  0.00    +0.000 F 
ATOM     22  C   UNL     1       1.600  13.836  20.308  0.00  0.00    +0.000 A 
ATOM     23  C   UNL     1       1.384  12.491  20.609  0.00  0.00    +0.000 A 
ENDBRANCH  16  17
ENDBRANCH  13  16
ENDBRANCH   3  10
BRANCH   1  24
ATOM     24  C   UNL     1       6.561   5.500  16.688  0.00  0.00    +0.000 C 
BRANCH  24  25
ATOM     25  C   UNL     1       7.505   5.325  17.892  0.00  0.00    +0.000 C 
BRANCH  25  26
ATOM     26  O   UNL     1       8.039   3.994  17.864  0.00  0.00    +0.000 OA
ATOM     27  H   UNL     1       8.494   3.920  17.001  0.00  0.00    +0.000 HD
ENDBRANCH  25  26
BRANCH  25  28
ATOM     28  C   UNL     1       6.812   5.543  19.245  0.00  0.00    +0.000 C 
BRANCH  28  29
ATOM     29  O   UNL     1       7.782   5.477  20.292  0.00  0.00    +0.000 OA
ATOM     30  H   UNL     1       8.646   5.350  19.859  0.00  0.00    +0.000 HD
ENDBRANCH  28  29
ENDBRANCH  25  28
ENDBRANCH  24  25
ENDBRANCH   1  24
TORSDOF 8
ENDMDL
MODEL 9
REMARK VINA RESULT:      -8.3      2.827      4.135
REMARK  Name = 
REMARK  8 active torsions:
REMARK  status: ('A' for Active; 'I' for Inactive)
REMARK    1  A    between atoms: O_1  and  C_2
REMARK    2  A    between atoms: C_2  and  C_3
REMARK    3  A    between atoms: C_3  and  O_4
REMARK    4  A    between atoms: C_3  and  C_5
REMARK    5  A    between atoms: C_5  and  C_6
REMARK    6  A    between atoms: N_8  and  C_9
REMARK    7  A    between atoms: C_12  and  O_13
REMARK    8  A    between atoms: O_13  and  C_14
REMARK                            x       y       z     vdW  Elec       q    Type
REMARK                         _______ _______ _______ _____ _____    ______ ____
ROOT
ATOM      1  C   UNL     1       3.190   4.127  17.609  0.00  0.00    +0.000 A 
ATOM      2  C   UNL     1       2.462   5.012  18.370  0.00  0.00    +0.000 A 
ATOM      3  N   UNL     1       2.990   6.278  18.231  0.00  0.00    +0.000 N 
ATOM      4  C   UNL     1       4.186   6.174  17.524  0.00  0.00    +0.000 A 
ATOM      5  C   UNL     1       5.178   7.111  17.230  0.00  0.00    +0.000 A 
ATOM      6  N   UNL     1       6.258   6.743  16.502  0.00  0.00    +0.000 NA
ATOM      7  C   UNL     1       6.373   5.464  16.098  0.00  0.00    +0.000 A 
ATOM      8  C   UNL     1       5.449   4.471  16.370  0.00  0.00    +0.000 A 
ATOM      9  C   UNL     1       4.324   4.840  17.126  0.00  0.00    +0.000 A 
ENDROOT
BRANCH   3  10
ATOM     10  C   UNL     1       2.322   7.456  18.672  0.00  0.00    +0.000 A 
ATOM     11  C   UNL     1       1.963   7.588  20.024  0.00  0.00    +0.000 A 
ATOM     12  C   UNL     1       1.253   8.709  20.456  0.00  0.00    +0.000 A 
ATOM     13  C   UNL     1       0.882   9.695  19.544  0.00  0.00    +0.000 A 
ATOM     14  C   UNL     1       1.181   9.531  18.187  0.00  0.00    +0.000 A 
ATOM     15  C   UNL     1       1.928   8.432  17.755  0.00  0.00    +0.000 A 
BRANCH  13  16
ATOM     16  O   UNL     1       0.186  10.767  20.059  0.00  0.00    +0.000 OA
BRANCH  16  17
ATOM     17  C   UNL     1       0.572  12.037  19.703  0.00  0.00    +0.000 A 
ATOM     18  C   UNL     1      -0.357  12.801  18.994  0.00  0.00    +0.000 A 
ATOM     19  C   UNL     1      -0.007  14.079  18.548  0.00  0.00    +0.000 A 
ATOM     20  C   UNL     1       1.260  14.576  18.822  0.00  0.00    +0.000 A 
ATOM     21  F   UNL     1       1.611  15.782  18.355  0.00  0.00    +0.000 F 
ATOM     22  C   UNL     1       2.175  13.845  19.568  0.00  0.00    +0.000 A 
ATOM     23  C   UNL     1       1.819  12.581  20.040  0.00  0.00    +0.000 A 
ENDBRANCH  16  17
ENDBRANCH  13  16
ENDBRANCH   3  10
BRANCH   1  24
ATOM     24  C   UNL     1       2.808   2.709  17.320  0.00  0.00    +0.000 C 
BRANCH  24  25
ATOM     25  C   UNL     1       2.923   1.803  18.560  0.00  0.00    +0.000 C 
BRANCH  25  26
ATOM     26  O   UNL     1       1.604   1.541  19.059  0.00  0.00    +0.000 OA
ATOM     27  H   UNL     1       1.534   2.065  19.882  0.00  0.00    +0.000 HD
ENDBRANCH  25  26
BRANCH  25  28
ATOM     28  C   UNL     1       3.758   2.422  19.691  0.00  0.00    +0.000 C 
BRANCH  28  29
ATOM     29  O   UNL     1       5.084   1.891  19.648  0.00  0.00    +0.000 OA
ATOM     30  H   UNL     1       5.014   0.956  19.917  0.00  0.00    +0.000 HD
ENDBRANCH  28  29
ENDBRANCH  25  28
ENDBRANCH  24  25
ENDBRANCH   1  24
TORSDOF 8
ENDMDL
