MODEL 1
REMARK VINA RESULT:      -7.3      0.000      0.000
REMARK  Name = 
REMARK  10 active torsions:
REMARK  status: ('A' for Active; 'I' for Inactive)
REMARK    1  A    between atoms: C_1  and  C_2
REMARK    2  A    between atoms: C_2  and  C_3
REMARK    3  A    between atoms: C_3  and  N_4
REMARK    4  A    between atoms: C_8  and  C_9
REMARK    5  A    between atoms: C_9  and  N_10
REMARK    6  A    between atoms: N_10  and  C_11
REMARK    7  A    between atoms: N_10  and  C_12
REMARK    8  A    between atoms: C_12  and  C_13
REMARK    9  A    between atoms: C_16  and  C_17
REMARK   10  A    between atoms: N_20  and  C_21
REMARK                            x       y       z     vdW  Elec       q    Type
REMARK                         _______ _______ _______ _____ _____    ______ ____
ROOT
ATOM      1  N   UNL     1       5.947   4.427  16.706  0.00  0.00    +0.000 NA
ATOM      2  C   UNL     1       7.187   5.064  17.160  0.00  0.00    +0.000 C 
ENDROOT
BRANCH   1   3
ATOM      3  C   UNL     1       6.116   3.718  15.411  0.00  0.00    +0.000 C 
BRANCH   3   8
ATOM      4  N   UNL     1       6.814   4.135  12.979  0.00  0.00    +0.000 N 
ATOM      5  N   UNL     1       7.655   4.953  12.317  0.00  0.00    +0.000 NA
ATOM      6  N   UNL     1       8.183   5.740  13.237  0.00  0.00    +0.000 NA
ATOM      7  N   UNL     1       7.696   5.432  14.477  0.00  0.00    +0.000 NA
ATOM      8  C   UNL     1       6.831   4.443  14.317  0.00  0.00    +0.000 A 
BRANCH   4   9
ATOM      9  C   UNL     1       6.029   3.187  12.228  0.00  0.00    +0.000 C 
BRANCH   9  11
ATOM     10  C   UNL     1       6.250   0.897  11.119  0.00  0.00    +0.000 C 
ATOM     11  C   UNL     1       6.838   2.289  11.289  0.00  0.00    +0.000 C 
ENDBRANCH   9  11
ENDBRANCH   4   9
ENDBRANCH   3   8
ENDBRANCH   1   3
BRANCH   1  12
ATOM     12  C   UNL     1       4.842   5.395  16.700  0.00  0.00    +0.000 C 
BRANCH  12  13
ATOM     13  C   UNL     1       3.960   5.247  17.901  0.00  0.00    +0.000 A 
ATOM     14  N   UNL     1       3.977   6.032  18.960  0.00  0.00    +0.000 NA
ATOM     15  N   UNL     1       2.984   5.627  19.812  0.00  0.00    +0.000 NA
ATOM     16  C   UNL     1       2.384   4.583  19.279  0.00  0.00    +0.000 A 
ATOM     17  N   UNL     1       2.970   4.303  18.068  0.00  0.00    +0.000 N 
ATOM     18  C   UNL     1       2.592   3.259  17.155  0.00  0.00    +0.000 C 
BRANCH  16  19
ATOM     19  C   UNL     1       1.219   3.854  19.937  0.00  0.00    +0.000 C 
ATOM     20  C   UNL     1       1.404   2.388  20.283  0.00  0.00    +0.000 C 
ATOM     21  C   UNL     1       1.392   3.401  21.374  0.00  0.00    +0.000 C 
ENDBRANCH  16  19
ENDBRANCH  12  13
ENDBRANCH   1  12
TORSDOF 7
ENDMDL
MODEL 2
REMARK VINA RESULT:      -7.3      1.786      7.056
REMARK  Name = 
REMARK  10 active torsions:
REMARK  status: ('A' for Active; 'I' for Inactive)
REMARK    1  A    between atoms: C_1  and  C_2
REMARK    2  A    between atoms: C_2  and  C_3
REMARK    3  A    between atoms: C_3  and  N_4
REMARK    4  A    between atoms: C_8  and  C_9
REMARK    5  A    between atoms: C_9  and  N_10
REMARK    6  A    between atoms: N_10  and  C_11
REMARK    7  A    between atoms: N_10  and  C_12
REMARK    8  A    between atoms: C_12  and  C_13
REMARK    9  A    between atoms: C_16  and  C_17
REMARK   10  A    between atoms: N_20  and  C_21
REMARK                            x       y       z     vdW  Elec       q    Type
REMARK                         _______ _______ _______ _____ _____    ______ ____
ROOT
ATOM      1  N   UNL     1       4.680   5.922  18.039  0.00  0.00    +0.000 NA
ATOM      2  C   UNL     1       4.052   7.165  17.581  0.00  0.00    +0.000 C 
ENDROOT
BRANCH   1   3
ATOM      3  C   UNL     1       4.328   5.595  19.446  0.00  0.00    +0.000 C 
BRANCH   3   8
ATOM      4  N   UNL     1       3.204   3.495  20.397  0.00  0.00    +0.000 N 
ATOM      5  N   UNL     1       3.554   2.225  20.677  0.00  0.00    +0.000 NA
ATOM      6  N   UNL     1       4.811   2.110  20.288  0.00  0.00    +0.000 NA
ATOM      7  N   UNL     1       5.269   3.288  19.770  0.00  0.00    +0.000 NA
ATOM      8  C   UNL     1       4.265   4.149  19.821  0.00  0.00    +0.000 A 
BRANCH   4   9
ATOM      9  C   UNL     1       1.849   3.917  20.653  0.00  0.00    +0.000 C 
BRANCH   9  11
ATOM     10  C   UNL     1       1.167   3.737  18.198  0.00  0.00    +0.000 C 
ATOM     11  C   UNL     1       0.818   3.408  19.642  0.00  0.00    +0.000 C 
ENDBRANCH   9  11
ENDBRANCH   4   9
ENDBRANCH   3   8
ENDBRANCH   1   3
BRANCH   1  12
ATOM     12  C   UNL     1       6.128   5.955  17.794  0.00  0.00    +0.000 C 
BRANCH  12  13
ATOM     13  C   UNL     1       6.473   5.501  16.409  0.00  0.00    +0.000 A 
ATOM     14  N   UNL     1       7.424   6.014  15.654  0.00  0.00    +0.000 NA
ATOM     15  N   UNL     1       7.485   5.294  14.491  0.00  0.00    +0.000 NA
ATOM     16  C   UNL     1       6.556   4.362  14.534  0.00  0.00    +0.000 A 
ATOM     17  N   UNL     1       5.886   4.456  15.730  0.00  0.00    +0.000 N 
ATOM     18  C   UNL     1       4.819   3.605  16.182  0.00  0.00    +0.000 C 
BRANCH  16  19
ATOM     19  C   UNL     1       6.319   3.356  13.414  0.00  0.00    +0.000 C 
ATOM     20  C   UNL     1       5.351   3.738  12.310  0.00  0.00    +0.000 C 
ATOM     21  C   UNL     1       6.812   3.718  12.026  0.00  0.00    +0.000 C 
ENDBRANCH  16  19
ENDBRANCH  12  13
ENDBRANCH   1  12
TORSDOF 7
ENDMDL
MODEL 3
REMARK VINA RESULT:      -7.2      1.196      1.619
REMARK  Name = 
REMARK  10 active torsions:
REMARK  status: ('A' for Active; 'I' for Inactive)
REMARK    1  A    between atoms: C_1  and  C_2
REMARK    2  A    between atoms: C_2  and  C_3
REMARK    3  A    between atoms: C_3  and  N_4
REMARK    4  A    between atoms: C_8  and  C_9
REMARK    5  A    between atoms: C_9  and  N_10
REMARK    6  A    between atoms: N_10  and  C_11
REMARK    7  A    between atoms: N_10  and  C_12
REMARK    8  A    between atoms: C_12  and  C_13
REMARK    9  A    between atoms: C_16  and  C_17
REMARK   10  A    between atoms: N_20  and  C_21
REMARK                            x       y       z     vdW  Elec       q    Type
REMARK                         _______ _______ _______ _____ _____    ______ ____
ROOT
ATOM      1  N   UNL     1       5.121   4.499  16.287  0.00  0.00    +0.000 NA
ATOM      2  C   UNL     1       3.826   3.823  16.407  0.00  0.00    +0.000 C 
ENDROOT
BRANCH   1   3
ATOM      3  C   UNL     1       6.094   3.719  15.478  0.00  0.00    +0.000 C 
BRANCH   3   8
ATOM      4  N   UNL     1       6.832   4.171  13.064  0.00  0.00    +0.000 N 
ATOM      5  N   UNL     1       7.702   4.979  12.429  0.00  0.00    +0.000 NA
ATOM      6  N   UNL     1       8.240   5.732  13.373  0.00  0.00    +0.000 NA
ATOM      7  N   UNL     1       7.731   5.410  14.600  0.00  0.00    +0.000 NA
ATOM      8  C   UNL     1       6.841   4.449  14.409  0.00  0.00    +0.000 A 
BRANCH   4   9
ATOM      9  C   UNL     1       6.031   3.261  12.283  0.00  0.00    +0.000 C 
BRANCH   9  11
ATOM     10  C   UNL     1       3.884   3.019  10.920  0.00  0.00    +0.000 C 
ATOM     11  C   UNL     1       4.573   3.689  12.099  0.00  0.00    +0.000 C 
ENDBRANCH   9  11
ENDBRANCH   4   9
ENDBRANCH   3   8
ENDBRANCH   1   3
BRANCH   1  12
ATOM     12  C   UNL     1       5.633   4.872  17.613  0.00  0.00    +0.000 C 
BRANCH  12  13
ATOM     13  C   UNL     1       4.528   5.098  18.598  0.00  0.00    +0.000 A 
ATOM     14  N   UNL     1       3.819   6.205  18.706  0.00  0.00    +0.000 NA
ATOM     15  N   UNL     1       2.860   6.009  19.664  0.00  0.00    +0.000 NA
ATOM     16  C   UNL     1       3.005   4.794  20.150  0.00  0.00    +0.000 A 
ATOM     17  N   UNL     1       4.052   4.179  19.508  0.00  0.00    +0.000 N 
ATOM     18  C   UNL     1       4.520   2.837  19.723  0.00  0.00    +0.000 C 
BRANCH  16  19
ATOM     19  C   UNL     1       2.113   4.211  21.239  0.00  0.00    +0.000 C 
ATOM     20  C   UNL     1       1.008   3.260  20.819  0.00  0.00    +0.000 C 
ATOM     21  C   UNL     1       2.212   2.722  21.509  0.00  0.00    +0.000 C 
ENDBRANCH  16  19
ENDBRANCH  12  13
ENDBRANCH   1  12
TORSDOF 7
ENDMDL
MODEL 4
REMARK VINA RESULT:      -7.1      1.444      2.008
REMARK  Name = 
REMARK  10 active torsions:
REMARK  status: ('A' for Active; 'I' for Inactive)
REMARK    1  A    between atoms: C_1  and  C_2
REMARK    2  A    between atoms: C_2  and  C_3
REMARK    3  A    between atoms: C_3  and  N_4
REMARK    4  A    between atoms: C_8  and  C_9
REMARK    5  A    between atoms: C_9  and  N_10
REMARK    6  A    between atoms: N_10  and  C_11
REMARK    7  A    between atoms: N_10  and  C_12
REMARK    8  A    between atoms: C_12  and  C_13
REMARK    9  A    between atoms: C_16  and  C_17
REMARK   10  A    between atoms: N_20  and  C_21
REMARK                            x       y       z     vdW  Elec       q    Type
REMARK                         _______ _______ _______ _____ _____    ______ ____
ROOT
ATOM      1  N   UNL     1       5.953   6.112  16.914  0.00  0.00    +0.000 NA
ATOM      2  C   UNL     1       4.615   6.596  16.561  0.00  0.00    +0.000 C 
ENDROOT
BRANCH   1   3
ATOM      3  C   UNL     1       6.314   4.867  16.187  0.00  0.00    +0.000 C 
BRANCH   3   8
ATOM      4  N   UNL     1       6.556   4.381  13.681  0.00  0.00    +0.000 N 
ATOM      5  N   UNL     1       7.416   4.689  12.691  0.00  0.00    +0.000 NA
ATOM      6  N   UNL     1       8.314   5.489  13.237  0.00  0.00    +0.000 NA
ATOM      7  N   UNL     1       8.043   5.691  14.562  0.00  0.00    +0.000 NA
ATOM      8  C   UNL     1       6.939   5.014  14.837  0.00  0.00    +0.000 A 
BRANCH   4   9
ATOM      9  C   UNL     1       5.411   3.559  13.378  0.00  0.00    +0.000 C 
BRANCH   9  11
ATOM     10  C   UNL     1       4.068   3.252  11.227  0.00  0.00    +0.000 C 
ATOM     11  C   UNL     1       5.382   3.004  11.951  0.00  0.00    +0.000 C 
ENDBRANCH   9  11
ENDBRANCH   4   9
ENDBRANCH   3   8
ENDBRANCH   1   3
BRANCH   1  12
ATOM     12  C   UNL     1       6.091   5.995  18.372  0.00  0.00    +0.000 C 
BRANCH  12  13
ATOM     13  C   UNL     1       5.245   4.893  18.930  0.00  0.00    +0.000 A 
ATOM     14  N   UNL     1       5.619   3.635  19.057  0.00  0.00    +0.000 NA
ATOM     15  N   UNL     1       4.607   2.945  19.668  0.00  0.00    +0.000 NA
ATOM     16  C   UNL     1       3.613   3.779  19.889  0.00  0.00    +0.000 A 
ATOM     17  N   UNL     1       3.969   5.026  19.434  0.00  0.00    +0.000 N 
ATOM     18  C   UNL     1       3.178   6.224  19.510  0.00  0.00    +0.000 C 
BRANCH  16  19
ATOM     19  C   UNL     1       2.306   3.375  20.559  0.00  0.00    +0.000 C 
ATOM     20  C   UNL     1       1.016   3.591  19.790  0.00  0.00    +0.000 C 
ATOM     21  C   UNL     1       1.540   2.209  19.965  0.00  0.00    +0.000 C 
ENDBRANCH  16  19
ENDBRANCH  12  13
ENDBRANCH   1  12
TORSDOF 7
ENDMDL
MODEL 5
REMARK VINA RESULT:      -7.1      3.646      4.976
REMARK  Name = 
REMARK  10 active torsions:
REMARK  status: ('A' for Active; 'I' for Inactive)
REMARK    1  A    between atoms: C_1  and  C_2
REMARK    2  A    between atoms: C_2  and  C_3
REMARK    3  A    between atoms: C_3  and  N_4
REMARK    4  A    between atoms: C_8  and  C_9
REMARK    5  A    between atoms: C_9  and  N_10
REMARK    6  A    between atoms: N_10  and  C_11
REMARK    7  A    between atoms: N_10  and  C_12
REMARK    8  A    between atoms: C_12  and  C_13
REMARK    9  A    between atoms: C_16  and  C_17
REMARK   10  A    between atoms: N_20  and  C_21
REMARK                            x       y       z     vdW  Elec       q    Type
REMARK                         _______ _______ _______ _____ _____    ______ ____
ROOT
ATOM      1  N   UNL     1       3.821   6.096  17.448  0.00  0.00    +0.000 NA
ATOM      2  C   UNL     1       3.835   4.634  17.346  0.00  0.00    +0.000 C 
ENDROOT
BRANCH   1   3
ATOM      3  C   UNL     1       5.173   6.690  17.280  0.00  0.00    +0.000 C 
BRANCH   3   8
ATOM      4  N   UNL     1       7.005   5.059  16.534  0.00  0.00    +0.000 N 
ATOM      5  N   UNL     1       7.951   4.297  17.117  0.00  0.00    +0.000 NA
ATOM      6  N   UNL     1       7.866   4.556  18.410  0.00  0.00    +0.000 NA
ATOM      7  N   UNL     1       6.877   5.465  18.660  0.00  0.00    +0.000 NA
ATOM      8  C   UNL     1       6.349   5.793  17.491  0.00  0.00    +0.000 A 
BRANCH   4   9
ATOM      9  C   UNL     1       6.888   5.044  15.097  0.00  0.00    +0.000 C 
BRANCH   9  11
ATOM     10  C   UNL     1       6.222   3.695  13.033  0.00  0.00    +0.000 C 
ATOM     11  C   UNL     1       6.067   3.881  14.534  0.00  0.00    +0.000 C 
ENDBRANCH   9  11
ENDBRANCH   4   9
ENDBRANCH   3   8
ENDBRANCH   1   3
BRANCH   1  12
ATOM     12  C   UNL     1       3.148   6.520  18.684  0.00  0.00    +0.000 C 
BRANCH  12  13
ATOM     13  C   UNL     1       2.452   7.835  18.522  0.00  0.00    +0.000 A 
ATOM     14  N   UNL     1       2.417   8.547  17.413  0.00  0.00    +0.000 NA
ATOM     15  N   UNL     1       1.630   9.646  17.631  0.00  0.00    +0.000 NA
ATOM     16  C   UNL     1       1.208   9.610  18.878  0.00  0.00    +0.000 A 
ATOM     17  N   UNL     1       1.707   8.482  19.484  0.00  0.00    +0.000 N 
ATOM     18  C   UNL     1       1.460   8.056  20.835  0.00  0.00    +0.000 C 
BRANCH  16  19
ATOM     19  C   UNL     1       0.302  10.669  19.492  0.00  0.00    +0.000 C 
ATOM     20  C   UNL     1       0.942  11.735  20.361  0.00  0.00    +0.000 C 
ATOM     21  C   UNL     1       0.453  12.097  19.003  0.00  0.00    +0.000 C 
ENDBRANCH  16  19
ENDBRANCH  12  13
ENDBRANCH   1  12
TORSDOF 7
ENDMDL
MODEL 6
REMARK VINA RESULT:      -7.1      1.189      1.456
REMARK  Name = 
REMARK  10 active torsions:
REMARK  status: ('A' for Active; 'I' for Inactive)
REMARK    1  A    between atoms: C_1  and  C_2
REMARK    2  A    between atoms: C_2  and  C_3
REMARK    3  A    between atoms: C_3  and  N_4
REMARK    4  A    between atoms: C_8  and  C_9
REMARK    5  A    between atoms: C_9  and  N_10
REMARK    6  A    between atoms: N_10  and  C_11
REMARK    7  A    between atoms: N_10  and  C_12
REMARK    8  A    between atoms: C_12  and  C_13
REMARK    9  A    between atoms: C_16  and  C_17
REMARK   10  A    between atoms: N_20  and  C_21
REMARK                            x       y       z     vdW  Elec       q    Type
REMARK                         _______ _______ _______ _____ _____    ______ ____
ROOT
ATOM      1  N   UNL     1       6.064   5.053  16.701  0.00  0.00    +0.000 NA
ATOM      2  C   UNL     1       6.001   6.481  16.378  0.00  0.00    +0.000 C 
ENDROOT
BRANCH   1   3
ATOM      3  C   UNL     1       7.099   4.338  15.910  0.00  0.00    +0.000 C 
BRANCH   3   8
ATOM      4  N   UNL     1       6.703   4.299  13.377  0.00  0.00    +0.000 N 
ATOM      5  N   UNL     1       7.232   4.880  12.283  0.00  0.00    +0.000 NA
ATOM      6  N   UNL     1       8.165   5.700  12.733  0.00  0.00    +0.000 NA
ATOM      7  N   UNL     1       8.243   5.647  14.096  0.00  0.00    +0.000 NA
ATOM      8  C   UNL     1       7.321   4.786  14.502  0.00  0.00    +0.000 A 
BRANCH   4   9
ATOM      9  C   UNL     1       5.601   3.384  13.215  0.00  0.00    +0.000 C 
BRANCH   9  11
ATOM     10  C   UNL     1       5.810   1.701  11.305  0.00  0.00    +0.000 C 
ATOM     11  C   UNL     1       5.260   3.044  11.762  0.00  0.00    +0.000 C 
ENDBRANCH   9  11
ENDBRANCH   4   9
ENDBRANCH   3   8
ENDBRANCH   1   3
BRANCH   1  12
ATOM     12  C   UNL     1       4.730   4.443  16.601  0.00  0.00    +0.000 C 
BRANCH  12  13
ATOM     13  C   UNL     1       4.230   3.967  17.929  0.00  0.00    +0.000 A 
ATOM     14  N   UNL     1       4.826   3.072  18.692  0.00  0.00    +0.000 NA
ATOM     15  N   UNL     1       4.110   2.951  19.853  0.00  0.00    +0.000 NA
ATOM     16  C   UNL     1       3.069   3.755  19.782  0.00  0.00    +0.000 A 
ATOM     17  N   UNL     1       3.101   4.417  18.578  0.00  0.00    +0.000 N 
ATOM     18  C   UNL     1       2.161   5.404  18.120  0.00  0.00    +0.000 C 
BRANCH  16  19
ATOM     19  C   UNL     1       2.038   3.898  20.893  0.00  0.00    +0.000 C 
ATOM     20  C   UNL     1       0.759   3.088  20.784  0.00  0.00    +0.000 C 
ATOM     21  C   UNL     1       1.789   2.696  21.784  0.00  0.00    +0.000 C 
ENDBRANCH  16  19
ENDBRANCH  12  13
ENDBRANCH   1  12
TORSDOF 7
ENDMDL
MODEL 7
REMARK VINA RESULT:      -7.0      1.219      1.441
REMARK  Name = 
REMARK  10 active torsions:
REMARK  status: ('A' for Active; 'I' for Inactive)
REMARK    1  A    between atoms: C_1  and  C_2
REMARK    2  A    between atoms: C_2  and  C_3
REMARK    3  A    between atoms: C_3  and  N_4
REMARK    4  A    between atoms: C_8  and  C_9
REMARK    5  A    between atoms: C_9  and  N_10
REMARK    6  A    between atoms: N_10  and  C_11
REMARK    7  A    between atoms: N_10  and  C_12
REMARK    8  A    between atoms: C_12  and  C_13
REMARK    9  A    between atoms: C_16  and  C_17
REMARK   10  A    between atoms: N_20  and  C_21
REMARK                            x       y       z     vdW  Elec       q    Type
REMARK                         _______ _______ _______ _____ _____    ______ ____
ROOT
ATOM      1  N   UNL     1       6.915   5.423  16.926  0.00  0.00    +0.000 NA
ATOM      2  C   UNL     1       6.774   6.799  17.411  0.00  0.00    +0.000 C 
ENDROOT
BRANCH   1   3
ATOM      3  C   UNL     1       6.078   5.156  15.727  0.00  0.00    +0.000 C 
BRANCH   3   8
ATOM      4  N   UNL     1       6.443   4.298  13.338  0.00  0.00    +0.000 N 
ATOM      5  N   UNL     1       7.352   4.457  12.357  0.00  0.00    +0.000 NA
ATOM      6  N   UNL     1       8.225   5.335  12.821  0.00  0.00    +0.000 NA
ATOM      7  N   UNL     1       7.889   5.733  14.084  0.00  0.00    +0.000 NA
ATOM      8  C   UNL     1       6.770   5.101  14.403  0.00  0.00    +0.000 A 
BRANCH   4   9
ATOM      9  C   UNL     1       5.312   3.435  13.106  0.00  0.00    +0.000 C 
BRANCH   9  11
ATOM     10  C   UNL     1       3.862   3.213  11.015  0.00  0.00    +0.000 C 
ATOM     11  C   UNL     1       5.197   2.903  11.675  0.00  0.00    +0.000 C 
ENDBRANCH   9  11
ENDBRANCH   4   9
ENDBRANCH   3   8
ENDBRANCH   1   3
BRANCH   1  12
ATOM     12  C   UNL     1       6.688   4.466  18.018  0.00  0.00    +0.000 C 
BRANCH  12  13
ATOM     13  C   UNL     1       5.336   4.634  18.640  0.00  0.00    +0.000 A 
ATOM     14  N   UNL     1       5.016   5.548  19.534  0.00  0.00    +0.000 NA
ATOM     15  N   UNL     1       3.680   5.432  19.809  0.00  0.00    +0.000 NA
ATOM     16  C   UNL     1       3.198   4.433  19.099  0.00  0.00    +0.000 A 
ATOM     17  N   UNL     1       4.212   3.893  18.345  0.00  0.00    +0.000 N 
ATOM     18  C   UNL     1       4.099   2.804  17.413  0.00  0.00    +0.000 C 
BRANCH  16  19
ATOM     19  C   UNL     1       1.738   4.000  19.137  0.00  0.00    +0.000 C 
ATOM     20  C   UNL     1       1.371   2.814  20.008  0.00  0.00    +0.000 C 
ATOM     21  C   UNL     1       0.981   4.185  20.437  0.00  0.00    +0.000 C 
ENDBRANCH  16  19
ENDBRANCH  12  13
ENDBRANCH   1  12
TORSDOF 7
ENDMDL
MODEL 8
REMARK VINA RESULT:      -7.0      0.879      1.142
REMARK  Name = 
REMARK  10 active torsions:
REMARK  status: ('A' for Active; 'I' for Inactive)
REMARK    1  A    between atoms: C_1  and  C_2
REMARK    2  A    between atoms: C_2  and  C_3
REMARK    3  A    between atoms: C_3  and  N_4
REMARK    4  A    between atoms: C_8  and  C_9
REMARK    5  A    between atoms: C_9  and  N_10
REMARK    6  A    between atoms: N_10  and  C_11
REMARK    7  A    between atoms: N_10  and  C_12
REMARK    8  A    between atoms: C_12  and  C_13
REMARK    9  A    between atoms: C_16  and  C_17
REMARK   10  A    between atoms: N_20  and  C_21
REMARK                            x       y       z     vdW  Elec       q    Type
REMARK                         _______ _______ _______ _____ _____    ______ ____
ROOT
ATOM      1  N   UNL     1       6.049   4.305  16.620  0.00  0.00    +0.000 NA
ATOM      2  C   UNL     1       7.264   5.039  16.989  0.00  0.00    +0.000 C 
ENDROOT
BRANCH   1   3
ATOM      3  C   UNL     1       6.176   3.625  15.304  0.00  0.00    +0.000 C 
BRANCH   3   8
ATOM      4  N   UNL     1       6.760   4.099  12.853  0.00  0.00    +0.000 N 
ATOM      5  N   UNL     1       7.546   4.952  12.170  0.00  0.00    +0.000 NA
ATOM      6  N   UNL     1       8.086   5.743  13.080  0.00  0.00    +0.000 NA
ATOM      7  N   UNL     1       7.661   5.403  14.333  0.00  0.00    +0.000 NA
ATOM      8  C   UNL     1       6.821   4.388  14.194  0.00  0.00    +0.000 A 
BRANCH   4   9
ATOM      9  C   UNL     1       5.975   3.136  12.120  0.00  0.00    +0.000 C 
BRANCH   9  11
ATOM     10  C   UNL     1       3.847   3.380  10.729  0.00  0.00    +0.000 C 
ATOM     11  C   UNL     1       4.469   3.409  12.117  0.00  0.00    +0.000 C 
ENDBRANCH   9  11
ENDBRANCH   4   9
ENDBRANCH   3   8
ENDBRANCH   1   3
BRANCH   1  12
ATOM     12  C   UNL     1       4.872   5.179  16.713  0.00  0.00    +0.000 C 
BRANCH  12  13
ATOM     13  C   UNL     1       4.086   4.932  17.963  0.00  0.00    +0.000 A 
ATOM     14  N   UNL     1       3.838   5.828  18.897  0.00  0.00    +0.000 NA
ATOM     15  N   UNL     1       3.035   5.252  19.845  0.00  0.00    +0.000 NA
ATOM     16  C   UNL     1       2.818   4.001  19.495  0.00  0.00    +0.000 A 
ATOM     17  N   UNL     1       3.467   3.751  18.311  0.00  0.00    +0.000 N 
ATOM     18  C   UNL     1       3.461   2.515  17.575  0.00  0.00    +0.000 C 
BRANCH  16  19
ATOM     19  C   UNL     1       1.961   3.036  20.306  0.00  0.00    +0.000 C 
ATOM     20  C   UNL     1       2.590   2.374  21.517  0.00  0.00    +0.000 C 
ATOM     21  C   UNL     1       1.577   3.447  21.714  0.00  0.00    +0.000 C 
ENDBRANCH  16  19
ENDBRANCH  12  13
ENDBRANCH   1  12
TORSDOF 7
ENDMDL
MODEL 9
REMARK VINA RESULT:      -7.0      3.082      7.113
REMARK  Name = 
REMARK  10 active torsions:
REMARK  status: ('A' for Active; 'I' for Inactive)
REMARK    1  A    between atoms: C_1  and  C_2
REMARK    2  A    between atoms: C_2  and  C_3
REMARK    3  A    between atoms: C_3  and  N_4
REMARK    4  A    between atoms: C_8  and  C_9
REMARK    5  A    between atoms: C_9  and  N_10
REMARK    6  A    between atoms: N_10  and  C_11
REMARK    7  A    between atoms: N_10  and  C_12
REMARK    8  A    between atoms: C_12  and  C_13
REMARK    9  A    between atoms: C_16  and  C_17
REMARK   10  A    between atoms: N_20  and  C_21
REMARK                            x       y       z     vdW  Elec       q    Type
REMARK                         _______ _______ _______ _____ _____    ______ ____
ROOT
ATOM      1  N   UNL     1       3.424   3.414  17.980  0.00  0.00    +0.000 NA
ATOM      2  C   UNL     1       2.819   2.081  18.054  0.00  0.00    +0.000 C 
ENDROOT
BRANCH   1   3
ATOM      3  C   UNL     1       2.433   4.469  17.640  0.00  0.00    +0.000 C 
BRANCH   3   8
ATOM      4  N   UNL     1       1.754   5.718  19.774  0.00  0.00    +0.000 N 
ATOM      5  N   UNL     1       1.804   6.980  20.241  0.00  0.00    +0.000 NA
ATOM      6  N   UNL     1       2.419   7.680  19.304  0.00  0.00    +0.000 NA
ATOM      7  N   UNL     1       2.756   6.885  18.245  0.00  0.00    +0.000 NA
ATOM      8  C   UNL     1       2.357   5.658  18.542  0.00  0.00    +0.000 A 
BRANCH   4   9
ATOM      9  C   UNL     1       1.187   4.688  20.609  0.00  0.00    +0.000 C 
BRANCH   9  11
ATOM     10  C   UNL     1       1.713   2.490  21.799  0.00  0.00    +0.000 C 
ATOM     11  C   UNL     1       2.210   3.871  21.401  0.00  0.00    +0.000 C 
ENDBRANCH   9  11
ENDBRANCH   4   9
ENDBRANCH   3   8
ENDBRANCH   1   3
BRANCH   1  12
ATOM     12  C   UNL     1       4.591   3.401  17.086  0.00  0.00    +0.000 C 
BRANCH  12  13
ATOM     13  C   UNL     1       5.646   4.368  17.527  0.00  0.00    +0.000 A 
ATOM     14  N   UNL     1       6.406   4.232  18.595  0.00  0.00    +0.000 NA
ATOM     15  N   UNL     1       7.294   5.274  18.627  0.00  0.00    +0.000 NA
ATOM     16  C   UNL     1       7.054   6.052  17.592  0.00  0.00    +0.000 A 
ATOM     17  N   UNL     1       6.015   5.520  16.867  0.00  0.00    +0.000 N 
ATOM     18  C   UNL     1       5.463   6.048  15.649  0.00  0.00    +0.000 C 
BRANCH  16  19
ATOM     19  C   UNL     1       7.846   7.318  17.288  0.00  0.00    +0.000 C 
ATOM     20  C   UNL     1       7.224   8.650  17.661  0.00  0.00    +0.000 C 
ATOM     21  C   UNL     1       8.362   8.125  18.463  0.00  0.00    +0.000 C 
ENDBRANCH  16  19
ENDBRANCH  12  13
ENDBRANCH   1  12
TORSDOF 7
ENDMDL
