MODEL 1
REMARK VINA RESULT:      -6.9      0.000      0.000
REMARK  Name = 
REMARK  3 active torsions:
REMARK  status: ('A' for Active; 'I' for Inactive)
REMARK    1  A    between atoms: C_2  and  C_22
REMARK    2  A    between atoms: N_3  and  C_4
REMARK    3  A    between atoms: N_15  and  C_16
REMARK                            x       y       z     vdW  Elec       q    Type
REMARK                         _______ _______ _______ _____ _____    ______ ____
ROOT
ATOM      1  C   UNL     1       0.544  10.457  20.750  0.00  0.00    +0.000 C 
ATOM      2  C   UNL     1       1.204  11.840  20.817  0.00  0.00    +0.000 C 
ATOM      3  C   UNL     1       0.339  13.031  20.383  0.00  0.00    +0.000 C 
ATOM      4  C   UNL     1       0.458  13.288  18.874  0.00  0.00    +0.000 C 
ATOM      5  C   UNL     1      -0.644  12.724  17.984  0.00  0.00    +0.000 C 
ATOM      6  C   UNL     1      -1.754  11.910  18.642  0.00  0.00    +0.000 C 
ATOM      7  C   UNL     1      -1.676  11.709  20.160  0.00  0.00    +0.000 C 
ATOM      8  C   UNL     1      -0.976  10.408  20.568  0.00  0.00    +0.000 C 
ATOM      9  N   UNL     1      -1.054  12.861  20.798  0.00  0.00    +0.000 N 
ATOM     10  C   UNL     1      -1.619  13.763  21.695  0.00  0.00    +0.000 C 
ATOM     11  O   UNL     1      -0.990  14.714  22.156  0.00  0.00    +0.000 OA
ATOM     12  N   UNL     1      -2.920  13.527  22.072  0.00  0.00    +0.000 N 
ATOM     13  H   UNL     1      -3.464  12.895  21.520  0.00  0.00    +0.000 HD
ENDROOT
BRANCH  12  14
ATOM     14  C   UNL     1      -3.681  14.431  22.952  0.00  0.00    +0.000 C 
ATOM     15  C   UNL     1      -5.142  14.598  22.499  0.00  0.00    +0.000 C 
ATOM     16  C   UNL     1      -5.933  13.296  22.642  0.00  0.00    +0.000 C 
ATOM     17  C   UNL     1      -5.905  12.789  24.082  0.00  0.00    +0.000 C 
ATOM     18  C   UNL     1      -4.474  12.641  24.595  0.00  0.00    +0.000 C 
ATOM     19  C   UNL     1      -3.665  13.927  24.406  0.00  0.00    +0.000 C 
ENDBRANCH  12  14
BRANCH   1  22
ATOM     20  O   UNL     1       1.220   7.745  21.184  0.00  0.00    +0.000 OA
ATOM     21  C   UNL     1       1.560   8.283  20.136  0.00  0.00    +0.000 C 
ATOM     22  N   UNL     1       1.230   9.585  19.793  0.00  0.00    +0.000 N 
ATOM     23  H   UNL     1       1.485   9.952  18.887  0.00  0.00    +0.000 HD
BRANCH  21  24
ATOM     24  C   UNL     1       2.373   7.513  19.159  0.00  0.00    +0.000 A 
ATOM     25  C   UNL     1       2.762   6.203  19.493  0.00  0.00    +0.000 A 
ATOM     26  C   UNL     1       3.583   5.475  18.628  0.00  0.00    +0.000 A 
ATOM     27  C   UNL     1       4.011   6.064  17.448  0.00  0.00    +0.000 A 
ATOM     28  F   UNL     1       4.809   5.377  16.618  0.00  0.00    +0.000 F 
ATOM     29  C   UNL     1       3.646   7.363  17.113  0.00  0.00    +0.000 A 
ATOM     30  C   UNL     1       2.828   8.091  17.974  0.00  0.00    +0.000 A 
ENDBRANCH  21  24
ENDBRANCH   1  22
TORSDOF 3
ENDMDL
MODEL 2
REMARK VINA RESULT:      -6.8      4.305      8.963
REMARK  Name = 
REMARK  3 active torsions:
REMARK  status: ('A' for Active; 'I' for Inactive)
REMARK    1  A    between atoms: C_2  and  C_22
REMARK    2  A    between atoms: N_3  and  C_4
REMARK    3  A    between atoms: N_15  and  C_16
REMARK                            x       y       z     vdW  Elec       q    Type
REMARK                         _______ _______ _______ _____ _____    ______ ____
ROOT
ATOM      1  C   UNL     1       1.736  11.894  19.398  0.00  0.00    +0.000 C 
ATOM      2  C   UNL     1       1.036  11.358  20.653  0.00  0.00    +0.000 C 
ATOM      3  C   UNL     1       0.352   9.991  20.524  0.00  0.00    +0.000 C 
ATOM      4  C   UNL     1      -1.100  10.136  20.041  0.00  0.00    +0.000 C 
ATOM      5  C   UNL     1      -1.362   9.920  18.555  0.00  0.00    +0.000 C 
ATOM      6  C   UNL     1      -0.170   9.625  17.649  0.00  0.00    +0.000 C 
ATOM      7  C   UNL     1       1.216   9.575  18.302  0.00  0.00    +0.000 C 
ATOM      8  C   UNL     1       1.966  10.912  18.245  0.00  0.00    +0.000 C 
ATOM      9  N   UNL     1       1.121   9.085  19.669  0.00  0.00    +0.000 N 
ATOM     10  C   UNL     1       1.646   7.913  20.207  0.00  0.00    +0.000 C 
ATOM     11  O   UNL     1       1.482   7.599  21.384  0.00  0.00    +0.000 OA
ATOM     12  N   UNL     1       2.389   7.124  19.362  0.00  0.00    +0.000 N 
ATOM     13  H   UNL     1       2.314   7.286  18.377  0.00  0.00    +0.000 HD
ENDROOT
BRANCH  12  14
ATOM     14  C   UNL     1       2.945   5.818  19.758  0.00  0.00    +0.000 C 
ATOM     15  C   UNL     1       1.979   4.657  19.464  0.00  0.00    +0.000 C 
ATOM     16  C   UNL     1       1.773   4.456  17.961  0.00  0.00    +0.000 C 
ATOM     17  C   UNL     1       3.101   4.202  17.251  0.00  0.00    +0.000 C 
ATOM     18  C   UNL     1       4.111   5.311  17.540  0.00  0.00    +0.000 C 
ATOM     19  C   UNL     1       4.281   5.549  19.044  0.00  0.00    +0.000 C 
ENDBRANCH  12  14
BRANCH   1  22
ATOM     20  O   UNL     1       2.076  14.442  20.574  0.00  0.00    +0.000 OA
ATOM     21  C   UNL     1       1.313  14.323  19.622  0.00  0.00    +0.000 C 
ATOM     22  N   UNL     1       1.118  13.137  18.932  0.00  0.00    +0.000 N 
ATOM     23  H   UNL     1       0.524  13.116  18.116  0.00  0.00    +0.000 HD
BRANCH  21  24
ATOM     24  C   UNL     1       0.541  15.507  19.161  0.00  0.00    +0.000 A 
ATOM     25  C   UNL     1      -0.746  15.717  19.689  0.00  0.00    +0.000 A 
ATOM     26  C   UNL     1      -1.526  16.780  19.228  0.00  0.00    +0.000 A 
ATOM     27  C   UNL     1      -1.016  17.615  18.243  0.00  0.00    +0.000 A 
ATOM     28  F   UNL     1      -1.764  18.630  17.787  0.00  0.00    +0.000 F 
ATOM     29  C   UNL     1       0.248  17.409  17.703  0.00  0.00    +0.000 A 
ATOM     30  C   UNL     1       1.027  16.348  18.161  0.00  0.00    +0.000 A 
ENDBRANCH  21  24
ENDBRANCH   1  22
TORSDOF 3
ENDMDL
MODEL 3
REMARK VINA RESULT:      -6.5      1.021      1.458
REMARK  Name = 
REMARK  3 active torsions:
REMARK  status: ('A' for Active; 'I' for Inactive)
REMARK    1  A    between atoms: C_2  and  C_22
REMARK    2  A    between atoms: N_3  and  C_4
REMARK    3  A    between atoms: N_15  and  C_16
REMARK                            x       y       z     vdW  Elec       q    Type
REMARK                         _______ _______ _______ _____ _____    ______ ____
ROOT
ATOM      1  C   UNL     1       0.234   9.649  20.408  0.00  0.00    +0.000 C 
ATOM      2  C   UNL     1       0.986  10.635  21.311  0.00  0.00    +0.000 C 
ATOM      3  C   UNL     1       0.662  12.123  21.119  0.00  0.00    +0.000 C 
ATOM      4  C   UNL     1       1.559  12.757  20.046  0.00  0.00    +0.000 C 
ATOM      5  C   UNL     1       0.974  12.897  18.645  0.00  0.00    +0.000 C 
ATOM      6  C   UNL     1      -0.432  12.359  18.395  0.00  0.00    +0.000 C 
ATOM      7  C   UNL     1      -1.156  11.704  19.577  0.00  0.00    +0.000 C 
ATOM      8  C   UNL     1      -0.976  10.182  19.636  0.00  0.00    +0.000 C 
ATOM      9  N   UNL     1      -0.759  12.328  20.831  0.00  0.00    +0.000 N 
ATOM     10  C   UNL     1      -1.541  13.060  21.719  0.00  0.00    +0.000 C 
ATOM     11  O   UNL     1      -1.082  13.555  22.747  0.00  0.00    +0.000 OA
ATOM     12  N   UNL     1      -2.875  13.186  21.409  0.00  0.00    +0.000 N 
ATOM     13  H   UNL     1      -3.165  12.973  20.476  0.00  0.00    +0.000 HD
ENDROOT
BRANCH  12  14
ATOM     14  C   UNL     1      -3.815  13.993  22.206  0.00  0.00    +0.000 C 
ATOM     15  C   UNL     1      -4.420  15.155  21.399  0.00  0.00    +0.000 C 
ATOM     16  C   UNL     1      -5.328  14.652  20.274  0.00  0.00    +0.000 C 
ATOM     17  C   UNL     1      -6.453  13.776  20.822  0.00  0.00    +0.000 C 
ATOM     18  C   UNL     1      -5.906  12.626  21.665  0.00  0.00    +0.000 C 
ATOM     19  C   UNL     1      -4.957  13.122  22.760  0.00  0.00    +0.000 C 
ENDBRANCH  12  14
BRANCH   1  22
ATOM     20  O   UNL     1       1.358   7.112  20.950  0.00  0.00    +0.000 OA
ATOM     21  C   UNL     1       1.687   7.702  19.927  0.00  0.00    +0.000 C 
ATOM     22  N   UNL     1       1.154   8.919  19.533  0.00  0.00    +0.000 N 
ATOM     23  H   UNL     1       1.418   9.326  18.647  0.00  0.00    +0.000 HD
BRANCH  21  24
ATOM     24  C   UNL     1       2.715   7.096  19.040  0.00  0.00    +0.000 A 
ATOM     25  C   UNL     1       3.335   5.901  19.450  0.00  0.00    +0.000 A 
ATOM     26  C   UNL     1       4.353   5.341  18.675  0.00  0.00    +0.000 A 
ATOM     27  C   UNL     1       4.743   5.981  17.507  0.00  0.00    +0.000 A 
ATOM     28  F   UNL     1       5.727   5.455  16.764  0.00  0.00    +0.000 F 
ATOM     29  C   UNL     1       4.148   7.169  17.099  0.00  0.00    +0.000 A 
ATOM     30  C   UNL     1       3.133   7.730  17.872  0.00  0.00    +0.000 A 
ENDBRANCH  21  24
ENDBRANCH   1  22
TORSDOF 3
ENDMDL
MODEL 4
REMARK VINA RESULT:      -6.5      1.508      1.927
REMARK  Name = 
REMARK  3 active torsions:
REMARK  status: ('A' for Active; 'I' for Inactive)
REMARK    1  A    between atoms: C_2  and  C_22
REMARK    2  A    between atoms: N_3  and  C_4
REMARK    3  A    between atoms: N_15  and  C_16
REMARK                            x       y       z     vdW  Elec       q    Type
REMARK                         _______ _______ _______ _____ _____    ______ ____
ROOT
ATOM      1  C   UNL     1       0.815  11.034  20.789  0.00  0.00    +0.000 C 
ATOM      2  C   UNL     1       1.361  12.234  20.004  0.00  0.00    +0.000 C 
ATOM      3  C   UNL     1       0.327  13.256  19.512  0.00  0.00    +0.000 C 
ATOM      4  C   UNL     1      -0.220  12.875  18.128  0.00  0.00    +0.000 C 
ATOM      5  C   UNL     1      -1.561  12.151  18.085  0.00  0.00    +0.000 C 
ATOM      6  C   UNL     1      -2.239  11.814  19.410  0.00  0.00    +0.000 C 
ATOM      7  C   UNL     1      -1.513  12.223  20.698  0.00  0.00    +0.000 C 
ATOM      8  C   UNL     1      -0.633  11.112  21.281  0.00  0.00    +0.000 C 
ATOM      9  N   UNL     1      -0.748  13.443  20.488  0.00  0.00    +0.000 N 
ATOM     10  C   UNL     1      -0.930  14.691  21.078  0.00  0.00    +0.000 C 
ATOM     11  O   UNL     1      -0.221  15.658  20.804  0.00  0.00    +0.000 OA
ATOM     12  N   UNL     1      -1.933  14.793  22.012  0.00  0.00    +0.000 N 
ATOM     13  H   UNL     1      -2.622  14.068  22.046  0.00  0.00    +0.000 HD
ENDROOT
BRANCH  12  14
ATOM     14  C   UNL     1      -2.300  16.061  22.667  0.00  0.00    +0.000 C 
ATOM     15  C   UNL     1      -3.740  16.045  23.209  0.00  0.00    +0.000 C 
ATOM     16  C   UNL     1      -3.902  15.050  24.360  0.00  0.00    +0.000 C 
ATOM     17  C   UNL     1      -2.936  15.362  25.500  0.00  0.00    +0.000 C 
ATOM     18  C   UNL     1      -1.492  15.427  25.008  0.00  0.00    +0.000 C 
ATOM     19  C   UNL     1      -1.336  16.384  23.822  0.00  0.00    +0.000 C 
ENDBRANCH  12  14
BRANCH   1  22
ATOM     20  O   UNL     1       1.485   8.577  22.019  0.00  0.00    +0.000 OA
ATOM     21  C   UNL     1       1.454   8.642  20.795  0.00  0.00    +0.000 C 
ATOM     22  N   UNL     1       1.080   9.774  20.090  0.00  0.00    +0.000 N 
ATOM     23  H   UNL     1       1.014   9.747  19.082  0.00  0.00    +0.000 HD
BRANCH  21  24
ATOM     24  C   UNL     1       1.835   7.446  19.998  0.00  0.00    +0.000 A 
ATOM     25  C   UNL     1       1.687   6.174  20.582  0.00  0.00    +0.000 A 
ATOM     26  C   UNL     1       2.099   5.034  19.888  0.00  0.00    +0.000 A 
ATOM     27  C   UNL     1       2.658   5.176  18.627  0.00  0.00    +0.000 A 
ATOM     28  F   UNL     1       3.066   4.087  17.959  0.00  0.00    +0.000 F 
ATOM     29  C   UNL     1       2.823   6.428  18.045  0.00  0.00    +0.000 A 
ATOM     30  C   UNL     1       2.414   7.566  18.735  0.00  0.00    +0.000 A 
ENDBRANCH  21  24
ENDBRANCH   1  22
TORSDOF 3
ENDMDL
MODEL 5
REMARK VINA RESULT:      -6.5      0.904      1.598
REMARK  Name = 
REMARK  3 active torsions:
REMARK  status: ('A' for Active; 'I' for Inactive)
REMARK    1  A    between atoms: C_2  and  C_22
REMARK    2  A    between atoms: N_3  and  C_4
REMARK    3  A    between atoms: N_15  and  C_16
REMARK                            x       y       z     vdW  Elec       q    Type
REMARK                         _______ _______ _______ _____ _____    ______ ____
ROOT
ATOM      1  C   UNL     1      -0.042  10.122  20.351  0.00  0.00    +0.000 C 
ATOM      2  C   UNL     1       0.736  11.068  21.274  0.00  0.00    +0.000 C 
ATOM      3  C   UNL     1       0.541  12.571  21.033  0.00  0.00    +0.000 C 
ATOM      4  C   UNL     1       1.544  13.106  19.999  0.00  0.00    +0.000 C 
ATOM      5  C   UNL     1       1.049  13.257  18.565  0.00  0.00    +0.000 C 
ATOM      6  C   UNL     1      -0.380  12.824  18.248  0.00  0.00    +0.000 C 
ATOM      7  C   UNL     1      -1.217  12.258  19.400  0.00  0.00    +0.000 C 
ATOM      8  C   UNL     1      -1.162  10.729  19.501  0.00  0.00    +0.000 C 
ATOM      9  N   UNL     1      -0.840  12.880  20.661  0.00  0.00    +0.000 N 
ATOM     10  C   UNL     1      -1.609  13.694  21.489  0.00  0.00    +0.000 C 
ATOM     11  O   UNL     1      -1.168  14.176  22.530  0.00  0.00    +0.000 OA
ATOM     12  N   UNL     1      -2.909  13.916  21.102  0.00  0.00    +0.000 N 
ATOM     13  H   UNL     1      -3.164  13.703  20.158  0.00  0.00    +0.000 HD
ENDROOT
BRANCH  12  14
ATOM     14  C   UNL     1      -3.825  14.814  21.828  0.00  0.00    +0.000 C 
ATOM     15  C   UNL     1      -4.797  15.545  20.886  0.00  0.00    +0.000 C 
ATOM     16  C   UNL     1      -5.781  14.579  20.224  0.00  0.00    +0.000 C 
ATOM     17  C   UNL     1      -6.577  13.800  21.268  0.00  0.00    +0.000 C 
ATOM     18  C   UNL     1      -5.657  13.083  22.253  0.00  0.00    +0.000 C 
ATOM     19  C   UNL     1      -4.637  14.039  22.880  0.00  0.00    +0.000 C 
ENDBRANCH  12  14
BRANCH   1  22
ATOM     20  O   UNL     1       1.092   7.656  21.144  0.00  0.00    +0.000 OA
ATOM     21  C   UNL     1       1.403   8.133  20.058  0.00  0.00    +0.000 C 
ATOM     22  N   UNL     1       0.863   9.301  19.543  0.00  0.00    +0.000 N 
ATOM     23  H   UNL     1       1.112   9.609  18.614  0.00  0.00    +0.000 HD
BRANCH  21  24
ATOM     24  C   UNL     1       2.416   7.433  19.224  0.00  0.00    +0.000 A 
ATOM     25  C   UNL     1       2.813   8.026  18.011  0.00  0.00    +0.000 A 
ATOM     26  C   UNL     1       3.711   7.364  17.171  0.00  0.00    +0.000 A 
ATOM     27  C   UNL     1       4.195   6.119  17.546  0.00  0.00    +0.000 A 
ATOM     28  F   UNL     1       5.048   5.472  16.739  0.00  0.00    +0.000 F 
ATOM     29  C   UNL     1       3.799   5.517  18.735  0.00  0.00    +0.000 A 
ATOM     30  C   UNL     1       2.903   6.175  19.574  0.00  0.00    +0.000 A 
ENDBRANCH  21  24
ENDBRANCH   1  22
TORSDOF 3
ENDMDL
MODEL 6
REMARK VINA RESULT:      -6.5      1.445      1.878
REMARK  Name = 
REMARK  3 active torsions:
REMARK  status: ('A' for Active; 'I' for Inactive)
REMARK    1  A    between atoms: C_2  and  C_22
REMARK    2  A    between atoms: N_3  and  C_4
REMARK    3  A    between atoms: N_15  and  C_16
REMARK                            x       y       z     vdW  Elec       q    Type
REMARK                         _______ _______ _______ _____ _____    ______ ____
ROOT
ATOM      1  C   UNL     1       0.678  11.095  20.965  0.00  0.00    +0.000 C 
ATOM      2  C   UNL     1       1.286  12.302  20.238  0.00  0.00    +0.000 C 
ATOM      3  C   UNL     1       0.296  13.334  19.681  0.00  0.00    +0.000 C 
ATOM      4  C   UNL     1      -0.146  12.973  18.256  0.00  0.00    +0.000 C 
ATOM      5  C   UNL     1      -1.484  12.257  18.104  0.00  0.00    +0.000 C 
ATOM      6  C   UNL     1      -2.261  11.907  19.370  0.00  0.00    +0.000 C 
ATOM      7  C   UNL     1      -1.632  12.298  20.713  0.00  0.00    +0.000 C 
ATOM      8  C   UNL     1      -0.803  11.176  21.347  0.00  0.00    +0.000 C 
ATOM      9  N   UNL     1      -0.848  13.516  20.576  0.00  0.00    +0.000 N 
ATOM     10  C   UNL     1      -1.068  14.758  21.165  0.00  0.00    +0.000 C 
ATOM     11  O   UNL     1      -0.336  15.724  20.958  0.00  0.00    +0.000 OA
ATOM     12  N   UNL     1      -2.138  14.854  22.023  0.00  0.00    +0.000 N 
ATOM     13  H   UNL     1      -2.831  14.133  21.996  0.00  0.00    +0.000 HD
ENDROOT
BRANCH  12  14
ATOM     14  C   UNL     1      -2.548  16.116  22.664  0.00  0.00    +0.000 C 
ATOM     15  C   UNL     1      -3.853  16.676  22.072  0.00  0.00    +0.000 C 
ATOM     16  C   UNL     1      -5.050  15.775  22.382  0.00  0.00    +0.000 C 
ATOM     17  C   UNL     1      -5.219  15.581  23.887  0.00  0.00    +0.000 C 
ATOM     18  C   UNL     1      -3.936  15.060  24.532  0.00  0.00    +0.000 C 
ATOM     19  C   UNL     1      -2.727  15.932  24.181  0.00  0.00    +0.000 C 
ENDBRANCH  12  14
BRANCH   1  22
ATOM     20  O   UNL     1       1.380   8.656  22.210  0.00  0.00    +0.000 OA
ATOM     21  C   UNL     1       1.375   8.720  20.986  0.00  0.00    +0.000 C 
ATOM     22  N   UNL     1       0.989   9.843  20.272  0.00  0.00    +0.000 N 
ATOM     23  H   UNL     1       0.946   9.813  19.263  0.00  0.00    +0.000 HD
BRANCH  21  24
ATOM     24  C   UNL     1       1.803   7.534  20.198  0.00  0.00    +0.000 A 
ATOM     25  C   UNL     1       2.289   7.734  18.893  0.00  0.00    +0.000 A 
ATOM     26  C   UNL     1       2.636   6.638  18.100  0.00  0.00    +0.000 A 
ATOM     27  C   UNL     1       2.488   5.358  18.615  0.00  0.00    +0.000 A 
ATOM     28  F   UNL     1       2.807   4.300  17.856  0.00  0.00    +0.000 F 
ATOM     29  C   UNL     1       1.995   5.146  19.897  0.00  0.00    +0.000 A 
ATOM     30  C   UNL     1       1.648   6.239  20.689  0.00  0.00    +0.000 A 
ENDBRANCH  21  24
ENDBRANCH   1  22
TORSDOF 3
ENDMDL
MODEL 7
REMARK VINA RESULT:      -6.3      4.340      6.261
REMARK  Name = 
REMARK  3 active torsions:
REMARK  status: ('A' for Active; 'I' for Inactive)
REMARK    1  A    between atoms: C_2  and  C_22
REMARK    2  A    between atoms: N_3  and  C_4
REMARK    3  A    between atoms: N_15  and  C_16
REMARK                            x       y       z     vdW  Elec       q    Type
REMARK                         _______ _______ _______ _____ _____    ______ ____
ROOT
ATOM      1  C   UNL     1       0.527  13.034  18.900  0.00  0.00    +0.000 C 
ATOM      2  C   UNL     1       0.456  11.519  18.667  0.00  0.00    +0.000 C 
ATOM      3  C   UNL     1      -0.763  10.794  19.252  0.00  0.00    +0.000 C 
ATOM      4  C   UNL     1      -0.504  10.340  20.697  0.00  0.00    +0.000 C 
ATOM      5  C   UNL     1      -1.044  11.229  21.812  0.00  0.00    +0.000 C 
ATOM      6  C   UNL     1      -1.758  12.520  21.421  0.00  0.00    +0.000 C 
ATOM      7  C   UNL     1      -1.873  12.837  19.925  0.00  0.00    +0.000 C 
ATOM      8  C   UNL     1      -0.741  13.730  19.403  0.00  0.00    +0.000 C 
ATOM      9  N   UNL     1      -1.974  11.610  19.148  0.00  0.00    +0.000 N 
ATOM     10  C   UNL     1      -3.040  11.161  18.374  0.00  0.00    +0.000 C 
ATOM     11  O   UNL     1      -3.011  10.090  17.772  0.00  0.00    +0.000 OA
ATOM     12  N   UNL     1      -4.133  11.991  18.288  0.00  0.00    +0.000 N 
ATOM     13  H   UNL     1      -4.218  12.731  18.956  0.00  0.00    +0.000 HD
ENDROOT
BRANCH  12  14
ATOM     14  C   UNL     1      -5.369  11.625  17.573  0.00  0.00    +0.000 C 
ATOM     15  C   UNL     1      -6.340  10.822  18.456  0.00  0.00    +0.000 C 
ATOM     16  C   UNL     1      -6.893  11.666  19.606  0.00  0.00    +0.000 C 
ATOM     17  C   UNL     1      -7.598  12.916  19.085  0.00  0.00    +0.000 C 
ATOM     18  C   UNL     1      -6.687  13.732  18.170  0.00  0.00    +0.000 C 
ATOM     19  C   UNL     1      -6.092  12.877  17.047  0.00  0.00    +0.000 C 
ENDBRANCH  12  14
BRANCH   1  22
ATOM     20  O   UNL     1       2.372  15.088  18.293  0.00  0.00    +0.000 OA
ATOM     21  C   UNL     1       2.565  14.387  19.280  0.00  0.00    +0.000 C 
ATOM     22  N   UNL     1       1.696  13.395  19.705  0.00  0.00    +0.000 N 
ATOM     23  H   UNL     1       1.878  12.894  20.563  0.00  0.00    +0.000 HD
BRANCH  21  24
ATOM     24  C   UNL     1       3.796  14.597  20.086  0.00  0.00    +0.000 A 
ATOM     25  C   UNL     1       4.945  15.093  19.442  0.00  0.00    +0.000 A 
ATOM     26  C   UNL     1       6.138  15.238  20.154  0.00  0.00    +0.000 A 
ATOM     27  C   UNL     1       6.173  14.880  21.493  0.00  0.00    +0.000 A 
ATOM     28  F   UNL     1       7.318  15.004  22.180  0.00  0.00    +0.000 F 
ATOM     29  C   UNL     1       5.050  14.375  22.137  0.00  0.00    +0.000 A 
ATOM     30  C   UNL     1       3.859  14.229  21.429  0.00  0.00    +0.000 A 
ENDBRANCH  21  24
ENDBRANCH   1  22
TORSDOF 3
ENDMDL
MODEL 8
REMARK VINA RESULT:      -6.2      1.244      1.980
REMARK  Name = 
REMARK  3 active torsions:
REMARK  status: ('A' for Active; 'I' for Inactive)
REMARK    1  A    between atoms: C_2  and  C_22
REMARK    2  A    between atoms: N_3  and  C_4
REMARK    3  A    between atoms: N_15  and  C_16
REMARK                            x       y       z     vdW  Elec       q    Type
REMARK                         _______ _______ _______ _____ _____    ______ ____
ROOT
ATOM      1  C   UNL     1      -0.070  10.362  20.406  0.00  0.00    +0.000 C 
ATOM      2  C   UNL     1       0.811  11.261  21.283  0.00  0.00    +0.000 C 
ATOM      3  C   UNL     1       0.688  12.773  21.053  0.00  0.00    +0.000 C 
ATOM      4  C   UNL     1       1.659  13.253  19.964  0.00  0.00    +0.000 C 
ATOM      5  C   UNL     1       1.093  13.436  18.560  0.00  0.00    +0.000 C 
ATOM      6  C   UNL     1      -0.374  13.085  18.324  0.00  0.00    +0.000 C 
ATOM      7  C   UNL     1      -1.175  12.564  19.523  0.00  0.00    +0.000 C 
ATOM      8  C   UNL     1      -1.201  11.034  19.621  0.00  0.00    +0.000 C 
ATOM      9  N   UNL     1      -0.692  13.160  20.760  0.00  0.00    +0.000 N 
ATOM     10  C   UNL     1      -1.366  14.013  21.630  0.00  0.00    +0.000 C 
ATOM     11  O   UNL     1      -0.840  14.467  22.645  0.00  0.00    +0.000 OA
ATOM     12  N   UNL     1      -2.671  14.310  21.318  0.00  0.00    +0.000 N 
ATOM     13  H   UNL     1      -2.991  14.114  20.390  0.00  0.00    +0.000 HD
ENDROOT
BRANCH  12  14
ATOM     14  C   UNL     1      -3.492  15.256  22.094  0.00  0.00    +0.000 C 
ATOM     15  C   UNL     1      -3.349  16.703  21.592  0.00  0.00    +0.000 C 
ATOM     16  C   UNL     1      -3.931  16.877  20.188  0.00  0.00    +0.000 C 
ATOM     17  C   UNL     1      -5.402  16.470  20.146  0.00  0.00    +0.000 C 
ATOM     18  C   UNL     1      -5.604  15.049  20.670  0.00  0.00    +0.000 C 
ATOM     19  C   UNL     1      -4.978  14.858  22.054  0.00  0.00    +0.000 C 
ENDBRANCH  12  14
BRANCH   1  22
ATOM     20  O   UNL     1       1.158   7.944  21.205  0.00  0.00    +0.000 OA
ATOM     21  C   UNL     1       1.340   8.356  20.064  0.00  0.00    +0.000 C 
ATOM     22  N   UNL     1       0.740   9.493  19.549  0.00  0.00    +0.000 N 
ATOM     23  H   UNL     1       0.879   9.747  18.581  0.00  0.00    +0.000 HD
BRANCH  21  24
ATOM     24  C   UNL     1       2.253   7.607  19.162  0.00  0.00    +0.000 A 
ATOM     25  C   UNL     1       2.716   6.343  19.573  0.00  0.00    +0.000 A 
ATOM     26  C   UNL     1       3.628   5.641  18.782  0.00  0.00    +0.000 A 
ATOM     27  C   UNL     1       4.072   6.210  17.597  0.00  0.00    +0.000 A 
ATOM     28  F   UNL     1       4.957   5.548  16.838  0.00  0.00    +0.000 F 
ATOM     29  C   UNL     1       3.634   7.464  17.187  0.00  0.00    +0.000 A 
ATOM     30  C   UNL     1       2.724   8.165  17.975  0.00  0.00    +0.000 A 
ENDBRANCH  21  24
ENDBRANCH   1  22
TORSDOF 3
ENDMDL
MODEL 9
REMARK VINA RESULT:      -6.1      0.834      1.081
REMARK  Name = 
REMARK  3 active torsions:
REMARK  status: ('A' for Active; 'I' for Inactive)
REMARK    1  A    between atoms: C_2  and  C_22
REMARK    2  A    between atoms: N_3  and  C_4
REMARK    3  A    between atoms: N_15  and  C_16
REMARK                            x       y       z     vdW  Elec       q    Type
REMARK                         _______ _______ _______ _____ _____    ______ ____
ROOT
ATOM      1  C   UNL     1       0.821   9.753  20.842  0.00  0.00    +0.000 C 
ATOM      2  C   UNL     1       1.642  11.009  21.162  0.00  0.00    +0.000 C 
ATOM      3  C   UNL     1       0.970  12.358  20.871  0.00  0.00    +0.000 C 
ATOM      4  C   UNL     1       1.235  12.815  19.428  0.00  0.00    +0.000 C 
ATOM      5  C   UNL     1       0.141  12.543  18.401  0.00  0.00    +0.000 C 
ATOM      6  C   UNL     1      -1.110  11.799  18.862  0.00  0.00    +0.000 C 
ATOM      7  C   UNL     1      -1.173  11.369  20.332  0.00  0.00    +0.000 C 
ATOM      8  C   UNL     1      -0.675   9.939  20.571  0.00  0.00    +0.000 C 
ATOM      9  N   UNL     1      -0.461  12.319  21.174  0.00  0.00    +0.000 N 
ATOM     10  C   UNL     1      -0.975  13.148  22.169  0.00  0.00    +0.000 C 
ATOM     11  O   UNL     1      -0.269  13.926  22.806  0.00  0.00    +0.000 OA
ATOM     12  N   UNL     1      -2.320  13.038  22.431  0.00  0.00    +0.000 N 
ATOM     13  H   UNL     1      -2.896  12.573  21.757  0.00  0.00    +0.000 HD
ENDROOT
BRANCH  12  14
ATOM     14  C   UNL     1      -3.026  13.898  23.397  0.00  0.00    +0.000 C 
ATOM     15  C   UNL     1      -3.573  15.181  22.748  0.00  0.00    +0.000 C 
ATOM     16  C   UNL     1      -4.684  14.880  21.740  0.00  0.00    +0.000 C 
ATOM     17  C   UNL     1      -5.832  14.116  22.396  0.00  0.00    +0.000 C 
ATOM     18  C   UNL     1      -5.337  12.848  23.088  0.00  0.00    +0.000 C 
ATOM     19  C   UNL     1      -4.190  13.140  24.061  0.00  0.00    +0.000 C 
ENDBRANCH  12  14
BRANCH   1  22
ATOM     20  O   UNL     1       1.416   6.995  21.030  0.00  0.00    +0.000 OA
ATOM     21  C   UNL     1       1.756   7.611  20.025  0.00  0.00    +0.000 C 
ATOM     22  N   UNL     1       1.463   8.947  19.802  0.00  0.00    +0.000 N 
ATOM     23  H   UNL     1       1.715   9.382  18.926  0.00  0.00    +0.000 HD
BRANCH  21  24
ATOM     24  C   UNL     1       2.528   6.904  18.970  0.00  0.00    +0.000 A 
ATOM     25  C   UNL     1       2.529   5.496  18.968  0.00  0.00    +0.000 A 
ATOM     26  C   UNL     1       3.297   4.799  18.033  0.00  0.00    +0.000 A 
ATOM     27  C   UNL     1       4.060   5.512  17.119  0.00  0.00    +0.000 A 
ATOM     28  F   UNL     1       4.810   4.850  16.226  0.00  0.00    +0.000 F 
ATOM     29  C   UNL     1       4.079   6.902  17.121  0.00  0.00    +0.000 A 
ATOM     30  C   UNL     1       3.313   7.599  18.053  0.00  0.00    +0.000 A 
ENDBRANCH  21  24
ENDBRANCH   1  22
TORSDOF 3
ENDMDL
