MODEL 1
REMARK VINA RESULT:      -8.8      0.000      0.000
REMARK  Name = 
REMARK  10 active torsions:
REMARK  status: ('A' for Active; 'I' for Inactive)
REMARK    1  A    between atoms: C_1  and  C_2
REMARK    2  A    between atoms: C_2  and  C_3
REMARK    3  A    between atoms: C_2  and  C_4
REMARK    4  A    between atoms: C_2  and  C_5
REMARK    5  A    between atoms: C_7  and  C_8
REMARK    6  A    between atoms: C_8  and  C_9
REMARK    7  A    between atoms: C_9  and  N_10
REMARK    8  A    between atoms: C_9  and  C_19
REMARK    9  A    between atoms: C_11  and  C_13
REMARK   10  A    between atoms: C_25  and  C_26
REMARK                            x       y       z     vdW  Elec       q    Type
REMARK                         _______ _______ _______ _____ _____    ______ ____
ROOT
ATOM      1  C   UNL     1       4.769   5.881  17.649  0.00  0.00    +0.000 C 
ENDROOT
BRANCH   1   2
ATOM      2  C   UNL     1       4.504   4.902  18.813  0.00  0.00    +0.000 C 
ATOM      3  O   UNL     1       5.135   5.006  19.868  0.00  0.00    +0.000 OA
ATOM      4  N   UNL     1       3.528   3.937  18.661  0.00  0.00    +0.000 N 
ATOM      5  C   UNL     1       2.537   3.840  17.602  0.00  0.00    +0.000 C 
ATOM      6  C   UNL     1       1.337   3.222  18.299  0.00  0.00    +0.000 C 
ATOM      7  C   UNL     1       1.965   2.246  19.282  0.00  0.00    +0.000 C 
ATOM      8  C   UNL     1       3.297   2.901  19.683  0.00  0.00    +0.000 C 
BRANCH   8   9
ATOM      9  C   UNL     1       4.392   1.828  19.680  0.00  0.00    +0.000 C 
ATOM     10  N   UNL     1       4.303   0.890  18.693  0.00  0.00    +0.000 N 
ATOM     11  O   UNL     1       5.214   1.687  20.580  0.00  0.00    +0.000 OA
ATOM     12  H   UNL     1       3.730   1.061  17.869  0.00  0.00    +0.000 HD
ATOM     13  H   UNL     1       5.059   0.228  18.614  0.00  0.00    +0.000 HD
ENDBRANCH   8   9
ENDBRANCH   1   2
BRANCH   1  14
ATOM     14  N   UNL     1       5.377   5.100  16.560  0.00  0.00    +0.000 N 
ATOM     15  C   UNL     1       6.621   5.394  16.046  0.00  0.00    +0.000 C 
ATOM     16  O   UNL     1       7.344   6.268  16.517  0.00  0.00    +0.000 OA
ATOM     17  H   UNL     1       4.743   4.559  15.979  0.00  0.00    +0.000 HD
BRANCH  15  18
ATOM     18  C   UNL     1       7.063   4.518  14.864  0.00  0.00    +0.000 C 
ATOM     19  C   UNL     1       7.553   5.351  13.686  0.00  0.00    +0.000 C 
ATOM     20  C   UNL     1       7.285   4.466  12.471  0.00  0.00    +0.000 C 
ATOM     21  C   UNL     1       6.116   3.634  12.914  0.00  0.00    +0.000 C 
ATOM     22  O   UNL     1       5.412   2.930  12.209  0.00  0.00    +0.000 OA
ATOM     23  N   UNL     1       6.001   3.732  14.283  0.00  0.00    +0.000 N 
ATOM     24  H   UNL     1       5.419   3.066  14.785  0.00  0.00    +0.000 HD
ENDBRANCH  15  18
ENDBRANCH   1  14
BRANCH   1  25
ATOM     25  C   UNL     1       3.452   6.494  17.167  0.00  0.00    +0.000 C 
BRANCH  25  28
ATOM     26  C   UNL     1       1.634   9.061  18.902  0.00  0.00    +0.000 A 
ATOM     27  N   UNL     1       2.250   8.612  17.824  0.00  0.00    +0.000 NA
ATOM     28  C   UNL     1       2.749   7.371  18.149  0.00  0.00    +0.000 A 
ATOM     29  C   UNL     1       2.488   7.094  19.471  0.00  0.00    +0.000 A 
ATOM     30  N   UNL     1       1.776   8.162  19.935  0.00  0.00    +0.000 N 
ATOM     31  H   UNL     1       1.412   8.271  20.872  0.00  0.00    +0.000 HD
BRANCH  26  33
ATOM     32  C   UNL     1      -0.433  10.340  18.294  0.00  0.00    +0.000 C 
ATOM     33  C   UNL     1       0.893  10.376  19.070  0.00  0.00    +0.000 C 
ATOM     34  C   UNL     1       1.738  11.553  18.533  0.00  0.00    +0.000 C 
ATOM     35  C   UNL     1       0.599  10.641  20.554  0.00  0.00    +0.000 C 
ENDBRANCH  26  33
ENDBRANCH  25  28
ENDBRANCH   1  25
TORSDOF 7
ENDMDL
MODEL 2
REMARK VINA RESULT:      -8.5      2.126      7.005
REMARK  Name = 
REMARK  10 active torsions:
REMARK  status: ('A' for Active; 'I' for Inactive)
REMARK    1  A    between atoms: C_1  and  C_2
REMARK    2  A    between atoms: C_2  and  C_3
REMARK    3  A    between atoms: C_2  and  C_4
REMARK    4  A    between atoms: C_2  and  C_5
REMARK    5  A    between atoms: C_7  and  C_8
REMARK    6  A    between atoms: C_8  and  C_9
REMARK    7  A    between atoms: C_9  and  N_10
REMARK    8  A    between atoms: C_9  and  C_19
REMARK    9  A    between atoms: C_11  and  C_13
REMARK   10  A    between atoms: C_25  and  C_26
REMARK                            x       y       z     vdW  Elec       q    Type
REMARK                         _______ _______ _______ _____ _____    ______ ____
ROOT
ATOM      1  C   UNL     1       3.826   6.084  17.479  0.00  0.00    +0.000 C 
ENDROOT
BRANCH   1   2
ATOM      2  C   UNL     1       3.912   5.133  18.692  0.00  0.00    +0.000 C 
ATOM      3  O   UNL     1       4.750   5.328  19.575  0.00  0.00    +0.000 OA
ATOM      4  N   UNL     1       3.013   4.088  18.783  0.00  0.00    +0.000 N 
ATOM      5  C   UNL     1       1.823   3.873  17.976  0.00  0.00    +0.000 C 
ATOM      6  C   UNL     1       0.866   3.189  18.938  0.00  0.00    +0.000 C 
ATOM      7  C   UNL     1       1.779   2.304  19.774  0.00  0.00    +0.000 C 
ATOM      8  C   UNL     1       3.105   3.078  19.851  0.00  0.00    +0.000 C 
BRANCH   8   9
ATOM      9  C   UNL     1       4.260   2.096  19.624  0.00  0.00    +0.000 C 
ATOM     10  N   UNL     1       4.163   1.311  18.512  0.00  0.00    +0.000 N 
ATOM     11  O   UNL     1       5.147   1.881  20.444  0.00  0.00    +0.000 OA
ATOM     12  H   UNL     1       3.527   1.562  17.757  0.00  0.00    +0.000 HD
ATOM     13  H   UNL     1       4.950   0.722  18.291  0.00  0.00    +0.000 HD
ENDBRANCH   8   9
ENDBRANCH   1   2
BRANCH   1  14
ATOM     14  N   UNL     1       3.405   7.398  17.991  0.00  0.00    +0.000 N 
ATOM     15  C   UNL     1       2.102   7.838  17.913  0.00  0.00    +0.000 C 
ATOM     16  O   UNL     1       1.188   7.135  17.492  0.00  0.00    +0.000 OA
ATOM     17  H   UNL     1       4.133   8.098  18.102  0.00  0.00    +0.000 HD
BRANCH  15  18
ATOM     18  C   UNL     1       1.862   9.264  18.433  0.00  0.00    +0.000 C 
ATOM     19  C   UNL     1       1.401   9.274  19.885  0.00  0.00    +0.000 C 
ATOM     20  C   UNL     1       0.589  10.561  20.005  0.00  0.00    +0.000 C 
ATOM     21  C   UNL     1       0.074  10.765  18.610  0.00  0.00    +0.000 C 
ATOM     22  O   UNL     1      -0.796  11.545  18.258  0.00  0.00    +0.000 OA
ATOM     23  N   UNL     1       0.802   9.968  17.753  0.00  0.00    +0.000 N 
ATOM     24  H   UNL     1       0.755  10.138  16.751  0.00  0.00    +0.000 HD
ENDBRANCH  15  18
ENDBRANCH   1  14
BRANCH   1  25
ATOM     25  C   UNL     1       5.197   6.210  16.810  0.00  0.00    +0.000 C 
BRANCH  25  28
ATOM     26  C   UNL     1       5.899   4.101  13.989  0.00  0.00    +0.000 A 
ATOM     27  N   UNL     1       5.412   5.214  14.503  0.00  0.00    +0.000 NA
ATOM     28  C   UNL     1       5.561   5.112  15.867  0.00  0.00    +0.000 A 
ATOM     29  C   UNL     1       6.086   3.882  16.189  0.00  0.00    +0.000 A 
ATOM     30  N   UNL     1       6.306   3.255  14.997  0.00  0.00    +0.000 N 
ATOM     31  H   UNL     1       6.701   2.333  14.874  0.00  0.00    +0.000 HD
BRANCH  26  33
ATOM     32  C   UNL     1       4.654   3.971  11.818  0.00  0.00    +0.000 C 
ATOM     33  C   UNL     1       5.997   3.717  12.522  0.00  0.00    +0.000 C 
ATOM     34  C   UNL     1       6.349   2.220  12.371  0.00  0.00    +0.000 C 
ATOM     35  C   UNL     1       7.092   4.536  11.825  0.00  0.00    +0.000 C 
ENDBRANCH  26  33
ENDBRANCH  25  28
ENDBRANCH   1  25
TORSDOF 7
ENDMDL
MODEL 3
REMARK VINA RESULT:      -8.5      1.969      5.317
REMARK  Name = 
REMARK  10 active torsions:
REMARK  status: ('A' for Active; 'I' for Inactive)
REMARK    1  A    between atoms: C_1  and  C_2
REMARK    2  A    between atoms: C_2  and  C_3
REMARK    3  A    between atoms: C_2  and  C_4
REMARK    4  A    between atoms: C_2  and  C_5
REMARK    5  A    between atoms: C_7  and  C_8
REMARK    6  A    between atoms: C_8  and  C_9
REMARK    7  A    between atoms: C_9  and  N_10
REMARK    8  A    between atoms: C_9  and  C_19
REMARK    9  A    between atoms: C_11  and  C_13
REMARK   10  A    between atoms: C_25  and  C_26
REMARK                            x       y       z     vdW  Elec       q    Type
REMARK                         _______ _______ _______ _____ _____    ______ ____
ROOT
ATOM      1  C   UNL     1       2.993   6.594  17.894  0.00  0.00    +0.000 C 
ENDROOT
BRANCH   1   2
ATOM      2  C   UNL     1       4.361   6.567  17.180  0.00  0.00    +0.000 C 
ATOM      3  O   UNL     1       4.516   7.165  16.112  0.00  0.00    +0.000 OA
ATOM      4  N   UNL     1       5.409   5.892  17.775  0.00  0.00    +0.000 N 
ATOM      5  C   UNL     1       5.465   5.361  19.127  0.00  0.00    +0.000 C 
ATOM      6  C   UNL     1       6.930   5.504  19.500  0.00  0.00    +0.000 C 
ATOM      7  C   UNL     1       7.656   5.213  18.196  0.00  0.00    +0.000 C 
ATOM      8  C   UNL     1       6.709   5.730  17.100  0.00  0.00    +0.000 C 
BRANCH   8   9
ATOM      9  C   UNL     1       6.652   4.694  15.972  0.00  0.00    +0.000 C 
ATOM     10  N   UNL     1       7.294   5.035  14.818  0.00  0.00    +0.000 N 
ATOM     11  O   UNL     1       5.952   3.686  16.003  0.00  0.00    +0.000 OA
ATOM     12  H   UNL     1       7.987   5.781  14.814  0.00  0.00    +0.000 HD
ATOM     13  H   UNL     1       7.349   4.335  14.094  0.00  0.00    +0.000 HD
ENDBRANCH   8   9
ENDBRANCH   1   2
BRANCH   1  14
ATOM     14  N   UNL     1       2.866   5.326  18.629  0.00  0.00    +0.000 N 
ATOM     15  C   UNL     1       1.920   4.377  18.307  0.00  0.00    +0.000 C 
ATOM     16  O   UNL     1       1.178   4.484  17.335  0.00  0.00    +0.000 OA
ATOM     17  H   UNL     1       3.258   5.301  19.566  0.00  0.00    +0.000 HD
BRANCH  15  18
ATOM     18  C   UNL     1       1.887   3.148  19.229  0.00  0.00    +0.000 C 
ATOM     19  C   UNL     1       1.055   3.395  20.482  0.00  0.00    +0.000 C 
ATOM     20  C   UNL     1       1.662   2.453  21.519  0.00  0.00    +0.000 C 
ATOM     21  C   UNL     1       3.087   2.326  21.063  0.00  0.00    +0.000 C 
ATOM     22  O   UNL     1       4.016   1.847  21.693  0.00  0.00    +0.000 OA
ATOM     23  N   UNL     1       3.175   2.779  19.765  0.00  0.00    +0.000 N 
ATOM     24  H   UNL     1       4.002   2.561  19.214  0.00  0.00    +0.000 HD
ENDBRANCH  15  18
ENDBRANCH   1  14
BRANCH   1  25
ATOM     25  C   UNL     1       2.937   7.765  18.879  0.00  0.00    +0.000 C 
BRANCH  25  28
ATOM     26  C   UNL     1       0.377  10.272  19.128  0.00  0.00    +0.000 A 
ATOM     27  N   UNL     1       1.270   9.476  19.686  0.00  0.00    +0.000 NA
ATOM     28  C   UNL     1       1.824   8.736  18.667  0.00  0.00    +0.000 A 
ATOM     29  C   UNL     1       1.206   9.043  17.477  0.00  0.00    +0.000 A 
ATOM     30  N   UNL     1       0.301  10.020  17.776  0.00  0.00    +0.000 N 
ATOM     31  H   UNL     1      -0.314  10.481  17.120  0.00  0.00    +0.000 HD
BRANCH  26  33
ATOM     32  C   UNL     1      -1.875  11.369  19.123  0.00  0.00    +0.000 C 
ATOM     33  C   UNL     1      -0.501  11.309  19.808  0.00  0.00    +0.000 C 
ATOM     34  C   UNL     1       0.145  12.710  19.726  0.00  0.00    +0.000 C 
ATOM     35  C   UNL     1      -0.694  10.960  21.290  0.00  0.00    +0.000 C 
ENDBRANCH  26  33
ENDBRANCH  25  28
ENDBRANCH   1  25
TORSDOF 7
ENDMDL
MODEL 4
REMARK VINA RESULT:      -8.5      1.944      5.364
REMARK  Name = 
REMARK  10 active torsions:
REMARK  status: ('A' for Active; 'I' for Inactive)
REMARK    1  A    between atoms: C_1  and  C_2
REMARK    2  A    between atoms: C_2  and  C_3
REMARK    3  A    between atoms: C_2  and  C_4
REMARK    4  A    between atoms: C_2  and  C_5
REMARK    5  A    between atoms: C_7  and  C_8
REMARK    6  A    between atoms: C_8  and  C_9
REMARK    7  A    between atoms: C_9  and  N_10
REMARK    8  A    between atoms: C_9  and  C_19
REMARK    9  A    between atoms: C_11  and  C_13
REMARK   10  A    between atoms: C_25  and  C_26
REMARK                            x       y       z     vdW  Elec       q    Type
REMARK                         _______ _______ _______ _____ _____    ______ ____
ROOT
ATOM      1  C   UNL     1       2.953   6.582  17.860  0.00  0.00    +0.000 C 
ENDROOT
BRANCH   1   2
ATOM      2  C   UNL     1       4.305   6.484  17.122  0.00  0.00    +0.000 C 
ATOM      3  O   UNL     1       4.453   7.024  16.022  0.00  0.00    +0.000 OA
ATOM      4  N   UNL     1       5.349   5.815  17.731  0.00  0.00    +0.000 N 
ATOM      5  C   UNL     1       5.420   5.352  19.107  0.00  0.00    +0.000 C 
ATOM      6  C   UNL     1       6.895   5.478  19.444  0.00  0.00    +0.000 C 
ATOM      7  C   UNL     1       7.587   5.103  18.142  0.00  0.00    +0.000 C 
ATOM      8  C   UNL     1       6.630   5.587  17.040  0.00  0.00    +0.000 C 
BRANCH   8   9
ATOM      9  C   UNL     1       6.526   4.496  15.968  0.00  0.00    +0.000 C 
ATOM     10  N   UNL     1       5.869   3.359  16.338  0.00  0.00    +0.000 N 
ATOM     11  O   UNL     1       7.119   4.534  14.895  0.00  0.00    +0.000 OA
ATOM     12  H   UNL     1       5.258   3.358  17.152  0.00  0.00    +0.000 HD
ATOM     13  H   UNL     1       5.708   2.665  15.625  0.00  0.00    +0.000 HD
ENDBRANCH   8   9
ENDBRANCH   1   2
BRANCH   1  14
ATOM     14  N   UNL     1       2.793   5.339  18.631  0.00  0.00    +0.000 N 
ATOM     15  C   UNL     1       1.860   4.381  18.302  0.00  0.00    +0.000 C 
ATOM     16  O   UNL     1       1.158   4.456  17.298  0.00  0.00    +0.000 OA
ATOM     17  H   UNL     1       3.146   5.346  19.584  0.00  0.00    +0.000 HD
BRANCH  15  18
ATOM     18  C   UNL     1       1.786   3.184  19.262  0.00  0.00    +0.000 C 
ATOM     19  C   UNL     1       0.977   3.503  20.514  0.00  0.00    +0.000 C 
ATOM     20  C   UNL     1       1.555   2.570  21.575  0.00  0.00    +0.000 C 
ATOM     21  C   UNL     1       2.970   2.371  21.112  0.00  0.00    +0.000 C 
ATOM     22  O   UNL     1       3.884   1.874  21.748  0.00  0.00    +0.000 OA
ATOM     23  N   UNL     1       3.063   2.779  19.799  0.00  0.00    +0.000 N 
ATOM     24  H   UNL     1       3.875   2.511  19.248  0.00  0.00    +0.000 HD
ENDBRANCH  15  18
ENDBRANCH   1  14
BRANCH   1  25
ATOM     25  C   UNL     1       2.960   7.780  18.814  0.00  0.00    +0.000 C 
BRANCH  25  28
ATOM     26  C   UNL     1       0.398  10.273  19.168  0.00  0.00    +0.000 A 
ATOM     27  N   UNL     1       1.316   9.480  19.689  0.00  0.00    +0.000 NA
ATOM     28  C   UNL     1       1.834   8.746  18.647  0.00  0.00    +0.000 A 
ATOM     29  C   UNL     1       1.169   9.052  17.483  0.00  0.00    +0.000 A 
ATOM     30  N   UNL     1       0.271  10.024  17.819  0.00  0.00    +0.000 N 
ATOM     31  H   UNL     1      -0.371  10.483  17.188  0.00  0.00    +0.000 HD
BRANCH  26  33
ATOM     32  C   UNL     1       0.250  12.667  19.891  0.00  0.00    +0.000 C 
ATOM     33  C   UNL     1      -0.458  11.303  19.884  0.00  0.00    +0.000 C 
ATOM     34  C   UNL     1      -0.712  10.880  21.348  0.00  0.00    +0.000 C 
ATOM     35  C   UNL     1      -1.819  11.447  19.188  0.00  0.00    +0.000 C 
ENDBRANCH  26  33
ENDBRANCH  25  28
ENDBRANCH   1  25
TORSDOF 7
ENDMDL
MODEL 5
REMARK VINA RESULT:      -8.5      3.714      4.847
REMARK  Name = 
REMARK  10 active torsions:
REMARK  status: ('A' for Active; 'I' for Inactive)
REMARK    1  A    between atoms: C_1  and  C_2
REMARK    2  A    between atoms: C_2  and  C_3
REMARK    3  A    between atoms: C_2  and  C_4
REMARK    4  A    between atoms: C_2  and  C_5
REMARK    5  A    between atoms: C_7  and  C_8
REMARK    6  A    between atoms: C_8  and  C_9
REMARK    7  A    between atoms: C_9  and  N_10
REMARK    8  A    between atoms: C_9  and  C_19
REMARK    9  A    between atoms: C_11  and  C_13
REMARK   10  A    between atoms: C_25  and  C_26
REMARK                            x       y       z     vdW  Elec       q    Type
REMARK                         _______ _______ _______ _____ _____    ______ ____
ROOT
ATOM      1  C   UNL     1       5.996   6.524  17.089  0.00  0.00    +0.000 C 
ENDROOT
BRANCH   1   2
ATOM      2  C   UNL     1       4.497   6.519  17.457  0.00  0.00    +0.000 C 
ATOM      3  O   UNL     1       3.793   7.501  17.207  0.00  0.00    +0.000 OA
ATOM      4  N   UNL     1       3.957   5.386  18.034  0.00  0.00    +0.000 N 
ATOM      5  C   UNL     1       4.576   4.077  18.159  0.00  0.00    +0.000 C 
ATOM      6  C   UNL     1       3.399   3.121  18.062  0.00  0.00    +0.000 C 
ATOM      7  C   UNL     1       2.284   3.862  18.785  0.00  0.00    +0.000 C 
ATOM      8  C   UNL     1       2.564   5.349  18.511  0.00  0.00    +0.000 C 
BRANCH   8   9
ATOM      9  C   UNL     1       2.375   6.131  19.816  0.00  0.00    +0.000 C 
ATOM     10  N   UNL     1       2.488   5.406  20.966  0.00  0.00    +0.000 N 
ATOM     11  O   UNL     1       1.987   7.294  19.866  0.00  0.00    +0.000 OA
ATOM     12  H   UNL     1       2.940   4.494  20.958  0.00  0.00    +0.000 HD
ATOM     13  H   UNL     1       2.459   5.913  21.837  0.00  0.00    +0.000 HD
ENDBRANCH   8   9
ENDBRANCH   1   2
BRANCH   1  14
ATOM     14  N   UNL     1       6.144   5.703  15.877  0.00  0.00    +0.000 N 
ATOM     15  C   UNL     1       7.136   4.756  15.743  0.00  0.00    +0.000 C 
ATOM     16  O   UNL     1       7.908   4.470  16.654  0.00  0.00    +0.000 OA
ATOM     17  H   UNL     1       5.721   6.065  15.027  0.00  0.00    +0.000 HD
BRANCH  15  18
ATOM     18  C   UNL     1       7.183   4.047  14.381  0.00  0.00    +0.000 C 
ATOM     19  C   UNL     1       7.589   4.992  13.257  0.00  0.00    +0.000 C 
ATOM     20  C   UNL     1       6.943   4.387  12.014  0.00  0.00    +0.000 C 
ATOM     21  C   UNL     1       5.744   3.675  12.572  0.00  0.00    +0.000 C 
ATOM     22  O   UNL     1       4.805   3.221  11.940  0.00  0.00    +0.000 OA
ATOM     23  N   UNL     1       5.906   3.545  13.934  0.00  0.00    +0.000 N 
ATOM     24  H   UNL     1       5.315   2.896  14.448  0.00  0.00    +0.000 HD
ENDBRANCH  15  18
ENDBRANCH   1  14
BRANCH   1  25
ATOM     25  C   UNL     1       6.462   7.953  16.801  0.00  0.00    +0.000 C 
BRANCH  25  28
ATOM     26  C   UNL     1       8.847   9.901  18.650  0.00  0.00    +0.000 A 
ATOM     27  N   UNL     1       7.934   9.792  17.704  0.00  0.00    +0.000 NA
ATOM     28  C   UNL     1       7.544   8.472  17.689  0.00  0.00    +0.000 A 
ATOM     29  C   UNL     1       8.286   7.755  18.599  0.00  0.00    +0.000 A 
ATOM     30  N   UNL     1       9.099   8.667  19.208  0.00  0.00    +0.000 N 
ATOM     31  H   UNL     1       9.765   8.473  19.942  0.00  0.00    +0.000 HD
BRANCH  26  33
ATOM     32  C   UNL     1       9.538  11.283  20.623  0.00  0.00    +0.000 C 
ATOM     33  C   UNL     1       9.584  11.154  19.092  0.00  0.00    +0.000 C 
ATOM     34  C   UNL     1       8.936  12.415  18.479  0.00  0.00    +0.000 C 
ATOM     35  C   UNL     1      11.049  11.103  18.637  0.00  0.00    +0.000 C 
ENDBRANCH  26  33
ENDBRANCH  25  28
ENDBRANCH   1  25
TORSDOF 7
ENDMDL
MODEL 6
REMARK VINA RESULT:      -8.5      3.510      4.642
REMARK  Name = 
REMARK  10 active torsions:
REMARK  status: ('A' for Active; 'I' for Inactive)
REMARK    1  A    between atoms: C_1  and  C_2
REMARK    2  A    between atoms: C_2  and  C_3
REMARK    3  A    between atoms: C_2  and  C_4
REMARK    4  A    between atoms: C_2  and  C_5
REMARK    5  A    between atoms: C_7  and  C_8
REMARK    6  A    between atoms: C_8  and  C_9
REMARK    7  A    between atoms: C_9  and  N_10
REMARK    8  A    between atoms: C_9  and  C_19
REMARK    9  A    between atoms: C_11  and  C_13
REMARK   10  A    between atoms: C_25  and  C_26
REMARK                            x       y       z     vdW  Elec       q    Type
REMARK                         _______ _______ _______ _____ _____    ______ ____
ROOT
ATOM      1  C   UNL     1       5.778   6.272  17.214  0.00  0.00    +0.000 C 
ENDROOT
BRANCH   1   2
ATOM      2  C   UNL     1       4.298   6.281  17.652  0.00  0.00    +0.000 C 
ATOM      3  O   UNL     1       3.658   7.335  17.655  0.00  0.00    +0.000 OA
ATOM      4  N   UNL     1       3.700   5.086  18.002  0.00  0.00    +0.000 N 
ATOM      5  C   UNL     1       4.227   3.745  17.812  0.00  0.00    +0.000 C 
ATOM      6  C   UNL     1       2.981   2.908  17.577  0.00  0.00    +0.000 C 
ATOM      7  C   UNL     1       1.952   3.542  18.499  0.00  0.00    +0.000 C 
ATOM      8  C   UNL     1       2.328   5.033  18.534  0.00  0.00    +0.000 C 
BRANCH   8   9
ATOM      9  C   UNL     1       2.247   5.525  19.984  0.00  0.00    +0.000 C 
ATOM     10  N   UNL     1       2.151   6.875  20.150  0.00  0.00    +0.000 N 
ATOM     11  O   UNL     1       2.420   4.803  20.961  0.00  0.00    +0.000 OA
ATOM     12  H   UNL     1       1.868   7.471  19.374  0.00  0.00    +0.000 HD
ATOM     13  H   UNL     1       2.006   7.217  21.087  0.00  0.00    +0.000 HD
ENDBRANCH   8   9
ENDBRANCH   1   2
BRANCH   1  14
ATOM     14  N   UNL     1       5.869   5.417  16.020  0.00  0.00    +0.000 N 
ATOM     15  C   UNL     1       6.985   4.662  15.735  0.00  0.00    +0.000 C 
ATOM     16  O   UNL     1       7.943   4.580  16.498  0.00  0.00    +0.000 OA
ATOM     17  H   UNL     1       5.243   5.641  15.251  0.00  0.00    +0.000 HD
BRANCH  15  18
ATOM     18  C   UNL     1       6.930   3.888  14.409  0.00  0.00    +0.000 C 
ATOM     19  C   UNL     1       7.522   4.688  13.255  0.00  0.00    +0.000 C 
ATOM     20  C   UNL     1       6.801   4.147  12.023  0.00  0.00    +0.000 C 
ATOM     21  C   UNL     1       5.483   3.690  12.578  0.00  0.00    +0.000 C 
ATOM     22  O   UNL     1       4.489   3.381  11.942  0.00  0.00    +0.000 OA
ATOM     23  N   UNL     1       5.592   3.602  13.949  0.00  0.00    +0.000 N 
ATOM     24  H   UNL     1       4.884   3.096  14.475  0.00  0.00    +0.000 HD
ENDBRANCH  15  18
ENDBRANCH   1  14
BRANCH   1  25
ATOM     25  C   UNL     1       6.233   7.691  16.865  0.00  0.00    +0.000 C 
BRANCH  25  28
ATOM     26  C   UNL     1       8.709   9.674  18.549  0.00  0.00    +0.000 A 
ATOM     27  N   UNL     1       7.731   9.553  17.671  0.00  0.00    +0.000 NA
ATOM     28  C   UNL     1       7.366   8.226  17.675  0.00  0.00    +0.000 A 
ATOM     29  C   UNL     1       8.186   7.518  18.523  0.00  0.00    +0.000 A 
ATOM     30  N   UNL     1       9.024   8.442  19.077  0.00  0.00    +0.000 N 
ATOM     31  H   UNL     1       9.746   8.256  19.759  0.00  0.00    +0.000 HD
BRANCH  26  33
ATOM     32  C   UNL     1       8.788  12.167  18.303  0.00  0.00    +0.000 C 
ATOM     33  C   UNL     1       9.453  10.938  18.945  0.00  0.00    +0.000 C 
ATOM     34  C   UNL     1      10.923  10.878  18.472  0.00  0.00    +0.000 C 
ATOM     35  C   UNL     1       9.450  11.107  20.471  0.00  0.00    +0.000 C 
ENDBRANCH  26  33
ENDBRANCH  25  28
ENDBRANCH   1  25
TORSDOF 7
ENDMDL
MODEL 7
REMARK VINA RESULT:      -8.4      2.204      7.039
REMARK  Name = 
REMARK  10 active torsions:
REMARK  status: ('A' for Active; 'I' for Inactive)
REMARK    1  A    between atoms: C_1  and  C_2
REMARK    2  A    between atoms: C_2  and  C_3
REMARK    3  A    between atoms: C_2  and  C_4
REMARK    4  A    between atoms: C_2  and  C_5
REMARK    5  A    between atoms: C_7  and  C_8
REMARK    6  A    between atoms: C_8  and  C_9
REMARK    7  A    between atoms: C_9  and  N_10
REMARK    8  A    between atoms: C_9  and  C_19
REMARK    9  A    between atoms: C_11  and  C_13
REMARK   10  A    between atoms: C_25  and  C_26
REMARK                            x       y       z     vdW  Elec       q    Type
REMARK                         _______ _______ _______ _____ _____    ______ ____
ROOT
ATOM      1  C   UNL     1       3.806   6.037  17.421  0.00  0.00    +0.000 C 
ENDROOT
BRANCH   1   2
ATOM      2  C   UNL     1       3.846   5.006  18.569  0.00  0.00    +0.000 C 
ATOM      3  O   UNL     1       4.713   5.084  19.443  0.00  0.00    +0.000 OA
ATOM      4  N   UNL     1       2.875   4.025  18.616  0.00  0.00    +0.000 N 
ATOM      5  C   UNL     1       1.658   3.947  17.825  0.00  0.00    +0.000 C 
ATOM      6  C   UNL     1       0.672   3.273  18.764  0.00  0.00    +0.000 C 
ATOM      7  C   UNL     1       1.534   2.273  19.521  0.00  0.00    +0.000 C 
ATOM      8  C   UNL     1       2.914   2.944  19.616  0.00  0.00    +0.000 C 
BRANCH   8   9
ATOM      9  C   UNL     1       3.990   1.898  19.300  0.00  0.00    +0.000 C 
ATOM     10  N   UNL     1       5.143   1.993  20.022  0.00  0.00    +0.000 N 
ATOM     11  O   UNL     1       3.925   1.114  18.358  0.00  0.00    +0.000 OA
ATOM     12  H   UNL     1       5.167   2.530  20.887  0.00  0.00    +0.000 HD
ATOM     13  H   UNL     1       5.829   1.265  19.897  0.00  0.00    +0.000 HD
ENDBRANCH   8   9
ENDBRANCH   1   2
BRANCH   1  14
ATOM     14  N   UNL     1       3.422   7.327  18.014  0.00  0.00    +0.000 N 
ATOM     15  C   UNL     1       2.137   7.819  17.945  0.00  0.00    +0.000 C 
ATOM     16  O   UNL     1       1.207   7.179  17.463  0.00  0.00    +0.000 OA
ATOM     17  H   UNL     1       4.171   7.992  18.184  0.00  0.00    +0.000 HD
BRANCH  15  18
ATOM     18  C   UNL     1       1.937   9.214  18.556  0.00  0.00    +0.000 C 
ATOM     19  C   UNL     1       1.332   9.146  19.954  0.00  0.00    +0.000 C 
ATOM     20  C   UNL     1       0.596  10.474  20.103  0.00  0.00    +0.000 C 
ATOM     21  C   UNL     1       0.239  10.821  18.686  0.00  0.00    +0.000 C 
ATOM     22  O   UNL     1      -0.539  11.686  18.319  0.00  0.00    +0.000 OA
ATOM     23  N   UNL     1       0.997  10.043  17.839  0.00  0.00    +0.000 N 
ATOM     24  H   UNL     1       1.063  10.291  16.855  0.00  0.00    +0.000 HD
ENDBRANCH  15  18
ENDBRANCH   1  14
BRANCH   1  25
ATOM     25  C   UNL     1       5.190   6.161  16.777  0.00  0.00    +0.000 C 
BRANCH  25  28
ATOM     26  C   UNL     1       5.905   4.071  13.944  0.00  0.00    +0.000 A 
ATOM     27  N   UNL     1       5.409   5.178  14.465  0.00  0.00    +0.000 NA
ATOM     28  C   UNL     1       5.562   5.071  15.828  0.00  0.00    +0.000 A 
ATOM     29  C   UNL     1       6.100   3.845  16.143  0.00  0.00    +0.000 A 
ATOM     30  N   UNL     1       6.323   3.225  14.947  0.00  0.00    +0.000 N 
ATOM     31  H   UNL     1       6.727   2.308  14.820  0.00  0.00    +0.000 HD
BRANCH  26  33
ATOM     32  C   UNL     1       6.449   2.231  12.333  0.00  0.00    +0.000 C 
ATOM     33  C   UNL     1       6.003   3.695  12.476  0.00  0.00    +0.000 C 
ATOM     34  C   UNL     1       7.033   4.589  11.750  0.00  0.00    +0.000 C 
ATOM     35  C   UNL     1       4.645   3.876  11.784  0.00  0.00    +0.000 C 
ENDBRANCH  26  33
ENDBRANCH  25  28
ENDBRANCH   1  25
TORSDOF 7
ENDMDL
MODEL 8
REMARK VINA RESULT:      -8.4      0.636      1.019
REMARK  Name = 
REMARK  10 active torsions:
REMARK  status: ('A' for Active; 'I' for Inactive)
REMARK    1  A    between atoms: C_1  and  C_2
REMARK    2  A    between atoms: C_2  and  C_3
REMARK    3  A    between atoms: C_2  and  C_4
REMARK    4  A    between atoms: C_2  and  C_5
REMARK    5  A    between atoms: C_7  and  C_8
REMARK    6  A    between atoms: C_8  and  C_9
REMARK    7  A    between atoms: C_9  and  N_10
REMARK    8  A    between atoms: C_9  and  C_19
REMARK    9  A    between atoms: C_11  and  C_13
REMARK   10  A    between atoms: C_25  and  C_26
REMARK                            x       y       z     vdW  Elec       q    Type
REMARK                         _______ _______ _______ _____ _____    ______ ____
ROOT
ATOM      1  C   UNL     1       4.636   5.914  17.701  0.00  0.00    +0.000 C 
ENDROOT
BRANCH   1   2
ATOM      2  C   UNL     1       4.363   4.874  18.809  0.00  0.00    +0.000 C 
ATOM      3  O   UNL     1       5.048   4.866  19.835  0.00  0.00    +0.000 OA
ATOM      4  N   UNL     1       3.321   3.984  18.642  0.00  0.00    +0.000 N 
ATOM      5  C   UNL     1       2.278   4.022  17.631  0.00  0.00    +0.000 C 
ATOM      6  C   UNL     1       1.074   3.431  18.345  0.00  0.00    +0.000 C 
ATOM      7  C   UNL     1       1.683   2.352  19.227  0.00  0.00    +0.000 C 
ATOM      8  C   UNL     1       3.072   2.895  19.603  0.00  0.00    +0.000 C 
BRANCH   8   9
ATOM      9  C   UNL     1       4.093   1.760  19.473  0.00  0.00    +0.000 C 
ATOM     10  N   UNL     1       5.149   1.806  20.336  0.00  0.00    +0.000 N 
ATOM     11  O   UNL     1       4.090   0.938  18.562  0.00  0.00    +0.000 OA
ATOM     12  H   UNL     1       5.103   2.381  21.176  0.00  0.00    +0.000 HD
ATOM     13  H   UNL     1       5.785   1.024  20.332  0.00  0.00    +0.000 HD
ENDBRANCH   8   9
ENDBRANCH   1   2
BRANCH   1  14
ATOM     14  N   UNL     1       5.262   5.195  16.580  0.00  0.00    +0.000 N 
ATOM     15  C   UNL     1       6.620   5.221  16.352  0.00  0.00    +0.000 C 
ATOM     16  O   UNL     1       7.410   5.770  17.114  0.00  0.00    +0.000 OA
ATOM     17  H   UNL     1       4.658   4.955  15.799  0.00  0.00    +0.000 HD
BRANCH  15  18
ATOM     18  C   UNL     1       7.086   4.472  15.094  0.00  0.00    +0.000 C 
ATOM     19  C   UNL     1       7.509   5.427  13.984  0.00  0.00    +0.000 C 
ATOM     20  C   UNL     1       7.265   4.634  12.702  0.00  0.00    +0.000 C 
ATOM     21  C   UNL     1       6.151   3.705  13.089  0.00  0.00    +0.000 C 
ATOM     22  O   UNL     1       5.472   3.025  12.338  0.00  0.00    +0.000 OA
ATOM     23  N   UNL     1       6.057   3.681  14.464  0.00  0.00    +0.000 N 
ATOM     24  H   UNL     1       5.520   2.945  14.916  0.00  0.00    +0.000 HD
ENDBRANCH  15  18
ENDBRANCH   1  14
BRANCH   1  25
ATOM     25  C   UNL     1       3.322   6.545  17.235  0.00  0.00    +0.000 C 
BRANCH  25  28
ATOM     26  C   UNL     1       1.524   9.120  18.978  0.00  0.00    +0.000 A 
ATOM     27  N   UNL     1       2.095   8.651  17.885  0.00  0.00    +0.000 NA
ATOM     28  C   UNL     1       2.645   7.436  18.224  0.00  0.00    +0.000 A 
ATOM     29  C   UNL     1       2.461   7.197  19.566  0.00  0.00    +0.000 A 
ATOM     30  N   UNL     1       1.744   8.261  20.032  0.00  0.00    +0.000 N 
ATOM     31  H   UNL     1       1.427   8.393  20.982  0.00  0.00    +0.000 HD
BRANCH  26  33
ATOM     32  C   UNL     1       1.605  11.603  18.652  0.00  0.00    +0.000 C 
ATOM     33  C   UNL     1       0.755  10.420  19.142  0.00  0.00    +0.000 C 
ATOM     34  C   UNL     1       0.399  10.661  20.627  0.00  0.00    +0.000 C 
ATOM     35  C   UNL     1      -0.553  10.375  18.341  0.00  0.00    +0.000 C 
ENDBRANCH  26  33
ENDBRANCH  25  28
ENDBRANCH   1  25
TORSDOF 7
ENDMDL
MODEL 9
REMARK VINA RESULT:      -8.4      3.439      4.559
REMARK  Name = 
REMARK  10 active torsions:
REMARK  status: ('A' for Active; 'I' for Inactive)
REMARK    1  A    between atoms: C_1  and  C_2
REMARK    2  A    between atoms: C_2  and  C_3
REMARK    3  A    between atoms: C_2  and  C_4
REMARK    4  A    between atoms: C_2  and  C_5
REMARK    5  A    between atoms: C_7  and  C_8
REMARK    6  A    between atoms: C_8  and  C_9
REMARK    7  A    between atoms: C_9  and  N_10
REMARK    8  A    between atoms: C_9  and  C_19
REMARK    9  A    between atoms: C_11  and  C_13
REMARK   10  A    between atoms: C_25  and  C_26
REMARK                            x       y       z     vdW  Elec       q    Type
REMARK                         _______ _______ _______ _____ _____    ______ ____
ROOT
ATOM      1  C   UNL     1       6.730   5.504  16.744  0.00  0.00    +0.000 C 
ENDROOT
BRANCH   1   2
ATOM      2  C   UNL     1       5.941   4.749  17.835  0.00  0.00    +0.000 C 
ATOM      3  O   UNL     1       6.528   4.002  18.621  0.00  0.00    +0.000 OA
ATOM      4  N   UNL     1       4.578   4.955  17.934  0.00  0.00    +0.000 N 
ATOM      5  C   UNL     1       3.788   5.976  17.266  0.00  0.00    +0.000 C 
ATOM      6  C   UNL     1       2.686   6.277  18.267  0.00  0.00    +0.000 C 
ATOM      7  C   UNL     1       2.393   4.920  18.888  0.00  0.00    +0.000 C 
ATOM      8  C   UNL     1       3.745   4.187  18.876  0.00  0.00    +0.000 C 
BRANCH   8   9
ATOM      9  C   UNL     1       3.517   2.746  18.407  0.00  0.00    +0.000 C 
ATOM     10  N   UNL     1       4.329   1.802  18.965  0.00  0.00    +0.000 N 
ATOM     11  O   UNL     1       2.778   2.438  17.476  0.00  0.00    +0.000 OA
ATOM     12  H   UNL     1       4.839   2.004  19.823  0.00  0.00    +0.000 HD
ATOM     13  H   UNL     1       4.140   0.838  18.742  0.00  0.00    +0.000 HD
ENDBRANCH   8   9
ENDBRANCH   1   2
BRANCH   1  14
ATOM     14  N   UNL     1       6.257   5.000  15.445  0.00  0.00    +0.000 N 
ATOM     15  C   UNL     1       7.029   5.058  14.306  0.00  0.00    +0.000 C 
ATOM     16  O   UNL     1       8.192   5.451  14.311  0.00  0.00    +0.000 OA
ATOM     17  H   UNL     1       5.252   4.913  15.329  0.00  0.00    +0.000 HD
BRANCH  15  18
ATOM     18  C   UNL     1       6.345   4.552  13.027  0.00  0.00    +0.000 C 
ATOM     19  C   UNL     1       4.957   3.987  13.305  0.00  0.00    +0.000 C 
ATOM     20  C   UNL     1       4.741   2.971  12.186  0.00  0.00    +0.000 C 
ATOM     21  C   UNL     1       6.139   2.536  11.853  0.00  0.00    +0.000 C 
ATOM     22  O   UNL     1       6.464   1.581  11.168  0.00  0.00    +0.000 OA
ATOM     23  N   UNL     1       7.022   3.446  12.394  0.00  0.00    +0.000 N 
ATOM     24  H   UNL     1       7.991   3.447  12.084  0.00  0.00    +0.000 HD
ENDBRANCH  15  18
ENDBRANCH   1  14
BRANCH   1  25
ATOM     25  C   UNL     1       6.456   7.007  16.842  0.00  0.00    +0.000 C 
BRANCH  25  28
ATOM     26  C   UNL     1       8.592   9.514  18.274  0.00  0.00    +0.000 A 
ATOM     27  N   UNL     1       7.721   9.126  17.362  0.00  0.00    +0.000 NA
ATOM     28  C   UNL     1       7.458   7.799  17.614  0.00  0.00    +0.000 A 
ATOM     29  C   UNL     1       8.238   7.358  18.657  0.00  0.00    +0.000 A 
ATOM     30  N   UNL     1       8.943   8.450  19.074  0.00  0.00    +0.000 N 
ATOM     31  H   UNL     1       9.604   8.474  19.838  0.00  0.00    +0.000 HD
BRANCH  26  33
ATOM     32  C   UNL     1       9.306  11.232  19.953  0.00  0.00    +0.000 C 
ATOM     33  C   UNL     1       9.195  10.897  18.457  0.00  0.00    +0.000 C 
ATOM     34  C   UNL     1       8.313  11.971  17.782  0.00  0.00    +0.000 C 
ATOM     35  C   UNL     1      10.592  10.961  17.824  0.00  0.00    +0.000 C 
ENDBRANCH  26  33
ENDBRANCH  25  28
ENDBRANCH   1  25
TORSDOF 7
ENDMDL
