MODEL 1
REMARK VINA RESULT:      -7.4      0.000      0.000
REMARK  Name = 
REMARK  8 active torsions:
REMARK  status: ('A' for Active; 'I' for Inactive)
REMARK    1  A    between atoms: C_1  and  C_2
REMARK    2  A    between atoms: C_2  and  C_3
REMARK    3  A    between atoms: C_3  and  O_4
REMARK    4  A    between atoms: O_4  and  C_5
REMARK    5  A    between atoms: C_11  and  N_12
REMARK    6  A    between atoms: C_13  and  S_14
REMARK    7  A    between atoms: N_15  and  C_16
REMARK    8  A    between atoms: C_16  and  C_17
REMARK                            x       y       z     vdW  Elec       q    Type
REMARK                         _______ _______ _______ _____ _____    ______ ____
ROOT
ATOM      1  C   UNL     1      -1.357  11.816  21.330  0.00  0.00    +0.000 A 
ATOM      2  O   UNL     1      -0.941  11.295  22.580  0.00  0.00    +0.000 OA
ATOM      3  C   UNL     1      -0.163  10.177  22.688  0.00  0.00    +0.000 A 
ATOM      4  O   UNL     1       0.117   9.683  23.774  0.00  0.00    +0.000 OA
ATOM      5  C   UNL     1       0.380   9.614  21.429  0.00  0.00    +0.000 A 
ATOM      6  C   UNL     1       1.242   8.494  21.480  0.00  0.00    +0.000 A 
ATOM      7  C   UNL     1       1.859   8.005  20.317  0.00  0.00    +0.000 A 
ATOM      8  C   UNL     1       1.638   8.712  19.140  0.00  0.00    +0.000 A 
ATOM      9  C   UNL     1       0.725   9.766  19.069  0.00  0.00    +0.000 A 
ATOM     10  C   UNL     1       0.063  10.216  20.210  0.00  0.00    +0.000 A 
ATOM     11  C   UNL     1      -0.921  11.298  20.172  0.00  0.00    +0.000 A 
ATOM     12 CL   UNL     1      -1.529  11.864  18.653  0.00  0.00    +0.000 Cl
ENDROOT
BRANCH   7  13
ATOM     13  N   UNL     1       2.582   6.797  20.367  0.00  0.00    +0.000 N 
ATOM     14  C   UNL     1       2.782   5.791  19.442  0.00  0.00    +0.000 C 
ATOM     15  N   UNL     1       3.723   4.930  19.677  0.00  0.00    +0.000 NA
ATOM     16  H   UNL     1       3.153   6.671  21.192  0.00  0.00    +0.000 HD
BRANCH  14  17
ATOM     17  S   UNL     1       1.723   5.642  18.035  0.00  0.00    +0.000 S 
ATOM     18  H   UNL     1       1.047   6.777  18.239  0.00  0.00    +0.000 HD
ENDBRANCH  14  17
BRANCH  15  19
ATOM     19  C   UNL     1       3.928   3.833  18.728  0.00  0.00    +0.000 C 
BRANCH  19  20
ATOM     20  C   UNL     1       5.010   4.138  17.724  0.00  0.00    +0.000 A 
ATOM     21  C   UNL     1       6.276   4.563  18.152  0.00  0.00    +0.000 A 
ATOM     22  C   UNL     1       7.289   4.807  17.226  0.00  0.00    +0.000 A 
ATOM     23  C   UNL     1       7.043   4.637  15.865  0.00  0.00    +0.000 A 
ATOM     24  C   UNL     1       5.784   4.230  15.428  0.00  0.00    +0.000 A 
ATOM     25  C   UNL     1       4.769   3.986  16.353  0.00  0.00    +0.000 A 
ENDBRANCH  19  20
ENDBRANCH  15  19
ENDBRANCH   7  13
BRANCH   1  26
ATOM     26  O   UNL     1      -2.273  12.856  21.315  0.00  0.00    +0.000 OA
BRANCH  26  27
ATOM     27  C   UNL     1      -3.555  12.481  21.820  0.00  0.00    +0.000 C 
BRANCH  27  29
ATOM     28  C   UNL     1      -4.115  12.742  24.268  0.00  0.00    +0.000 C 
ATOM     29  C   UNL     1      -3.904  13.453  22.944  0.00  0.00    +0.000 C 
ENDBRANCH  27  29
ENDBRANCH  26  27
ENDBRANCH   1  26
TORSDOF 7
ENDMDL
MODEL 2
REMARK VINA RESULT:      -7.4      3.662     10.148
REMARK  Name = 
REMARK  8 active torsions:
REMARK  status: ('A' for Active; 'I' for Inactive)
REMARK    1  A    between atoms: C_1  and  C_2
REMARK    2  A    between atoms: C_2  and  C_3
REMARK    3  A    between atoms: C_3  and  O_4
REMARK    4  A    between atoms: O_4  and  C_5
REMARK    5  A    between atoms: C_11  and  N_12
REMARK    6  A    between atoms: C_13  and  S_14
REMARK    7  A    between atoms: N_15  and  C_16
REMARK    8  A    between atoms: C_16  and  C_17
REMARK                            x       y       z     vdW  Elec       q    Type
REMARK                         _______ _______ _______ _____ _____    ______ ____
ROOT
ATOM      1  C   UNL     1       3.940   5.359  18.178  0.00  0.00    +0.000 A 
ATOM      2  O   UNL     1       3.196   5.006  19.332  0.00  0.00    +0.000 OA
ATOM      3  C   UNL     1       2.419   5.903  20.008  0.00  0.00    +0.000 A 
ATOM      4  O   UNL     1       1.850   5.611  21.054  0.00  0.00    +0.000 OA
ATOM      5  C   UNL     1       2.243   7.238  19.389  0.00  0.00    +0.000 A 
ATOM      6  C   UNL     1       1.400   8.190  20.010  0.00  0.00    +0.000 A 
ATOM      7  C   UNL     1       1.127   9.422  19.394  0.00  0.00    +0.000 A 
ATOM      8  C   UNL     1       1.663   9.627  18.128  0.00  0.00    +0.000 A 
ATOM      9  C   UNL     1       2.561   8.729  17.548  0.00  0.00    +0.000 A 
ATOM     10  C   UNL     1       2.884   7.530  18.184  0.00  0.00    +0.000 A 
ATOM     11  C   UNL     1       3.839   6.576  17.622  0.00  0.00    +0.000 A 
ATOM     12 CL   UNL     1       4.841   7.036  16.288  0.00  0.00    +0.000 Cl
ENDROOT
BRANCH   7  13
ATOM     13  N   UNL     1       0.419  10.413  20.102  0.00  0.00    +0.000 N 
ATOM     14  C   UNL     1      -0.769  11.070  19.849  0.00  0.00    +0.000 C 
ATOM     15  N   UNL     1      -1.311  11.737  20.821  0.00  0.00    +0.000 NA
ATOM     16  H   UNL     1       0.781  10.626  21.022  0.00  0.00    +0.000 HD
BRANCH  14  17
ATOM     17  S   UNL     1      -1.468  11.068  18.227  0.00  0.00    +0.000 S 
ATOM     18  H   UNL     1      -1.072  12.300  17.894  0.00  0.00    +0.000 HD
ENDBRANCH  14  17
BRANCH  15  19
ATOM     19  C   UNL     1      -2.553  12.471  20.565  0.00  0.00    +0.000 C 
BRANCH  19  20
ATOM     20  C   UNL     1      -3.394  12.626  21.806  0.00  0.00    +0.000 A 
ATOM     21  C   UNL     1      -4.688  13.160  21.723  0.00  0.00    +0.000 A 
ATOM     22  C   UNL     1      -5.481  13.267  22.865  0.00  0.00    +0.000 A 
ATOM     23  C   UNL     1      -4.985  12.850  24.099  0.00  0.00    +0.000 A 
ATOM     24  C   UNL     1      -3.694  12.332  24.194  0.00  0.00    +0.000 A 
ATOM     25  C   UNL     1      -2.899  12.226  23.052  0.00  0.00    +0.000 A 
ENDBRANCH  19  20
ENDBRANCH  15  19
ENDBRANCH   7  13
BRANCH   1  26
ATOM     26  O   UNL     1       4.825   4.434  17.648  0.00  0.00    +0.000 OA
BRANCH  26  27
ATOM     27  C   UNL     1       6.091   4.428  18.308  0.00  0.00    +0.000 C 
BRANCH  27  29
ATOM     28  C   UNL     1       6.666   4.173  15.863  0.00  0.00    +0.000 C 
ATOM     29  C   UNL     1       7.165   4.588  17.235  0.00  0.00    +0.000 C 
ENDBRANCH  27  29
ENDBRANCH  26  27
ENDBRANCH   1  26
TORSDOF 7
ENDMDL
MODEL 3
REMARK VINA RESULT:      -7.4      0.827      1.101
REMARK  Name = 
REMARK  8 active torsions:
REMARK  status: ('A' for Active; 'I' for Inactive)
REMARK    1  A    between atoms: C_1  and  C_2
REMARK    2  A    between atoms: C_2  and  C_3
REMARK    3  A    between atoms: C_3  and  O_4
REMARK    4  A    between atoms: O_4  and  C_5
REMARK    5  A    between atoms: C_11  and  N_12
REMARK    6  A    between atoms: C_13  and  S_14
REMARK    7  A    between atoms: N_15  and  C_16
REMARK    8  A    between atoms: C_16  and  C_17
REMARK                            x       y       z     vdW  Elec       q    Type
REMARK                         _______ _______ _______ _____ _____    ______ ____
ROOT
ATOM      1  C   UNL     1      -1.588  11.937  20.504  0.00  0.00    +0.000 A 
ATOM      2  O   UNL     1      -1.177  11.595  21.817  0.00  0.00    +0.000 OA
ATOM      3  C   UNL     1      -0.351  10.539  22.076  0.00  0.00    +0.000 A 
ATOM      4  O   UNL     1      -0.073  10.197  23.220  0.00  0.00    +0.000 OA
ATOM      5  C   UNL     1       0.248   9.853  20.906  0.00  0.00    +0.000 A 
ATOM      6  C   UNL     1       1.161   8.792  21.112  0.00  0.00    +0.000 A 
ATOM      7  C   UNL     1       1.828   8.195  20.030  0.00  0.00    +0.000 A 
ATOM      8  C   UNL     1       1.601   8.739  18.770  0.00  0.00    +0.000 A 
ATOM      9  C   UNL     1       0.641   9.730  18.552  0.00  0.00    +0.000 A 
ATOM     10  C   UNL     1      -0.068  10.284  19.617  0.00  0.00    +0.000 A 
ATOM     11  C   UNL     1      -1.100  11.302  19.427  0.00  0.00    +0.000 A 
ATOM     12 CL   UNL     1      -1.698  11.646  17.839  0.00  0.00    +0.000 Cl
ENDROOT
BRANCH   7  13
ATOM     13  N   UNL     1       2.605   7.039  20.242  0.00  0.00    +0.000 N 
ATOM     14  C   UNL     1       2.857   5.929  19.461  0.00  0.00    +0.000 C 
ATOM     15  N   UNL     1       3.836   5.152  19.810  0.00  0.00    +0.000 NA
ATOM     16  H   UNL     1       3.175   7.052  21.077  0.00  0.00    +0.000 HD
BRANCH  14  17
ATOM     17  S   UNL     1       1.816   5.543  18.087  0.00  0.00    +0.000 S 
ATOM     18  H   UNL     1       0.816   5.019  18.802  0.00  0.00    +0.000 HD
ENDBRANCH  14  17
BRANCH  15  19
ATOM     19  C   UNL     1       4.098   3.948  19.017  0.00  0.00    +0.000 C 
BRANCH  19  20
ATOM     20  C   UNL     1       5.129   4.181  17.944  0.00  0.00    +0.000 A 
ATOM     21  C   UNL     1       6.401   4.670  18.276  0.00  0.00    +0.000 A 
ATOM     22  C   UNL     1       7.368   4.848  17.288  0.00  0.00    +0.000 A 
ATOM     23  C   UNL     1       7.071   4.549  15.960  0.00  0.00    +0.000 A 
ATOM     24  C   UNL     1       5.805   4.077  15.618  0.00  0.00    +0.000 A 
ATOM     25  C   UNL     1       4.835   3.899  16.605  0.00  0.00    +0.000 A 
ENDBRANCH  19  20
ENDBRANCH  15  19
ENDBRANCH   7  13
BRANCH   1  26
ATOM     26  O   UNL     1      -2.551  12.920  20.343  0.00  0.00    +0.000 OA
BRANCH  26  27
ATOM     27  C   UNL     1      -3.299  13.172  21.533  0.00  0.00    +0.000 C 
BRANCH  27  29
ATOM     28  C   UNL     1      -5.030  12.640  19.775  0.00  0.00    +0.000 C 
ATOM     29  C   UNL     1      -4.743  12.761  21.260  0.00  0.00    +0.000 C 
ENDBRANCH  27  29
ENDBRANCH  26  27
ENDBRANCH   1  26
TORSDOF 7
ENDMDL
MODEL 4
REMARK VINA RESULT:      -7.3      3.802      9.846
REMARK  Name = 
REMARK  8 active torsions:
REMARK  status: ('A' for Active; 'I' for Inactive)
REMARK    1  A    between atoms: C_1  and  C_2
REMARK    2  A    between atoms: C_2  and  C_3
REMARK    3  A    between atoms: C_3  and  O_4
REMARK    4  A    between atoms: O_4  and  C_5
REMARK    5  A    between atoms: C_11  and  N_12
REMARK    6  A    between atoms: C_13  and  S_14
REMARK    7  A    between atoms: N_15  and  C_16
REMARK    8  A    between atoms: C_16  and  C_17
REMARK                            x       y       z     vdW  Elec       q    Type
REMARK                         _______ _______ _______ _____ _____    ______ ____
ROOT
ATOM      1  C   UNL     1       3.712   5.241  18.581  0.00  0.00    +0.000 A 
ATOM      2  O   UNL     1       2.889   5.062  19.721  0.00  0.00    +0.000 OA
ATOM      3  C   UNL     1       2.141   6.073  20.253  0.00  0.00    +0.000 A 
ATOM      4  O   UNL     1       1.502   5.934  21.290  0.00  0.00    +0.000 OA
ATOM      5  C   UNL     1       2.087   7.342  19.487  0.00  0.00    +0.000 A 
ATOM      6  C   UNL     1       1.280   8.405  19.954  0.00  0.00    +0.000 A 
ATOM      7  C   UNL     1       1.121   9.577  19.197  0.00  0.00    +0.000 A 
ATOM      8  C   UNL     1       1.733   9.609  17.949  0.00  0.00    +0.000 A 
ATOM      9  C   UNL     1       2.596   8.599  17.519  0.00  0.00    +0.000 A 
ATOM     10  C   UNL     1       2.805   7.460  18.296  0.00  0.00    +0.000 A 
ATOM     11  C   UNL     1       3.722   6.393  17.895  0.00  0.00    +0.000 A 
ATOM     12 CL   UNL     1       4.818   6.642  16.578  0.00  0.00    +0.000 Cl
ENDROOT
BRANCH   7  13
ATOM     13  N   UNL     1       0.447  10.681  19.754  0.00  0.00    +0.000 N 
ATOM     14  C   UNL     1      -0.834  11.169  19.593  0.00  0.00    +0.000 C 
ATOM     15  N   UNL     1      -1.261  12.046  20.448  0.00  0.00    +0.000 NA
ATOM     16  H   UNL     1       0.946  11.163  20.490  0.00  0.00    +0.000 HD
BRANCH  14  17
ATOM     17  S   UNL     1      -1.816  10.673  18.209  0.00  0.00    +0.000 S 
ATOM     18  H   UNL     1      -2.370   9.608  18.796  0.00  0.00    +0.000 HD
ENDBRANCH  14  17
BRANCH  15  19
ATOM     19  C   UNL     1      -2.605  12.604  20.275  0.00  0.00    +0.000 C 
BRANCH  19  20
ATOM     20  C   UNL     1      -3.373  12.663  21.570  0.00  0.00    +0.000 A 
ATOM     21  C   UNL     1      -2.756  12.309  22.778  0.00  0.00    +0.000 A 
ATOM     22  C   UNL     1      -3.455  12.401  23.981  0.00  0.00    +0.000 A 
ATOM     23  C   UNL     1      -4.778  12.839  23.985  0.00  0.00    +0.000 A 
ATOM     24  C   UNL     1      -5.405  13.179  22.788  0.00  0.00    +0.000 A 
ATOM     25  C   UNL     1      -4.708  13.086  21.583  0.00  0.00    +0.000 A 
ENDBRANCH  19  20
ENDBRANCH  15  19
ENDBRANCH   7  13
BRANCH   1  26
ATOM     26  O   UNL     1       4.558   4.210  18.204  0.00  0.00    +0.000 OA
BRANCH  26  27
ATOM     27  C   UNL     1       4.285   2.984  18.882  0.00  0.00    +0.000 C 
BRANCH  27  29
ATOM     28  C   UNL     1       2.038   2.073  18.178  0.00  0.00    +0.000 C 
ATOM     29  C   UNL     1       3.531   2.082  17.909  0.00  0.00    +0.000 C 
ENDBRANCH  27  29
ENDBRANCH  26  27
ENDBRANCH   1  26
TORSDOF 7
ENDMDL
MODEL 5
REMARK VINA RESULT:      -7.3      2.604      3.750
REMARK  Name = 
REMARK  8 active torsions:
REMARK  status: ('A' for Active; 'I' for Inactive)
REMARK    1  A    between atoms: C_1  and  C_2
REMARK    2  A    between atoms: C_2  and  C_3
REMARK    3  A    between atoms: C_3  and  O_4
REMARK    4  A    between atoms: O_4  and  C_5
REMARK    5  A    between atoms: C_11  and  N_12
REMARK    6  A    between atoms: C_13  and  S_14
REMARK    7  A    between atoms: N_15  and  C_16
REMARK    8  A    between atoms: C_16  and  C_17
REMARK                            x       y       z     vdW  Elec       q    Type
REMARK                         _______ _______ _______ _____ _____    ______ ____
ROOT
ATOM      1  C   UNL     1       0.800  10.557  20.689  0.00  0.00    +0.000 A 
ATOM      2  O   UNL     1       1.001  10.893  19.326  0.00  0.00    +0.000 OA
ATOM      3  C   UNL     1       1.617  10.051  18.445  0.00  0.00    +0.000 A 
ATOM      4  O   UNL     1       1.866  10.385  17.292  0.00  0.00    +0.000 OA
ATOM      5  C   UNL     1       1.924   8.683  18.928  0.00  0.00    +0.000 A 
ATOM      6  C   UNL     1       2.505   7.744  18.043  0.00  0.00    +0.000 A 
ATOM      7  C   UNL     1       2.707   6.412  18.436  0.00  0.00    +0.000 A 
ATOM      8  C   UNL     1       2.247   6.049  19.697  0.00  0.00    +0.000 A 
ATOM      9  C   UNL     1       1.749   6.987  20.603  0.00  0.00    +0.000 A 
ATOM     10  C   UNL     1       1.603   8.325  20.239  0.00  0.00    +0.000 A 
ATOM     11  C   UNL     1       1.112   9.343  21.167  0.00  0.00    +0.000 A 
ATOM     12 CL   UNL     1       0.976   8.983  22.855  0.00  0.00    +0.000 Cl
ENDROOT
BRANCH   7  13
ATOM     13  N   UNL     1       3.431   5.540  17.599  0.00  0.00    +0.000 N 
ATOM     14  C   UNL     1       4.758   5.499  17.220  0.00  0.00    +0.000 C 
ATOM     15  N   UNL     1       5.194   4.415  16.657  0.00  0.00    +0.000 NA
ATOM     16  H   UNL     1       2.923   4.724  17.285  0.00  0.00    +0.000 HD
BRANCH  14  17
ATOM     17  S   UNL     1       5.793   6.917  17.421  0.00  0.00    +0.000 S 
ATOM     18  H   UNL     1       6.922   6.336  17.006  0.00  0.00    +0.000 HD
ENDBRANCH  14  17
BRANCH  15  19
ATOM     19  C   UNL     1       6.590   4.364  16.214  0.00  0.00    +0.000 C 
BRANCH  19  20
ATOM     20  C   UNL     1       6.715   4.335  14.712  0.00  0.00    +0.000 A 
ATOM     21  C   UNL     1       5.872   3.518  13.946  0.00  0.00    +0.000 A 
ATOM     22  C   UNL     1       5.961   3.521  12.554  0.00  0.00    +0.000 A 
ATOM     23  C   UNL     1       6.898   4.333  11.919  0.00  0.00    +0.000 A 
ATOM     24  C   UNL     1       7.751   5.138  12.672  0.00  0.00    +0.000 A 
ATOM     25  C   UNL     1       7.664   5.135  14.065  0.00  0.00    +0.000 A 
ENDBRANCH  19  20
ENDBRANCH  15  19
ENDBRANCH   7  13
BRANCH   1  26
ATOM     26  O   UNL     1       0.313  11.529  21.548  0.00  0.00    +0.000 OA
BRANCH  26  27
ATOM     27  C   UNL     1      -1.112  11.615  21.546  0.00  0.00    +0.000 C 
BRANCH  27  29
ATOM     28  C   UNL     1      -1.072  13.529  23.192  0.00  0.00    +0.000 C 
ATOM     29  C   UNL     1      -1.541  12.111  22.925  0.00  0.00    +0.000 C 
ENDBRANCH  27  29
ENDBRANCH  26  27
ENDBRANCH   1  26
TORSDOF 7
ENDMDL
MODEL 6
REMARK VINA RESULT:      -7.2      0.373      1.002
REMARK  Name = 
REMARK  8 active torsions:
REMARK  status: ('A' for Active; 'I' for Inactive)
REMARK    1  A    between atoms: C_1  and  C_2
REMARK    2  A    between atoms: C_2  and  C_3
REMARK    3  A    between atoms: C_3  and  O_4
REMARK    4  A    between atoms: O_4  and  C_5
REMARK    5  A    between atoms: C_11  and  N_12
REMARK    6  A    between atoms: C_13  and  S_14
REMARK    7  A    between atoms: N_15  and  C_16
REMARK    8  A    between atoms: C_16  and  C_17
REMARK                            x       y       z     vdW  Elec       q    Type
REMARK                         _______ _______ _______ _____ _____    ______ ____
ROOT
ATOM      1  C   UNL     1      -1.293  11.748  21.353  0.00  0.00    +0.000 A 
ATOM      2  O   UNL     1      -0.851  11.240  22.600  0.00  0.00    +0.000 OA
ATOM      3  C   UNL     1      -0.072  10.123  22.704  0.00  0.00    +0.000 A 
ATOM      4  O   UNL     1       0.231   9.640  23.789  0.00  0.00    +0.000 OA
ATOM      5  C   UNL     1       0.447   9.547  21.440  0.00  0.00    +0.000 A 
ATOM      6  C   UNL     1       1.310   8.428  21.485  0.00  0.00    +0.000 A 
ATOM      7  C   UNL     1       1.904   7.927  20.315  0.00  0.00    +0.000 A 
ATOM      8  C   UNL     1       1.659   8.622  19.136  0.00  0.00    +0.000 A 
ATOM      9  C   UNL     1       0.745   9.675  19.071  0.00  0.00    +0.000 A 
ATOM     10  C   UNL     1       0.105  10.137  20.221  0.00  0.00    +0.000 A 
ATOM     11  C   UNL     1      -0.880  11.218  20.191  0.00  0.00    +0.000 A 
ATOM     12 CL   UNL     1      -1.518  11.769  18.679  0.00  0.00    +0.000 Cl
ENDROOT
BRANCH   7  13
ATOM     13  N   UNL     1       2.628   6.720  20.362  0.00  0.00    +0.000 N 
ATOM     14  C   UNL     1       2.834   5.719  19.434  0.00  0.00    +0.000 C 
ATOM     15  N   UNL     1       3.775   4.858  19.670  0.00  0.00    +0.000 NA
ATOM     16  H   UNL     1       3.195   6.590  21.191  0.00  0.00    +0.000 HD
BRANCH  14  17
ATOM     17  S   UNL     1       1.783   5.576  18.021  0.00  0.00    +0.000 S 
ATOM     18  H   UNL     1       2.131   6.738  17.460  0.00  0.00    +0.000 HD
ENDBRANCH  14  17
BRANCH  15  19
ATOM     19  C   UNL     1       3.987   3.766  18.716  0.00  0.00    +0.000 C 
BRANCH  19  20
ATOM     20  C   UNL     1       5.052   4.089  17.701  0.00  0.00    +0.000 A 
ATOM     21  C   UNL     1       4.805   3.912  16.332  0.00  0.00    +0.000 A 
ATOM     22  C   UNL     1       5.777   4.248  15.390  0.00  0.00    +0.000 A 
ATOM     23  C   UNL     1       7.006   4.755  15.809  0.00  0.00    +0.000 A 
ATOM     24  C   UNL     1       7.267   4.921  17.168  0.00  0.00    +0.000 A 
ATOM     25  C   UNL     1       6.296   4.584  18.111  0.00  0.00    +0.000 A 
ENDBRANCH  19  20
ENDBRANCH  15  19
ENDBRANCH   7  13
BRANCH   1  26
ATOM     26  O   UNL     1      -2.209  12.787  21.345  0.00  0.00    +0.000 OA
BRANCH  26  27
ATOM     27  C   UNL     1      -3.291  12.587  22.255  0.00  0.00    +0.000 C 
BRANCH  27  29
ATOM     28  C   UNL     1      -4.592  14.185  23.714  0.00  0.00    +0.000 C 
ATOM     29  C   UNL     1      -3.216  13.693  23.304  0.00  0.00    +0.000 C 
ENDBRANCH  27  29
ENDBRANCH  26  27
ENDBRANCH   1  26
TORSDOF 7
ENDMDL
MODEL 7
REMARK VINA RESULT:      -7.1      3.710     10.167
REMARK  Name = 
REMARK  8 active torsions:
REMARK  status: ('A' for Active; 'I' for Inactive)
REMARK    1  A    between atoms: C_1  and  C_2
REMARK    2  A    between atoms: C_2  and  C_3
REMARK    3  A    between atoms: C_3  and  O_4
REMARK    4  A    between atoms: O_4  and  C_5
REMARK    5  A    between atoms: C_11  and  N_12
REMARK    6  A    between atoms: C_13  and  S_14
REMARK    7  A    between atoms: N_15  and  C_16
REMARK    8  A    between atoms: C_16  and  C_17
REMARK                            x       y       z     vdW  Elec       q    Type
REMARK                         _______ _______ _______ _____ _____    ______ ____
ROOT
ATOM      1  C   UNL     1       4.125   5.045  18.017  0.00  0.00    +0.000 A 
ATOM      2  O   UNL     1       3.584   4.444  19.181  0.00  0.00    +0.000 OA
ATOM      3  C   UNL     1       2.832   5.139  20.085  0.00  0.00    +0.000 A 
ATOM      4  O   UNL     1       2.444   4.634  21.132  0.00  0.00    +0.000 OA
ATOM      5  C   UNL     1       2.452   6.524  19.716  0.00  0.00    +0.000 A 
ATOM      6  C   UNL     1       1.621   7.273  20.582  0.00  0.00    +0.000 A 
ATOM      7  C   UNL     1       1.155   8.545  20.212  0.00  0.00    +0.000 A 
ATOM      8  C   UNL     1       1.489   8.994  18.939  0.00  0.00    +0.000 A 
ATOM      9  C   UNL     1       2.374   8.296  18.115  0.00  0.00    +0.000 A 
ATOM     10  C   UNL     1       2.889   7.060  18.504  0.00  0.00    +0.000 A 
ATOM     11  C   UNL     1       3.839   6.312  17.682  0.00  0.00    +0.000 A 
ATOM     12 CL   UNL     1       4.599   7.072  16.325  0.00  0.00    +0.000 Cl
ENDROOT
BRANCH   7  13
ATOM     13  N   UNL     1       0.466   9.336  21.153  0.00  0.00    +0.000 N 
ATOM     14  C   UNL     1       0.124  10.673  21.175  0.00  0.00    +0.000 C 
ATOM     15  N   UNL     1      -0.753  11.060  22.048  0.00  0.00    +0.000 NA
ATOM     16  H   UNL     1       0.046   8.825  21.918  0.00  0.00    +0.000 HD
BRANCH  14  17
ATOM     17  S   UNL     1       0.930  11.823  20.102  0.00  0.00    +0.000 S 
ATOM     18  H   UNL     1       2.159  11.316  20.239  0.00  0.00    +0.000 HD
ENDBRANCH  14  17
BRANCH  15  19
ATOM     19  C   UNL     1      -1.103  12.482  22.114  0.00  0.00    +0.000 C 
BRANCH  19  20
ATOM     20  C   UNL     1      -2.555  12.700  22.451  0.00  0.00    +0.000 A 
ATOM     21  C   UNL     1      -3.471  13.051  21.448  0.00  0.00    +0.000 A 
ATOM     22  C   UNL     1      -4.822  13.214  21.753  0.00  0.00    +0.000 A 
ATOM     23  C   UNL     1      -5.267  13.037  23.062  0.00  0.00    +0.000 A 
ATOM     24  C   UNL     1      -4.362  12.703  24.068  0.00  0.00    +0.000 A 
ATOM     25  C   UNL     1      -3.010  12.540  23.765  0.00  0.00    +0.000 A 
ENDBRANCH  19  20
ENDBRANCH  15  19
ENDBRANCH   7  13
BRANCH   1  26
ATOM     26  O   UNL     1       5.007   4.311  17.239  0.00  0.00    +0.000 OA
BRANCH  26  27
ATOM     27  C   UNL     1       6.349   4.348  17.726  0.00  0.00    +0.000 C 
BRANCH  27  29
ATOM     28  C   UNL     1       6.633   4.248  15.220  0.00  0.00    +0.000 C 
ATOM     29  C   UNL     1       7.257   4.661  16.540  0.00  0.00    +0.000 C 
ENDBRANCH  27  29
ENDBRANCH  26  27
ENDBRANCH   1  26
TORSDOF 7
ENDMDL
MODEL 8
REMARK VINA RESULT:      -7.1      3.632      9.889
REMARK  Name = 
REMARK  8 active torsions:
REMARK  status: ('A' for Active; 'I' for Inactive)
REMARK    1  A    between atoms: C_1  and  C_2
REMARK    2  A    between atoms: C_2  and  C_3
REMARK    3  A    between atoms: C_3  and  O_4
REMARK    4  A    between atoms: O_4  and  C_5
REMARK    5  A    between atoms: C_11  and  N_12
REMARK    6  A    between atoms: C_13  and  S_14
REMARK    7  A    between atoms: N_15  and  C_16
REMARK    8  A    between atoms: C_16  and  C_17
REMARK                            x       y       z     vdW  Elec       q    Type
REMARK                         _______ _______ _______ _____ _____    ______ ____
ROOT
ATOM      1  C   UNL     1       3.999   5.341  18.251  0.00  0.00    +0.000 A 
ATOM      2  O   UNL     1       3.231   5.008  19.395  0.00  0.00    +0.000 OA
ATOM      3  C   UNL     1       2.422   5.910  20.025  0.00  0.00    +0.000 A 
ATOM      4  O   UNL     1       1.832   5.638  21.065  0.00  0.00    +0.000 OA
ATOM      5  C   UNL     1       2.240   7.224  19.363  0.00  0.00    +0.000 A 
ATOM      6  C   UNL     1       1.365   8.178  19.934  0.00  0.00    +0.000 A 
ATOM      7  C   UNL     1       1.087   9.386  19.276  0.00  0.00    +0.000 A 
ATOM      8  C   UNL     1       1.652   9.565  18.018  0.00  0.00    +0.000 A 
ATOM      9  C   UNL     1       2.579   8.666  17.487  0.00  0.00    +0.000 A 
ATOM     10  C   UNL     1       2.906   7.492  18.166  0.00  0.00    +0.000 A 
ATOM     11  C   UNL     1       3.892   6.539  17.657  0.00  0.00    +0.000 A 
ATOM     12 CL   UNL     1       4.920   6.978  16.335  0.00  0.00    +0.000 Cl
ENDROOT
BRANCH   7  13
ATOM     13  N   UNL     1       0.344  10.385  19.936  0.00  0.00    +0.000 N 
ATOM     14  C   UNL     1      -0.212  10.453  21.198  0.00  0.00    +0.000 C 
ATOM     15  N   UNL     1      -0.605  11.613  21.626  0.00  0.00    +0.000 NA
ATOM     16  H   UNL     1       0.280  11.268  19.446  0.00  0.00    +0.000 HD
BRANCH  14  17
ATOM     17  S   UNL     1      -0.456   8.985  22.151  0.00  0.00    +0.000 S 
ATOM     18  H   UNL     1      -0.097   8.126  21.193  0.00  0.00    +0.000 HD
ENDBRANCH  14  17
BRANCH  15  19
ATOM     19  C   UNL     1      -1.231  11.702  22.947  0.00  0.00    +0.000 C 
BRANCH  19  20
ATOM     20  C   UNL     1      -2.634  12.248  22.882  0.00  0.00    +0.000 A 
ATOM     21  C   UNL     1      -3.418  12.332  24.041  0.00  0.00    +0.000 A 
ATOM     22  C   UNL     1      -4.701  12.873  23.988  0.00  0.00    +0.000 A 
ATOM     23  C   UNL     1      -5.215  13.328  22.774  0.00  0.00    +0.000 A 
ATOM     24  C   UNL     1      -4.449  13.235  21.613  0.00  0.00    +0.000 A 
ATOM     25  C   UNL     1      -3.165  12.692  21.665  0.00  0.00    +0.000 A 
ENDBRANCH  19  20
ENDBRANCH  15  19
ENDBRANCH   7  13
BRANCH   1  26
ATOM     26  O   UNL     1       4.912   4.416  17.771  0.00  0.00    +0.000 OA
BRANCH  26  27
ATOM     27  C   UNL     1       6.040   4.244  18.630  0.00  0.00    +0.000 C 
BRANCH  27  29
ATOM     28  C   UNL     1       7.810   6.041  18.727  0.00  0.00    +0.000 C 
ATOM     29  C   UNL     1       7.243   4.876  17.937  0.00  0.00    +0.000 C 
ENDBRANCH  27  29
ENDBRANCH  26  27
ENDBRANCH   1  26
TORSDOF 7
ENDMDL
MODEL 9
REMARK VINA RESULT:      -7.1      4.997      9.525
REMARK  Name = 
REMARK  8 active torsions:
REMARK  status: ('A' for Active; 'I' for Inactive)
REMARK    1  A    between atoms: C_1  and  C_2
REMARK    2  A    between atoms: C_2  and  C_3
REMARK    3  A    between atoms: C_3  and  O_4
REMARK    4  A    between atoms: O_4  and  C_5
REMARK    5  A    between atoms: C_11  and  N_12
REMARK    6  A    between atoms: C_13  and  S_14
REMARK    7  A    between atoms: N_15  and  C_16
REMARK    8  A    between atoms: C_16  and  C_17
REMARK                            x       y       z     vdW  Elec       q    Type
REMARK                         _______ _______ _______ _____ _____    ______ ____
ROOT
ATOM      1  C   UNL     1       2.503   6.367  19.757  0.00  0.00    +0.000 A 
ATOM      2  O   UNL     1       1.648   6.616  20.860  0.00  0.00    +0.000 OA
ATOM      3  C   UNL     1       1.054   7.828  21.069  0.00  0.00    +0.000 A 
ATOM      4  O   UNL     1       0.388   8.061  22.071  0.00  0.00    +0.000 OA
ATOM      5  C   UNL     1       1.200   8.841  19.996  0.00  0.00    +0.000 A 
ATOM      6  C   UNL     1       0.556  10.094  20.126  0.00  0.00    +0.000 A 
ATOM      7  C   UNL     1       0.585  11.031  19.081  0.00  0.00    +0.000 A 
ATOM      8  C   UNL     1       1.211  10.643  17.902  0.00  0.00    +0.000 A 
ATOM      9  C   UNL     1       1.918   9.443  17.797  0.00  0.00    +0.000 A 
ATOM     10  C   UNL     1       1.944   8.535  18.854  0.00  0.00    +0.000 A 
ATOM     11  C   UNL     1       2.694   7.281  18.795  0.00  0.00    +0.000 A 
ATOM     12 CL   UNL     1       3.832   7.012  17.518  0.00  0.00    +0.000 Cl
ENDROOT
BRANCH   7  13
ATOM     13  N   UNL     1       0.077  12.328  19.294  0.00  0.00    +0.000 N 
ATOM     14  C   UNL     1       0.689  13.539  19.546  0.00  0.00    +0.000 C 
ATOM     15  N   UNL     1      -0.025  14.616  19.424  0.00  0.00    +0.000 NA
ATOM     16  H   UNL     1      -0.917  12.431  19.137  0.00  0.00    +0.000 HD
BRANCH  14  17
ATOM     17  S   UNL     1       2.365  13.600  20.103  0.00  0.00    +0.000 S 
ATOM     18  H   UNL     1       2.087  13.911  21.373  0.00  0.00    +0.000 HD
ENDBRANCH  14  17
BRANCH  15  19
ATOM     19  C   UNL     1       0.595  15.910  19.722  0.00  0.00    +0.000 C 
BRANCH  19  20
ATOM     20  C   UNL     1       0.573  16.843  18.539  0.00  0.00    +0.000 A 
ATOM     21  C   UNL     1      -0.623  17.460  18.145  0.00  0.00    +0.000 A 
ATOM     22  C   UNL     1      -0.636  18.354  17.074  0.00  0.00    +0.000 A 
ATOM     23  C   UNL     1       0.543  18.631  16.385  0.00  0.00    +0.000 A 
ATOM     24  C   UNL     1       1.734  18.010  16.759  0.00  0.00    +0.000 A 
ATOM     25  C   UNL     1       1.748  17.115  17.829  0.00  0.00    +0.000 A 
ENDBRANCH  19  20
ENDBRANCH  15  19
ENDBRANCH   7  13
BRANCH   1  26
ATOM     26  O   UNL     1       3.189   5.164  19.707  0.00  0.00    +0.000 OA
BRANCH  26  27
ATOM     27  C   UNL     1       2.328   4.025  19.742  0.00  0.00    +0.000 C 
BRANCH  27  29
ATOM     28  C   UNL     1       2.538   3.315  17.329  0.00  0.00    +0.000 C 
ATOM     29  C   UNL     1       1.639   3.933  18.384  0.00  0.00    +0.000 C 
ENDBRANCH  27  29
ENDBRANCH  26  27
ENDBRANCH   1  26
TORSDOF 7
ENDMDL
