MODEL 1
REMARK VINA RESULT:      -8.0      0.000      0.000
REMARK  Name = 
REMARK  10 active torsions:
REMARK  status: ('A' for Active; 'I' for Inactive)
REMARK    1  A    between atoms: C_1  and  O_2
REMARK    2  A    between atoms: O_2  and  C_3
REMARK    3  A    between atoms: C_3  and  C_4
REMARK    4  A    between atoms: C_4  and  N_5
REMARK    5  A    between atoms: C_14  and  C_15
REMARK    6  A    between atoms: C_19  and  C_20
REMARK    7  A    between atoms: C_23  and  O_24
REMARK    8  A    between atoms: O_24  and  C_25
REMARK    9  A    between atoms: C_26  and  C_27
REMARK   10  A    between atoms: C_27  and  O_28
REMARK                            x       y       z     vdW  Elec       q    Type
REMARK                         _______ _______ _______ _____ _____    ______ ____
ROOT
ATOM      1  N   UNL     1       3.240   3.877  20.960  0.00  0.00    +0.000 N 
ATOM      2  C   UNL     1       3.297   4.947  20.082  0.00  0.00    +0.000 A 
ATOM      3  N   UNL     1       4.197   4.880  19.104  0.00  0.00    +0.000 NA
ATOM      4  C   UNL     1       4.293   5.890  18.218  0.00  0.00    +0.000 A 
ATOM      5  N   UNL     1       5.230   5.686  17.209  0.00  0.00    +0.000 N 
ATOM      6  C   UNL     1       5.045   6.282  15.876  0.00  0.00    +0.000 C 
ATOM      7  C   UNL     1       5.822   5.506  14.816  0.00  0.00    +0.000 C 
ATOM      8  O   UNL     1       7.217   5.488  15.141  0.00  0.00    +0.000 OA
ATOM      9  C   UNL     1       7.412   4.837  16.407  0.00  0.00    +0.000 C 
ATOM     10  C   UNL     1       6.675   5.557  17.571  0.00  0.00    +0.000 C 
ATOM     11  C   UNL     1       6.985   4.801  18.861  0.00  0.00    +0.000 C 
ATOM     12  C   UNL     1       3.408   6.986  18.310  0.00  0.00    +0.000 A 
ATOM     13  C   UNL     1       3.327   8.131  17.479  0.00  0.00    +0.000 A 
ATOM     14  C   UNL     1       2.338   9.078  17.652  0.00  0.00    +0.000 A 
ATOM     15  C   UNL     1       1.466   8.922  18.708  0.00  0.00    +0.000 A 
ATOM     16  N   UNL     1       1.567   7.870  19.548  0.00  0.00    +0.000 NA
ATOM     17  C   UNL     1       2.490   6.933  19.359  0.00  0.00    +0.000 A 
ATOM     18  N   UNL     1       2.448   5.951  20.226  0.00  0.00    +0.000 NA
ATOM     19  H   UNL     1       3.675   3.078  20.520  0.00  0.00    +0.000 HD
ENDROOT
BRANCH  15  20
ATOM     20  C   UNL     1       0.377   9.870  18.978  0.00  0.00    +0.000 A 
ATOM     21  C   UNL     1       0.452  10.790  20.029  0.00  0.00    +0.000 A 
ATOM     22  C   UNL     1      -0.581  11.692  20.274  0.00  0.00    +0.000 A 
ATOM     23  C   UNL     1      -1.736  11.679  19.491  0.00  0.00    +0.000 A 
ATOM     24  C   UNL     1      -1.841  10.779  18.421  0.00  0.00    +0.000 A 
ATOM     25  C   UNL     1      -0.781   9.885  18.184  0.00  0.00    +0.000 A 
BRANCH  23  26
ATOM     26  O   UNL     1      -2.790  12.534  19.710  0.00  0.00    +0.000 OA
ATOM     27  C   UNL     1      -2.692  13.313  20.902  0.00  0.00    +0.000 C 
ENDBRANCH  23  26
BRANCH  24  28
ATOM     28  C   UNL     1      -3.060  10.671  17.544  0.00  0.00    +0.000 C 
BRANCH  28  29
ATOM     29  O   UNL     1      -3.365  11.930  16.948  0.00  0.00    +0.000 OA
ATOM     30  H   UNL     1      -3.001  11.898  16.048  0.00  0.00    +0.000 HD
ENDBRANCH  28  29
ENDBRANCH  24  28
ENDBRANCH  15  20
BRANCH   1  31
ATOM     31  C   UNL     1       1.933   3.674  21.583  0.00  0.00    +0.000 C 
BRANCH  31  32
ATOM     32  C   UNL     1       1.171   2.509  20.942  0.00  0.00    +0.000 C 
BRANCH  32  34
ATOM     33  C   UNL     1       1.104   2.409  18.585  0.00  0.00    +0.000 C 
ATOM     34  O   UNL     1       0.507   2.945  19.755  0.00  0.00    +0.000 OA
ENDBRANCH  32  34
ENDBRANCH  31  32
ENDBRANCH   1  31
TORSDOF 7
ENDMDL
MODEL 2
REMARK VINA RESULT:      -7.9      0.816      1.706
REMARK  Name = 
REMARK  10 active torsions:
REMARK  status: ('A' for Active; 'I' for Inactive)
REMARK    1  A    between atoms: C_1  and  O_2
REMARK    2  A    between atoms: O_2  and  C_3
REMARK    3  A    between atoms: C_3  and  C_4
REMARK    4  A    between atoms: C_4  and  N_5
REMARK    5  A    between atoms: C_14  and  C_15
REMARK    6  A    between atoms: C_19  and  C_20
REMARK    7  A    between atoms: C_23  and  O_24
REMARK    8  A    between atoms: O_24  and  C_25
REMARK    9  A    between atoms: C_26  and  C_27
REMARK   10  A    between atoms: C_27  and  O_28
REMARK                            x       y       z     vdW  Elec       q    Type
REMARK                         _______ _______ _______ _____ _____    ______ ____
ROOT
ATOM      1  N   UNL     1       3.350   3.795  20.943  0.00  0.00    +0.000 N 
ATOM      2  C   UNL     1       3.382   4.879  20.082  0.00  0.00    +0.000 A 
ATOM      3  N   UNL     1       4.245   4.823  19.070  0.00  0.00    +0.000 NA
ATOM      4  C   UNL     1       4.314   5.847  18.197  0.00  0.00    +0.000 A 
ATOM      5  N   UNL     1       5.212   5.654  17.152  0.00  0.00    +0.000 N 
ATOM      6  C   UNL     1       4.982   6.273  15.837  0.00  0.00    +0.000 C 
ATOM      7  C   UNL     1       5.714   5.510  14.736  0.00  0.00    +0.000 C 
ATOM      8  O   UNL     1       7.120   5.478  15.008  0.00  0.00    +0.000 OA
ATOM      9  C   UNL     1       7.358   4.805  16.256  0.00  0.00    +0.000 C 
ATOM     10  C   UNL     1       6.669   5.510  17.458  0.00  0.00    +0.000 C 
ATOM     11  C   UNL     1       7.021   4.731  18.723  0.00  0.00    +0.000 C 
ATOM     12  C   UNL     1       3.441   6.947  18.340  0.00  0.00    +0.000 A 
ATOM     13  C   UNL     1       3.337   8.105  17.532  0.00  0.00    +0.000 A 
ATOM     14  C   UNL     1       2.361   9.055  17.756  0.00  0.00    +0.000 A 
ATOM     15  C   UNL     1       1.527   8.887  18.841  0.00  0.00    +0.000 A 
ATOM     16  N   UNL     1       1.652   7.821  19.660  0.00  0.00    +0.000 NA
ATOM     17  C   UNL     1       2.561   6.881  19.421  0.00  0.00    +0.000 A 
ATOM     18  N   UNL     1       2.545   5.886  20.273  0.00  0.00    +0.000 NA
ATOM     19  H   UNL     1       3.763   3.000  20.475  0.00  0.00    +0.000 HD
ENDROOT
BRANCH  15  20
ATOM     20  C   UNL     1       0.455   9.837  19.168  0.00  0.00    +0.000 A 
ATOM     21  C   UNL     1      -0.484  10.237  18.212  0.00  0.00    +0.000 A 
ATOM     22  C   UNL     1      -1.504  11.132  18.531  0.00  0.00    +0.000 A 
ATOM     23  C   UNL     1      -1.594  11.676  19.812  0.00  0.00    +0.000 A 
ATOM     24  C   UNL     1      -0.678  11.289  20.800  0.00  0.00    +0.000 A 
ATOM     25  C   UNL     1       0.336  10.376  20.459  0.00  0.00    +0.000 A 
BRANCH  23  26
ATOM     26  O   UNL     1      -2.568  12.579  20.167  0.00  0.00    +0.000 OA
ATOM     27  C   UNL     1      -3.849  12.337  19.585  0.00  0.00    +0.000 C 
ENDBRANCH  23  26
BRANCH  24  28
ATOM     28  C   UNL     1      -0.679  11.847  22.199  0.00  0.00    +0.000 C 
BRANCH  28  29
ATOM     29  O   UNL     1      -1.917  11.570  22.850  0.00  0.00    +0.000 OA
ATOM     30  H   UNL     1      -1.855  11.977  23.730  0.00  0.00    +0.000 HD
ENDBRANCH  28  29
ENDBRANCH  24  28
ENDBRANCH  15  20
BRANCH   1  31
ATOM     31  C   UNL     1       2.066   3.590  21.611  0.00  0.00    +0.000 C 
BRANCH  31  32
ATOM     32  C   UNL     1       1.255   2.467  20.954  0.00  0.00    +0.000 C 
BRANCH  32  34
ATOM     33  C   UNL     1       0.984   2.369  18.612  0.00  0.00    +0.000 C 
ATOM     34  O   UNL     1       0.544   2.967  19.820  0.00  0.00    +0.000 OA
ENDBRANCH  32  34
ENDBRANCH  31  32
ENDBRANCH   1  31
TORSDOF 7
ENDMDL
MODEL 3
REMARK VINA RESULT:      -7.5      3.003      9.452
REMARK  Name = 
REMARK  10 active torsions:
REMARK  status: ('A' for Active; 'I' for Inactive)
REMARK    1  A    between atoms: C_1  and  O_2
REMARK    2  A    between atoms: O_2  and  C_3
REMARK    3  A    between atoms: C_3  and  C_4
REMARK    4  A    between atoms: C_4  and  N_5
REMARK    5  A    between atoms: C_14  and  C_15
REMARK    6  A    between atoms: C_19  and  C_20
REMARK    7  A    between atoms: C_23  and  O_24
REMARK    8  A    between atoms: O_24  and  C_25
REMARK    9  A    between atoms: C_26  and  C_27
REMARK   10  A    between atoms: C_27  and  O_28
REMARK                            x       y       z     vdW  Elec       q    Type
REMARK                         _______ _______ _______ _____ _____    ______ ____
ROOT
ATOM      1  N   UNL     1      -1.991  11.914  17.051  0.00  0.00    +0.000 N 
ATOM      2  C   UNL     1      -1.314  11.522  18.195  0.00  0.00    +0.000 A 
ATOM      3  N   UNL     1      -1.476  12.274  19.281  0.00  0.00    +0.000 NA
ATOM      4  C   UNL     1      -0.846  11.936  20.423  0.00  0.00    +0.000 A 
ATOM      5  N   UNL     1      -1.131  12.763  21.505  0.00  0.00    +0.000 N 
ATOM      6  C   UNL     1      -1.103  12.241  22.881  0.00  0.00    +0.000 C 
ATOM      7  C   UNL     1      -1.963  13.095  23.809  0.00  0.00    +0.000 C 
ATOM      8  O   UNL     1      -1.499  14.450  23.804  0.00  0.00    +0.000 OA
ATOM      9  C   UNL     1      -1.598  14.991  22.476  0.00  0.00    +0.000 C 
ATOM     10  C   UNL     1      -0.741  14.205  21.444  0.00  0.00    +0.000 C 
ATOM     11  C   UNL     1      -0.896  14.891  20.088  0.00  0.00    +0.000 C 
ATOM     12  C   UNL     1      -0.060  10.764  20.467  0.00  0.00    +0.000 A 
ATOM     13  C   UNL     1       0.663  10.223  21.559  0.00  0.00    +0.000 A 
ATOM     14  C   UNL     1       1.315   9.010  21.461  0.00  0.00    +0.000 A 
ATOM     15  C   UNL     1       1.309   8.365  20.243  0.00  0.00    +0.000 A 
ATOM     16  N   UNL     1       0.678   8.896  19.174  0.00  0.00    +0.000 NA
ATOM     17  C   UNL     1       0.012  10.041  19.276  0.00  0.00    +0.000 A 
ATOM     18  N   UNL     1      -0.584  10.419  18.171  0.00  0.00    +0.000 NA
ATOM     19  H   UNL     1      -2.748  12.527  17.320  0.00  0.00    +0.000 HD
ENDROOT
BRANCH  15  20
ATOM     20  C   UNL     1       1.969   7.070  20.033  0.00  0.00    +0.000 A 
ATOM     21  C   UNL     1       3.019   6.923  19.121  0.00  0.00    +0.000 A 
ATOM     22  C   UNL     1       3.647   5.693  18.933  0.00  0.00    +0.000 A 
ATOM     23  C   UNL     1       3.220   4.565  19.634  0.00  0.00    +0.000 A 
ATOM     24  C   UNL     1       2.179   4.677  20.566  0.00  0.00    +0.000 A 
ATOM     25  C   UNL     1       1.567   5.930  20.748  0.00  0.00    +0.000 A 
BRANCH  23  26
ATOM     26  O   UNL     1       3.793   3.327  19.465  0.00  0.00    +0.000 OA
ATOM     27  C   UNL     1       3.680   2.789  18.148  0.00  0.00    +0.000 C 
ENDBRANCH  23  26
BRANCH  24  28
ATOM     28  C   UNL     1       1.631   3.508  21.343  0.00  0.00    +0.000 C 
BRANCH  28  29
ATOM     29  O   UNL     1       2.687   2.774  21.958  0.00  0.00    +0.000 OA
ATOM     30  H   UNL     1       2.688   3.034  22.894  0.00  0.00    +0.000 HD
ENDBRANCH  28  29
ENDBRANCH  24  28
ENDBRANCH  15  20
BRANCH   1  31
ATOM     31  C   UNL     1      -2.302  10.824  16.128  0.00  0.00    +0.000 C 
BRANCH  31  32
ATOM     32  C   UNL     1      -3.775  10.407  16.216  0.00  0.00    +0.000 C 
BRANCH  32  34
ATOM     33  C   UNL     1      -5.347  11.200  17.787  0.00  0.00    +0.000 C 
ATOM     34  O   UNL     1      -4.578  11.511  16.637  0.00  0.00    +0.000 OA
ENDBRANCH  32  34
ENDBRANCH  31  32
ENDBRANCH   1  31
TORSDOF 7
ENDMDL
MODEL 4
REMARK VINA RESULT:      -7.3      2.717      9.435
REMARK  Name = 
REMARK  10 active torsions:
REMARK  status: ('A' for Active; 'I' for Inactive)
REMARK    1  A    between atoms: C_1  and  O_2
REMARK    2  A    between atoms: O_2  and  C_3
REMARK    3  A    between atoms: C_3  and  C_4
REMARK    4  A    between atoms: C_4  and  N_5
REMARK    5  A    between atoms: C_14  and  C_15
REMARK    6  A    between atoms: C_19  and  C_20
REMARK    7  A    between atoms: C_23  and  O_24
REMARK    8  A    between atoms: O_24  and  C_25
REMARK    9  A    between atoms: C_26  and  C_27
REMARK   10  A    between atoms: C_27  and  O_28
REMARK                            x       y       z     vdW  Elec       q    Type
REMARK                         _______ _______ _______ _____ _____    ______ ____
ROOT
ATOM      1  N   UNL     1      -2.064  11.973  17.008  0.00  0.00    +0.000 N 
ATOM      2  C   UNL     1      -1.363  11.577  18.135  0.00  0.00    +0.000 A 
ATOM      3  N   UNL     1      -1.514  12.316  19.232  0.00  0.00    +0.000 NA
ATOM      4  C   UNL     1      -0.860  11.974  20.359  0.00  0.00    +0.000 A 
ATOM      5  N   UNL     1      -1.136  12.787  21.455  0.00  0.00    +0.000 N 
ATOM      6  C   UNL     1      -1.077  12.251  22.824  0.00  0.00    +0.000 C 
ATOM      7  C   UNL     1      -1.931  13.084  23.776  0.00  0.00    +0.000 C 
ATOM      8  O   UNL     1      -1.484  14.445  23.778  0.00  0.00    +0.000 OA
ATOM      9  C   UNL     1      -1.613  14.999  22.457  0.00  0.00    +0.000 C 
ATOM     10  C   UNL     1      -0.765  14.234  21.402  0.00  0.00    +0.000 C 
ATOM     11  C   UNL     1      -0.952  14.932  20.056  0.00  0.00    +0.000 C 
ATOM     12  C   UNL     1      -0.059  10.812  20.377  0.00  0.00    +0.000 A 
ATOM     13  C   UNL     1       0.690  10.269  21.450  0.00  0.00    +0.000 A 
ATOM     14  C   UNL     1       1.354   9.065  21.328  0.00  0.00    +0.000 A 
ATOM     15  C   UNL     1       1.335   8.433  20.104  0.00  0.00    +0.000 A 
ATOM     16  N   UNL     1       0.679   8.967  19.052  0.00  0.00    +0.000 NA
ATOM     17  C   UNL     1       0.000  10.103  19.177  0.00  0.00    +0.000 A 
ATOM     18  N   UNL     1      -0.620  10.484  18.087  0.00  0.00    +0.000 NA
ATOM     19  H   UNL     1      -2.823  12.574  17.297  0.00  0.00    +0.000 HD
ENDROOT
BRANCH  15  20
ATOM     20  C   UNL     1       2.007   7.148  19.868  0.00  0.00    +0.000 A 
ATOM     21  C   UNL     1       1.847   6.067  20.741  0.00  0.00    +0.000 A 
ATOM     22  C   UNL     1       2.481   4.849  20.507  0.00  0.00    +0.000 A 
ATOM     23  C   UNL     1       3.320   4.686  19.404  0.00  0.00    +0.000 A 
ATOM     24  C   UNL     1       3.494   5.743  18.500  0.00  0.00    +0.000 A 
ATOM     25  C   UNL     1       2.835   6.961  18.750  0.00  0.00    +0.000 A 
BRANCH  23  26
ATOM     26  O   UNL     1       3.983   3.511  19.144  0.00  0.00    +0.000 OA
ATOM     27  C   UNL     1       3.870   2.521  20.166  0.00  0.00    +0.000 C 
ENDBRANCH  23  26
BRANCH  24  28
ATOM     28  C   UNL     1       4.403   5.670  17.301  0.00  0.00    +0.000 C 
BRANCH  28  29
ATOM     29  O   UNL     1       5.715   5.270  17.689  0.00  0.00    +0.000 OA
ATOM     30  H   UNL     1       5.910   4.460  17.188  0.00  0.00    +0.000 HD
ENDBRANCH  28  29
ENDBRANCH  24  28
ENDBRANCH  15  20
BRANCH   1  31
ATOM     31  C   UNL     1      -2.378  10.889  16.079  0.00  0.00    +0.000 C 
BRANCH  31  32
ATOM     32  C   UNL     1      -3.891  10.682  15.937  0.00  0.00    +0.000 C 
BRANCH  32  34
ATOM     33  C   UNL     1      -5.380  11.341  17.645  0.00  0.00    +0.000 C 
ATOM     34  O   UNL     1      -4.599  11.766  16.540  0.00  0.00    +0.000 OA
ENDBRANCH  32  34
ENDBRANCH  31  32
ENDBRANCH   1  31
TORSDOF 7
ENDMDL
MODEL 5
REMARK VINA RESULT:      -7.3      2.811      9.435
REMARK  Name = 
REMARK  10 active torsions:
REMARK  status: ('A' for Active; 'I' for Inactive)
REMARK    1  A    between atoms: C_1  and  O_2
REMARK    2  A    between atoms: O_2  and  C_3
REMARK    3  A    between atoms: C_3  and  C_4
REMARK    4  A    between atoms: C_4  and  N_5
REMARK    5  A    between atoms: C_14  and  C_15
REMARK    6  A    between atoms: C_19  and  C_20
REMARK    7  A    between atoms: C_23  and  O_24
REMARK    8  A    between atoms: O_24  and  C_25
REMARK    9  A    between atoms: C_26  and  C_27
REMARK   10  A    between atoms: C_27  and  O_28
REMARK                            x       y       z     vdW  Elec       q    Type
REMARK                         _______ _______ _______ _____ _____    ______ ____
ROOT
ATOM      1  N   UNL     1      -2.172  12.007  17.062  0.00  0.00    +0.000 N 
ATOM      2  C   UNL     1      -1.533  11.581  18.215  0.00  0.00    +0.000 A 
ATOM      3  N   UNL     1      -1.815  12.236  19.340  0.00  0.00    +0.000 NA
ATOM      4  C   UNL     1      -1.227  11.860  20.493  0.00  0.00    +0.000 A 
ATOM      5  N   UNL     1      -1.637  12.580  21.611  0.00  0.00    +0.000 N 
ATOM      6  C   UNL     1      -1.647  11.960  22.945  0.00  0.00    +0.000 C 
ATOM      7  C   UNL     1      -2.623  12.674  23.875  0.00  0.00    +0.000 C 
ATOM      8  O   UNL     1      -2.268  14.057  23.995  0.00  0.00    +0.000 OA
ATOM      9  C   UNL     1      -2.333  14.688  22.705  0.00  0.00    +0.000 C 
ATOM     10  C   UNL     1      -1.360  14.048  21.676  0.00  0.00    +0.000 C 
ATOM     11  C   UNL     1      -1.491  14.820  20.365  0.00  0.00    +0.000 C 
ATOM     12  C   UNL     1      -0.354  10.750  20.503  0.00  0.00    +0.000 A 
ATOM     13  C   UNL     1       0.346  10.185  21.596  0.00  0.00    +0.000 A 
ATOM     14  C   UNL     1       1.096   9.035  21.454  0.00  0.00    +0.000 A 
ATOM     15  C   UNL     1       1.210   8.484  20.196  0.00  0.00    +0.000 A 
ATOM     16  N   UNL     1       0.602   9.046  19.130  0.00  0.00    +0.000 NA
ATOM     17  C   UNL     1      -0.158  10.127  19.270  0.00  0.00    +0.000 A 
ATOM     18  N   UNL     1      -0.718  10.541  18.159  0.00  0.00    +0.000 NA
ATOM     19  H   UNL     1      -2.990  12.540  17.327  0.00  0.00    +0.000 HD
ENDROOT
BRANCH  15  20
ATOM     20  C   UNL     1       1.982   7.261  19.936  0.00  0.00    +0.000 A 
ATOM     21  C   UNL     1       1.827   6.117  20.726  0.00  0.00    +0.000 A 
ATOM     22  C   UNL     1       2.557   4.958  20.468  0.00  0.00    +0.000 A 
ATOM     23  C   UNL     1       3.485   4.920  19.428  0.00  0.00    +0.000 A 
ATOM     24  C   UNL     1       3.657   6.044  18.607  0.00  0.00    +0.000 A 
ATOM     25  C   UNL     1       2.903   7.200  18.878  0.00  0.00    +0.000 A 
BRANCH  23  26
ATOM     26  O   UNL     1       4.243   3.808  19.150  0.00  0.00    +0.000 OA
ATOM     27  C   UNL     1       3.537   2.569  19.222  0.00  0.00    +0.000 C 
ENDBRANCH  23  26
BRANCH  24  28
ATOM     28  C   UNL     1       4.657   6.106  17.483  0.00  0.00    +0.000 C 
BRANCH  28  29
ATOM     29  O   UNL     1       4.505   4.988  16.611  0.00  0.00    +0.000 OA
ATOM     30  H   UNL     1       3.656   4.576  16.846  0.00  0.00    +0.000 HD
ENDBRANCH  28  29
ENDBRANCH  24  28
ENDBRANCH  15  20
BRANCH   1  31
ATOM     31  C   UNL     1      -2.344  10.970  16.047  0.00  0.00    +0.000 C 
BRANCH  31  32
ATOM     32  C   UNL     1      -3.811  10.549  15.905  0.00  0.00    +0.000 C 
BRANCH  32  34
ATOM     33  C   UNL     1      -2.904   9.857  13.839  0.00  0.00    +0.000 C 
ATOM     34  O   UNL     1      -4.088  10.164  14.557  0.00  0.00    +0.000 OA
ENDBRANCH  32  34
ENDBRANCH  31  32
ENDBRANCH   1  31
TORSDOF 7
ENDMDL
MODEL 6
REMARK VINA RESULT:      -7.0      2.777      9.287
REMARK  Name = 
REMARK  10 active torsions:
REMARK  status: ('A' for Active; 'I' for Inactive)
REMARK    1  A    between atoms: C_1  and  O_2
REMARK    2  A    between atoms: O_2  and  C_3
REMARK    3  A    between atoms: C_3  and  C_4
REMARK    4  A    between atoms: C_4  and  N_5
REMARK    5  A    between atoms: C_14  and  C_15
REMARK    6  A    between atoms: C_19  and  C_20
REMARK    7  A    between atoms: C_23  and  O_24
REMARK    8  A    between atoms: O_24  and  C_25
REMARK    9  A    between atoms: C_26  and  C_27
REMARK   10  A    between atoms: C_27  and  O_28
REMARK                            x       y       z     vdW  Elec       q    Type
REMARK                         _______ _______ _______ _____ _____    ______ ____
ROOT
ATOM      1  N   UNL     1      -2.482  11.166  16.480  0.00  0.00    +0.000 N 
ATOM      2  C   UNL     1      -1.597  10.799  17.481  0.00  0.00    +0.000 A 
ATOM      3  N   UNL     1      -1.759  11.373  18.671  0.00  0.00    +0.000 NA
ATOM      4  C   UNL     1      -0.930  11.049  19.683  0.00  0.00    +0.000 A 
ATOM      5  N   UNL     1      -1.228  11.670  20.893  0.00  0.00    +0.000 N 
ATOM      6  C   UNL     1      -0.916  11.014  22.173  0.00  0.00    +0.000 C 
ATOM      7  C   UNL     1      -1.798  11.555  23.295  0.00  0.00    +0.000 C 
ATOM      8  O   UNL     1      -1.616  12.969  23.428  0.00  0.00    +0.000 OA
ATOM      9  C   UNL     1      -1.994  13.624  22.205  0.00  0.00    +0.000 C 
ATOM     10  C   UNL     1      -1.143  13.159  20.990  0.00  0.00    +0.000 C 
ATOM     11  C   UNL     1      -1.607  13.945  19.765  0.00  0.00    +0.000 C 
ATOM     12  C   UNL     1       0.071  10.074  19.482  0.00  0.00    +0.000 A 
ATOM     13  C   UNL     1       1.023   9.580  20.407  0.00  0.00    +0.000 A 
ATOM     14  C   UNL     1       1.883   8.553  20.075  0.00  0.00    +0.000 A 
ATOM     15  C   UNL     1       1.845   8.063  18.787  0.00  0.00    +0.000 A 
ATOM     16  N   UNL     1       0.987   8.564  17.874  0.00  0.00    +0.000 NA
ATOM     17  C   UNL     1       0.126   9.523  18.202  0.00  0.00    +0.000 A 
ATOM     18  N   UNL     1      -0.673   9.887  17.229  0.00  0.00    +0.000 NA
ATOM     19  H   UNL     1      -3.303  11.569  16.910  0.00  0.00    +0.000 HD
ENDROOT
BRANCH  15  20
ATOM     20  C   UNL     1       2.715   6.969  18.332  0.00  0.00    +0.000 A 
ATOM     21  C   UNL     1       3.836   7.212  17.533  0.00  0.00    +0.000 A 
ATOM     22  C   UNL     1       4.662   6.170  17.112  0.00  0.00    +0.000 A 
ATOM     23  C   UNL     1       4.370   4.850  17.456  0.00  0.00    +0.000 A 
ATOM     24  C   UNL     1       3.261   4.571  18.268  0.00  0.00    +0.000 A 
ATOM     25  C   UNL     1       2.448   5.638  18.690  0.00  0.00    +0.000 A 
BRANCH  23  26
ATOM     26  O   UNL     1       5.142   3.790  17.046  0.00  0.00    +0.000 OA
ATOM     27  C   UNL     1       5.818   3.985  15.804  0.00  0.00    +0.000 C 
ENDBRANCH  23  26
BRANCH  24  28
ATOM     28  C   UNL     1       2.851   3.177  18.663  0.00  0.00    +0.000 C 
BRANCH  28  29
ATOM     29  O   UNL     1       2.548   2.396  17.509  0.00  0.00    +0.000 OA
ATOM     30  H   UNL     1       2.954   1.525  17.658  0.00  0.00    +0.000 HD
ENDBRANCH  28  29
ENDBRANCH  24  28
ENDBRANCH  15  20
BRANCH   1  31
ATOM     31  C   UNL     1      -2.691  10.145  15.454  0.00  0.00    +0.000 C 
BRANCH  31  32
ATOM     32  C   UNL     1      -3.800  10.544  14.472  0.00  0.00    +0.000 C 
BRANCH  32  34
ATOM     33  C   UNL     1      -4.736   9.814  12.433  0.00  0.00    +0.000 C 
ATOM     34  O   UNL     1      -3.545   9.984  13.183  0.00  0.00    +0.000 OA
ENDBRANCH  32  34
ENDBRANCH  31  32
ENDBRANCH   1  31
TORSDOF 7
ENDMDL
MODEL 7
REMARK VINA RESULT:      -6.8      3.847     10.140
REMARK  Name = 
REMARK  10 active torsions:
REMARK  status: ('A' for Active; 'I' for Inactive)
REMARK    1  A    between atoms: C_1  and  O_2
REMARK    2  A    between atoms: O_2  and  C_3
REMARK    3  A    between atoms: C_3  and  C_4
REMARK    4  A    between atoms: C_4  and  N_5
REMARK    5  A    between atoms: C_14  and  C_15
REMARK    6  A    between atoms: C_19  and  C_20
REMARK    7  A    between atoms: C_23  and  O_24
REMARK    8  A    between atoms: O_24  and  C_25
REMARK    9  A    between atoms: C_26  and  C_27
REMARK   10  A    between atoms: C_27  and  O_28
REMARK                            x       y       z     vdW  Elec       q    Type
REMARK                         _______ _______ _______ _____ _____    ______ ____
ROOT
ATOM      1  N   UNL     1       1.237  15.056  19.915  0.00  0.00    +0.000 N 
ATOM      2  C   UNL     1       0.753  13.907  20.518  0.00  0.00    +0.000 A 
ATOM      3  N   UNL     1      -0.239  14.055  21.393  0.00  0.00    +0.000 NA
ATOM      4  C   UNL     1      -0.753  12.970  22.006  0.00  0.00    +0.000 A 
ATOM      5  N   UNL     1      -1.820  13.240  22.858  0.00  0.00    +0.000 N 
ATOM      6  C   UNL     1      -2.875  12.240  23.084  0.00  0.00    +0.000 C 
ATOM      7  C   UNL     1      -4.169  12.903  23.549  0.00  0.00    +0.000 C 
ATOM      8  O   UNL     1      -3.940  13.637  24.758  0.00  0.00    +0.000 OA
ATOM      9  C   UNL     1      -2.966  14.667  24.524  0.00  0.00    +0.000 C 
ATOM     10  C   UNL     1      -1.595  14.101  24.059  0.00  0.00    +0.000 C 
ATOM     11  C   UNL     1      -0.638  15.278  23.880  0.00  0.00    +0.000 C 
ATOM     12  C   UNL     1      -0.264  11.687  21.680  0.00  0.00    +0.000 A 
ATOM     13  C   UNL     1      -0.673  10.429  22.187  0.00  0.00    +0.000 A 
ATOM     14  C   UNL     1      -0.151   9.250  21.694  0.00  0.00    +0.000 A 
ATOM     15  C   UNL     1       0.841   9.326  20.740  0.00  0.00    +0.000 A 
ATOM     16  N   UNL     1       1.287  10.517  20.290  0.00  0.00    +0.000 NA
ATOM     17  C   UNL     1       0.756  11.654  20.729  0.00  0.00    +0.000 A 
ATOM     18  N   UNL     1       1.259  12.732  20.178  0.00  0.00    +0.000 NA
ATOM     19  H   UNL     1       0.540  15.782  20.002  0.00  0.00    +0.000 HD
ENDROOT
BRANCH  15  20
ATOM     20  C   UNL     1       1.461   8.132  20.148  0.00  0.00    +0.000 A 
ATOM     21  C   UNL     1       2.104   8.181  18.908  0.00  0.00    +0.000 A 
ATOM     22  C   UNL     1       2.697   7.046  18.357  0.00  0.00    +0.000 A 
ATOM     23  C   UNL     1       2.638   5.821  19.021  0.00  0.00    +0.000 A 
ATOM     24  C   UNL     1       2.013   5.738  20.273  0.00  0.00    +0.000 A 
ATOM     25  C   UNL     1       1.430   6.897  20.816  0.00  0.00    +0.000 A 
BRANCH  23  26
ATOM     26  O   UNL     1       3.189   4.672  18.507  0.00  0.00    +0.000 OA
ATOM     27  C   UNL     1       4.080   4.873  17.411  0.00  0.00    +0.000 C 
ENDBRANCH  23  26
BRANCH  24  28
ATOM     28  C   UNL     1       1.872   4.453  21.047  0.00  0.00    +0.000 C 
BRANCH  28  29
ATOM     29  O   UNL     1       0.824   3.653  20.508  0.00  0.00    +0.000 OA
ATOM     30  H   UNL     1       0.551   4.085  19.681  0.00  0.00    +0.000 HD
ENDBRANCH  28  29
ENDBRANCH  24  28
ENDBRANCH  15  20
BRANCH   1  31
ATOM     31  C   UNL     1       1.828  14.844  18.595  0.00  0.00    +0.000 C 
BRANCH  31  32
ATOM     32  C   UNL     1       3.147  15.607  18.432  0.00  0.00    +0.000 C 
BRANCH  32  34
ATOM     33  C   UNL     1       5.364  14.941  17.971  0.00  0.00    +0.000 C 
ATOM     34  O   UNL     1       4.015  14.911  17.535  0.00  0.00    +0.000 OA
ENDBRANCH  32  34
ENDBRANCH  31  32
ENDBRANCH   1  31
TORSDOF 7
ENDMDL
MODEL 8
REMARK VINA RESULT:      -6.8      2.794      9.419
REMARK  Name = 
REMARK  10 active torsions:
REMARK  status: ('A' for Active; 'I' for Inactive)
REMARK    1  A    between atoms: C_1  and  O_2
REMARK    2  A    between atoms: O_2  and  C_3
REMARK    3  A    between atoms: C_3  and  C_4
REMARK    4  A    between atoms: C_4  and  N_5
REMARK    5  A    between atoms: C_14  and  C_15
REMARK    6  A    between atoms: C_19  and  C_20
REMARK    7  A    between atoms: C_23  and  O_24
REMARK    8  A    between atoms: O_24  and  C_25
REMARK    9  A    between atoms: C_26  and  C_27
REMARK   10  A    between atoms: C_27  and  O_28
REMARK                            x       y       z     vdW  Elec       q    Type
REMARK                         _______ _______ _______ _____ _____    ______ ____
ROOT
ATOM      1  N   UNL     1      -2.320  11.833  16.739  0.00  0.00    +0.000 N 
ATOM      2  C   UNL     1      -1.593  11.408  17.839  0.00  0.00    +0.000 A 
ATOM      3  N   UNL     1      -1.857  11.997  19.003  0.00  0.00    +0.000 NA
ATOM      4  C   UNL     1      -1.184  11.620  20.107  0.00  0.00    +0.000 A 
ATOM      5  N   UNL     1      -1.581  12.265  21.274  0.00  0.00    +0.000 N 
ATOM      6  C   UNL     1      -1.476  11.594  22.579  0.00  0.00    +0.000 C 
ATOM      7  C   UNL     1      -2.447  12.202  23.588  0.00  0.00    +0.000 C 
ATOM      8  O   UNL     1      -2.181  13.601  23.748  0.00  0.00    +0.000 OA
ATOM      9  C   UNL     1      -2.359  14.275  22.491  0.00  0.00    +0.000 C 
ATOM     10  C   UNL     1      -1.401  13.745  21.386  0.00  0.00    +0.000 C 
ATOM     11  C   UNL     1      -1.654  14.557  20.118  0.00  0.00    +0.000 C 
ATOM     12  C   UNL     1      -0.238  10.574  20.025  0.00  0.00    +0.000 A 
ATOM     13  C   UNL     1       0.556  10.017  21.057  0.00  0.00    +0.000 A 
ATOM     14  C   UNL     1       1.374   8.929  20.828  0.00  0.00    +0.000 A 
ATOM     15  C   UNL     1       1.458   8.437  19.543  0.00  0.00    +0.000 A 
ATOM     16  N   UNL     1       0.756   8.995  18.534  0.00  0.00    +0.000 NA
ATOM     17  C   UNL     1      -0.067  10.014  18.759  0.00  0.00    +0.000 A 
ATOM     18  N   UNL     1      -0.713  10.430  17.697  0.00  0.00    +0.000 NA
ATOM     19  H   UNL     1      -3.156  12.296  17.067  0.00  0.00    +0.000 HD
ENDROOT
BRANCH  15  20
ATOM     20  C   UNL     1       2.296   7.282  19.193  0.00  0.00    +0.000 A 
ATOM     21  C   UNL     1       3.255   7.355  18.178  0.00  0.00    +0.000 A 
ATOM     22  C   UNL     1       4.052   6.257  17.857  0.00  0.00    +0.000 A 
ATOM     23  C   UNL     1       3.891   5.043  18.526  0.00  0.00    +0.000 A 
ATOM     24  C   UNL     1       2.949   4.937  19.558  0.00  0.00    +0.000 A 
ATOM     25  C   UNL     1       2.162   6.061  19.873  0.00  0.00    +0.000 A 
BRANCH  23  26
ATOM     26  O   UNL     1       4.638   3.929  18.229  0.00  0.00    +0.000 OA
ATOM     27  C   UNL     1       5.510   4.073  17.108  0.00  0.00    +0.000 C 
ENDBRANCH  23  26
BRANCH  24  28
ATOM     28  C   UNL     1       2.683   3.661  20.313  0.00  0.00    +0.000 C 
BRANCH  28  29
ATOM     29  O   UNL     1       2.246   3.943  21.640  0.00  0.00    +0.000 OA
ATOM     30  H   UNL     1       1.493   3.352  21.808  0.00  0.00    +0.000 HD
ENDBRANCH  28  29
ENDBRANCH  24  28
ENDBRANCH  15  20
BRANCH   1  31
ATOM     31  C   UNL     1      -2.475  10.825  15.690  0.00  0.00    +0.000 C 
BRANCH  31  32
ATOM     32  C   UNL     1      -3.873  10.870  15.060  0.00  0.00    +0.000 C 
BRANCH  32  34
ATOM     33  C   UNL     1      -4.000   9.843  12.939  0.00  0.00    +0.000 C 
ATOM     34  O   UNL     1      -4.130   9.663  14.340  0.00  0.00    +0.000 OA
ENDBRANCH  32  34
ENDBRANCH  31  32
ENDBRANCH   1  31
TORSDOF 7
ENDMDL
MODEL 9
REMARK VINA RESULT:      -6.7      2.653      9.214
REMARK  Name = 
REMARK  10 active torsions:
REMARK  status: ('A' for Active; 'I' for Inactive)
REMARK    1  A    between atoms: C_1  and  O_2
REMARK    2  A    between atoms: O_2  and  C_3
REMARK    3  A    between atoms: C_3  and  C_4
REMARK    4  A    between atoms: C_4  and  N_5
REMARK    5  A    between atoms: C_14  and  C_15
REMARK    6  A    between atoms: C_19  and  C_20
REMARK    7  A    between atoms: C_23  and  O_24
REMARK    8  A    between atoms: O_24  and  C_25
REMARK    9  A    between atoms: C_26  and  C_27
REMARK   10  A    between atoms: C_27  and  O_28
REMARK                            x       y       z     vdW  Elec       q    Type
REMARK                         _______ _______ _______ _____ _____    ______ ____
ROOT
ATOM      1  N   UNL     1      -2.333  11.892  16.715  0.00  0.00    +0.000 N 
ATOM      2  C   UNL     1      -1.486  11.385  17.687  0.00  0.00    +0.000 A 
ATOM      3  N   UNL     1      -1.594  11.899  18.910  0.00  0.00    +0.000 NA
ATOM      4  C   UNL     1      -0.799  11.439  19.897  0.00  0.00    +0.000 A 
ATOM      5  N   UNL     1      -1.037  12.012  21.143  0.00  0.00    +0.000 N 
ATOM      6  C   UNL     1      -0.789  11.255  22.380  0.00  0.00    +0.000 C 
ATOM      7  C   UNL     1      -1.615  11.809  23.537  0.00  0.00    +0.000 C 
ATOM      8  O   UNL     1      -1.301  13.190  23.752  0.00  0.00    +0.000 OA
ATOM      9  C   UNL     1      -1.615  13.948  22.572  0.00  0.00    +0.000 C 
ATOM     10  C   UNL     1      -0.811  13.479  21.327  0.00  0.00    +0.000 C 
ATOM     11  C   UNL     1      -1.199  14.376  20.153  0.00  0.00    +0.000 C 
ATOM     12  C   UNL     1       0.105  10.388  19.633  0.00  0.00    +0.000 A 
ATOM     13  C   UNL     1       1.007   9.752  20.521  0.00  0.00    +0.000 A 
ATOM     14  C   UNL     1       1.766   8.670  20.124  0.00  0.00    +0.000 A 
ATOM     15  C   UNL     1       1.681   8.263  18.810  0.00  0.00    +0.000 A 
ATOM     16  N   UNL     1       0.874   8.897  17.933  0.00  0.00    +0.000 NA
ATOM     17  C   UNL     1       0.108   9.911  18.322  0.00  0.00    +0.000 A 
ATOM     18  N   UNL     1      -0.653  10.405  17.376  0.00  0.00    +0.000 NA
ATOM     19  H   UNL     1      -3.112  12.344  17.172  0.00  0.00    +0.000 HD
ENDROOT
BRANCH  15  20
ATOM     20  C   UNL     1       2.444   7.121  18.286  0.00  0.00    +0.000 A 
ATOM     21  C   UNL     1       3.703   7.289  17.701  0.00  0.00    +0.000 A 
ATOM     22  C   UNL     1       4.424   6.201  17.214  0.00  0.00    +0.000 A 
ATOM     23  C   UNL     1       3.891   4.913  17.273  0.00  0.00    +0.000 A 
ATOM     24  C   UNL     1       2.637   4.705  17.865  0.00  0.00    +0.000 A 
ATOM     25  C   UNL     1       1.931   5.816  18.360  0.00  0.00    +0.000 A 
BRANCH  23  26
ATOM     26  O   UNL     1       4.555   3.813  16.786  0.00  0.00    +0.000 OA
ATOM     27  C   UNL     1       5.698   4.110  15.984  0.00  0.00    +0.000 C 
ENDBRANCH  23  26
BRANCH  24  28
ATOM     28  C   UNL     1       1.970   3.357  17.944  0.00  0.00    +0.000 C 
BRANCH  28  29
ATOM     29  O   UNL     1       1.267   3.215  19.175  0.00  0.00    +0.000 OA
ATOM     30  H   UNL     1       1.209   4.107  19.558  0.00  0.00    +0.000 HD
ENDBRANCH  28  29
ENDBRANCH  24  28
ENDBRANCH  15  20
BRANCH   1  31
ATOM     31  C   UNL     1      -2.637  10.959  15.631  0.00  0.00    +0.000 C 
BRANCH  31  32
ATOM     32  C   UNL     1      -4.085  10.458  15.700  0.00  0.00    +0.000 C 
BRANCH  32  34
ATOM     33  C   UNL     1      -5.244  10.746  17.736  0.00  0.00    +0.000 C 
ATOM     34  O   UNL     1      -4.876  11.339  16.501  0.00  0.00    +0.000 OA
ENDBRANCH  32  34
ENDBRANCH  31  32
ENDBRANCH   1  31
TORSDOF 7
ENDMDL
