MODEL 1
REMARK VINA RESULT:      -9.4      0.000      0.000
REMARK  Name = 
REMARK  3 active torsions:
REMARK  status: ('A' for Active; 'I' for Inactive)
REMARK    1  A    between atoms: N_1  and  C_2
REMARK    2  A    between atoms: C_6  and  C_7
REMARK    3  A    between atoms: C_10  and  C_11
REMARK                            x       y       z     vdW  Elec       q    Type
REMARK                         _______ _______ _______ _____ _____    ______ ____
ROOT
ATOM      1  C   UNL     1       2.216   6.887  20.077  0.00  0.00    +0.000 A 
ATOM      2  C   UNL     1       3.353   6.566  19.352  0.00  0.00    +0.000 A 
ATOM      3  C   UNL     1       3.653   5.184  19.540  0.00  0.00    +0.000 A 
ATOM      4  C   UNL     1       4.652   4.273  19.128  0.00  0.00    +0.000 A 
ATOM      5  C   UNL     1       4.538   2.953  19.583  0.00  0.00    +0.000 A 
ATOM      6  C   UNL     1       3.450   2.594  20.368  0.00  0.00    +0.000 A 
ATOM      7  N   UNL     1       2.468   3.423  20.776  0.00  0.00    +0.000 NA
ATOM      8  C   UNL     1       2.635   4.685  20.343  0.00  0.00    +0.000 A 
ATOM      9  N   UNL     1       1.785   5.709  20.648  0.00  0.00    +0.000 N 
ATOM     10  H   UNL     1       0.957   5.590  21.210  0.00  0.00    +0.000 HD
ENDROOT
BRANCH   4  11
ATOM     11  C   UNL     1       5.750   4.727  18.290  0.00  0.00    +0.000 A 
ATOM     12  C   UNL     1       6.954   5.381  18.652  0.00  0.00    +0.000 A 
ATOM     13  N   UNL     1       7.727   5.680  17.609  0.00  0.00    +0.000 NA
ATOM     14  N   UNL     1       7.044   5.208  16.557  0.00  0.00    +0.000 N 
ATOM     15  N   UNL     1       7.566   5.338  15.316  0.00  0.00    +0.000 NA
ATOM     16  C   UNL     1       6.809   4.835  14.398  0.00  0.00    +0.000 A 
ATOM     17  C   UNL     1       5.497   4.179  14.603  0.00  0.00    +0.000 A 
ATOM     18  C   UNL     1       5.043   4.105  15.859  0.00  0.00    +0.000 A 
ATOM     19  C   UNL     1       5.840   4.620  16.912  0.00  0.00    +0.000 A 
ENDBRANCH   4  11
BRANCH   1  24
ATOM     20  C   UNL     1       0.720  10.286  19.326  0.00  0.00    +0.000 A 
ATOM     21  C   UNL     1       0.232  10.632  20.586  0.00  0.00    +0.000 A 
ATOM     22  C   UNL     1       0.326   9.739  21.654  0.00  0.00    +0.000 A 
ATOM     23  C   UNL     1       0.958   8.507  21.480  0.00  0.00    +0.000 A 
ATOM     24  C   UNL     1       1.519   8.164  20.244  0.00  0.00    +0.000 A 
ATOM     25  C   UNL     1       1.401   9.071  19.178  0.00  0.00    +0.000 A 
BRANCH  20  26
ATOM     26  N   UNL     1       0.738  11.228  18.291  0.00  0.00    +0.000 N 
ATOM     27  H   UNL     1      -0.083  11.825  18.272  0.00  0.00    +0.000 HD
ATOM     28  H   UNL     1       0.945  10.835  17.378  0.00  0.00    +0.000 HD
ENDBRANCH  20  26
ENDBRANCH   1  24
TORSDOF 3
ENDMDL
MODEL 2
REMARK VINA RESULT:      -9.4      1.076      1.445
REMARK  Name = 
REMARK  3 active torsions:
REMARK  status: ('A' for Active; 'I' for Inactive)
REMARK    1  A    between atoms: N_1  and  C_2
REMARK    2  A    between atoms: C_6  and  C_7
REMARK    3  A    between atoms: C_10  and  C_11
REMARK                            x       y       z     vdW  Elec       q    Type
REMARK                         _______ _______ _______ _____ _____    ______ ____
ROOT
ATOM      1  C   UNL     1       2.163   6.866  20.208  0.00  0.00    +0.000 A 
ATOM      2  C   UNL     1       3.288   6.621  19.436  0.00  0.00    +0.000 A 
ATOM      3  C   UNL     1       3.641   5.244  19.549  0.00  0.00    +0.000 A 
ATOM      4  C   UNL     1       4.657   4.389  19.065  0.00  0.00    +0.000 A 
ATOM      5  C   UNL     1       4.603   3.046  19.460  0.00  0.00    +0.000 A 
ATOM      6  C   UNL     1       3.552   2.612  20.257  0.00  0.00    +0.000 A 
ATOM      7  N   UNL     1       2.555   3.385  20.731  0.00  0.00    +0.000 NA
ATOM      8  C   UNL     1       2.665   4.672  20.355  0.00  0.00    +0.000 A 
ATOM      9  N   UNL     1       1.790   5.649  20.733  0.00  0.00    +0.000 N 
ATOM     10  H   UNL     1       0.984   5.474  21.313  0.00  0.00    +0.000 HD
ENDROOT
BRANCH   4  11
ATOM     11  C   UNL     1       5.714   4.922  18.220  0.00  0.00    +0.000 A 
ATOM     12  C   UNL     1       6.814   5.748  18.557  0.00  0.00    +0.000 A 
ATOM     13  N   UNL     1       7.573   6.071  17.511  0.00  0.00    +0.000 NA
ATOM     14  N   UNL     1       6.987   5.442  16.483  0.00  0.00    +0.000 N 
ATOM     15  N   UNL     1       7.526   5.552  15.247  0.00  0.00    +0.000 NA
ATOM     16  C   UNL     1       6.866   4.893  14.353  0.00  0.00    +0.000 A 
ATOM     17  C   UNL     1       5.643   4.090  14.578  0.00  0.00    +0.000 A 
ATOM     18  C   UNL     1       5.164   4.046  15.826  0.00  0.00    +0.000 A 
ATOM     19  C   UNL     1       5.858   4.731  16.855  0.00  0.00    +0.000 A 
ENDBRANCH   4  11
BRANCH   1  24
ATOM     20  C   UNL     1       0.097   9.534  21.931  0.00  0.00    +0.000 A 
ATOM     21  C   UNL     1      -0.024  10.466  20.900  0.00  0.00    +0.000 A 
ATOM     22  C   UNL     1       0.619  10.262  19.679  0.00  0.00    +0.000 A 
ATOM     23  C   UNL     1       1.349   9.093  19.462  0.00  0.00    +0.000 A 
ATOM     24  C   UNL     1       1.428   8.109  20.455  0.00  0.00    +0.000 A 
ATOM     25  C   UNL     1       0.786   8.341  21.682  0.00  0.00    +0.000 A 
BRANCH  20  26
ATOM     26  N   UNL     1      -0.649   9.680  23.107  0.00  0.00    +0.000 N 
ATOM     27  H   UNL     1      -1.556  10.111  22.961  0.00  0.00    +0.000 HD
ATOM     28  H   UNL     1      -0.138  10.117  23.868  0.00  0.00    +0.000 HD
ENDBRANCH  20  26
ENDBRANCH   1  24
TORSDOF 3
ENDMDL
MODEL 3
REMARK VINA RESULT:      -8.8      1.302      1.522
REMARK  Name = 
REMARK  3 active torsions:
REMARK  status: ('A' for Active; 'I' for Inactive)
REMARK    1  A    between atoms: N_1  and  C_2
REMARK    2  A    between atoms: C_6  and  C_7
REMARK    3  A    between atoms: C_10  and  C_11
REMARK                            x       y       z     vdW  Elec       q    Type
REMARK                         _______ _______ _______ _____ _____    ______ ____
ROOT
ATOM      1  C   UNL     1       2.413   6.662  18.959  0.00  0.00    +0.000 A 
ATOM      2  C   UNL     1       3.503   6.445  18.130  0.00  0.00    +0.000 A 
ATOM      3  C   UNL     1       3.678   5.041  17.947  0.00  0.00    +0.000 A 
ATOM      4  C   UNL     1       4.581   4.186  17.275  0.00  0.00    +0.000 A 
ATOM      5  C   UNL     1       4.355   2.808  17.384  0.00  0.00    +0.000 A 
ATOM      6  C   UNL     1       3.254   2.351  18.095  0.00  0.00    +0.000 A 
ATOM      7  N   UNL     1       2.360   3.127  18.741  0.00  0.00    +0.000 NA
ATOM      8  C   UNL     1       2.633   4.439  18.637  0.00  0.00    +0.000 A 
ATOM      9  N   UNL     1       1.886   5.418  19.228  0.00  0.00    +0.000 N 
ATOM     10  H   UNL     1       1.061   5.228  19.775  0.00  0.00    +0.000 HD
ENDROOT
BRANCH   4  11
ATOM     11  C   UNL     1       5.701   4.748  16.537  0.00  0.00    +0.000 A 
ATOM     12  C   UNL     1       6.711   5.644  16.966  0.00  0.00    +0.000 A 
ATOM     13  N   UNL     1       7.570   5.973  16.003  0.00  0.00    +0.000 NA
ATOM     14  N   UNL     1       7.141   5.279  14.940  0.00  0.00    +0.000 N 
ATOM     15  N   UNL     1       7.815   5.376  13.771  0.00  0.00    +0.000 NA
ATOM     16  C   UNL     1       7.299   4.653  12.833  0.00  0.00    +0.000 A 
ATOM     17  C   UNL     1       6.099   3.792  12.947  0.00  0.00    +0.000 A 
ATOM     18  C   UNL     1       5.481   3.763  14.133  0.00  0.00    +0.000 A 
ATOM     19  C   UNL     1       6.013   4.520  15.206  0.00  0.00    +0.000 A 
ENDBRANCH   4  11
BRANCH   1  24
ATOM     20  C   UNL     1       1.072  10.202  19.118  0.00  0.00    +0.000 A 
ATOM     21  C   UNL     1       0.791  10.306  20.480  0.00  0.00    +0.000 A 
ATOM     22  C   UNL     1       0.970   9.212  21.328  0.00  0.00    +0.000 A 
ATOM     23  C   UNL     1       1.482   8.016  20.824  0.00  0.00    +0.000 A 
ATOM     24  C   UNL     1       1.839   7.907  19.474  0.00  0.00    +0.000 A 
ATOM     25  C   UNL     1       1.637   9.015  18.635  0.00  0.00    +0.000 A 
BRANCH  20  26
ATOM     26  N   UNL     1       1.011  11.333  18.295  0.00  0.00    +0.000 N 
ATOM     27  H   UNL     1       1.904  11.802  18.184  0.00  0.00    +0.000 HD
ATOM     28  H   UNL     1       0.268  11.981  18.539  0.00  0.00    +0.000 HD
ENDBRANCH  20  26
ENDBRANCH   1  24
TORSDOF 3
ENDMDL
MODEL 4
REMARK VINA RESULT:      -8.8      1.549      1.911
REMARK  Name = 
REMARK  3 active torsions:
REMARK  status: ('A' for Active; 'I' for Inactive)
REMARK    1  A    between atoms: N_1  and  C_2
REMARK    2  A    between atoms: C_6  and  C_7
REMARK    3  A    between atoms: C_10  and  C_11
REMARK                            x       y       z     vdW  Elec       q    Type
REMARK                         _______ _______ _______ _____ _____    ______ ____
ROOT
ATOM      1  C   UNL     1       2.334   6.751  19.174  0.00  0.00    +0.000 A 
ATOM      2  C   UNL     1       3.425   6.532  18.346  0.00  0.00    +0.000 A 
ATOM      3  C   UNL     1       3.594   5.128  18.158  0.00  0.00    +0.000 A 
ATOM      4  C   UNL     1       4.495   4.271  17.485  0.00  0.00    +0.000 A 
ATOM      5  C   UNL     1       4.262   2.894  17.588  0.00  0.00    +0.000 A 
ATOM      6  C   UNL     1       3.156   2.440  18.296  0.00  0.00    +0.000 A 
ATOM      7  N   UNL     1       2.265   3.217  18.942  0.00  0.00    +0.000 NA
ATOM      8  C   UNL     1       2.545   4.529  18.844  0.00  0.00    +0.000 A 
ATOM      9  N   UNL     1       1.801   5.508  19.436  0.00  0.00    +0.000 N 
ATOM     10  H   UNL     1       0.974   5.320  19.981  0.00  0.00    +0.000 HD
ENDROOT
BRANCH   4  11
ATOM     11  C   UNL     1       5.619   4.830  16.752  0.00  0.00    +0.000 A 
ATOM     12  C   UNL     1       6.613   5.746  17.178  0.00  0.00    +0.000 A 
ATOM     13  N   UNL     1       7.483   6.064  16.220  0.00  0.00    +0.000 NA
ATOM     14  N   UNL     1       7.076   5.345  15.165  0.00  0.00    +0.000 N 
ATOM     15  N   UNL     1       7.766   5.427  14.004  0.00  0.00    +0.000 NA
ATOM     16  C   UNL     1       7.271   4.679  13.074  0.00  0.00    +0.000 A 
ATOM     17  C   UNL     1       6.079   3.808  13.188  0.00  0.00    +0.000 A 
ATOM     18  C   UNL     1       5.444   3.796  14.366  0.00  0.00    +0.000 A 
ATOM     19  C   UNL     1       5.953   4.579  15.431  0.00  0.00    +0.000 A 
ENDBRANCH   4  11
BRANCH   1  24
ATOM     20  C   UNL     1       0.900   9.328  21.552  0.00  0.00    +0.000 A 
ATOM     21  C   UNL     1       0.624  10.367  20.664  0.00  0.00    +0.000 A 
ATOM     22  C   UNL     1       0.965  10.258  19.316  0.00  0.00    +0.000 A 
ATOM     23  C   UNL     1       1.542   9.082  18.835  0.00  0.00    +0.000 A 
ATOM     24  C   UNL     1       1.765   7.997  19.692  0.00  0.00    +0.000 A 
ATOM     25  C   UNL     1       1.428   8.132  21.048  0.00  0.00    +0.000 A 
BRANCH  20  26
ATOM     26  N   UNL     1       0.445   9.388  22.875  0.00  0.00    +0.000 N 
ATOM     27  H   UNL     1       1.170   9.204  23.562  0.00  0.00    +0.000 HD
ATOM     28  H   UNL     1      -0.392   8.841  23.049  0.00  0.00    +0.000 HD
ENDBRANCH  20  26
ENDBRANCH   1  24
TORSDOF 3
ENDMDL
MODEL 5
REMARK VINA RESULT:      -8.7      1.750      7.463
REMARK  Name = 
REMARK  3 active torsions:
REMARK  status: ('A' for Active; 'I' for Inactive)
REMARK    1  A    between atoms: N_1  and  C_2
REMARK    2  A    between atoms: C_6  and  C_7
REMARK    3  A    between atoms: C_10  and  C_11
REMARK                            x       y       z     vdW  Elec       q    Type
REMARK                         _______ _______ _______ _____ _____    ______ ____
ROOT
ATOM      1  C   UNL     1       5.220   4.582  15.978  0.00  0.00    +0.000 A 
ATOM      2  C   UNL     1       4.500   5.635  16.521  0.00  0.00    +0.000 A 
ATOM      3  C   UNL     1       3.954   5.230  17.775  0.00  0.00    +0.000 A 
ATOM      4  C   UNL     1       3.131   5.789  18.779  0.00  0.00    +0.000 A 
ATOM      5  C   UNL     1       2.837   4.982  19.886  0.00  0.00    +0.000 A 
ATOM      6  C   UNL     1       3.390   3.711  19.969  0.00  0.00    +0.000 A 
ATOM      7  N   UNL     1       4.189   3.140  19.045  0.00  0.00    +0.000 NA
ATOM      8  C   UNL     1       4.417   3.937  17.986  0.00  0.00    +0.000 A 
ATOM      9  N   UNL     1       5.174   3.569  16.911  0.00  0.00    +0.000 N 
ATOM     10  H   UNL     1       5.633   2.674  16.839  0.00  0.00    +0.000 HD
ENDROOT
BRANCH   4  11
ATOM     11  C   UNL     1       2.606   7.136  18.622  0.00  0.00    +0.000 A 
ATOM     12  C   UNL     1       2.668   8.007  17.506  0.00  0.00    +0.000 A 
ATOM     13  N   UNL     1       2.099   9.191  17.729  0.00  0.00    +0.000 NA
ATOM     14  N   UNL     1       1.644   9.098  18.986  0.00  0.00    +0.000 N 
ATOM     15  N   UNL     1       0.988  10.147  19.532  0.00  0.00    +0.000 NA
ATOM     16  C   UNL     1       0.599   9.920  20.743  0.00  0.00    +0.000 A 
ATOM     17  C   UNL     1       0.817   8.677  21.517  0.00  0.00    +0.000 A 
ATOM     18  C   UNL     1       1.490   7.692  20.911  0.00  0.00    +0.000 A 
ATOM     19  C   UNL     1       1.923   7.875  19.574  0.00  0.00    +0.000 A 
ENDBRANCH   4  11
BRANCH   1  24
ATOM     20  C   UNL     1       7.810   5.107  13.263  0.00  0.00    +0.000 A 
ATOM     21  C   UNL     1       7.284   4.304  12.251  0.00  0.00    +0.000 A 
ATOM     22  C   UNL     1       6.135   3.543  12.474  0.00  0.00    +0.000 A 
ATOM     23  C   UNL     1       5.473   3.621  13.700  0.00  0.00    +0.000 A 
ATOM     24  C   UNL     1       5.941   4.474  14.707  0.00  0.00    +0.000 A 
ATOM     25  C   UNL     1       7.106   5.220  14.469  0.00  0.00    +0.000 A 
BRANCH  20  26
ATOM     26  N   UNL     1       8.886   5.962  12.998  0.00  0.00    +0.000 N 
ATOM     27  H   UNL     1       9.420   5.700  12.176  0.00  0.00    +0.000 HD
ATOM     28  H   UNL     1       9.484   6.134  13.801  0.00  0.00    +0.000 HD
ENDBRANCH  20  26
ENDBRANCH   1  24
TORSDOF 3
ENDMDL
MODEL 6
REMARK VINA RESULT:      -8.3      1.825      7.532
REMARK  Name = 
REMARK  3 active torsions:
REMARK  status: ('A' for Active; 'I' for Inactive)
REMARK    1  A    between atoms: N_1  and  C_2
REMARK    2  A    between atoms: C_6  and  C_7
REMARK    3  A    between atoms: C_10  and  C_11
REMARK                            x       y       z     vdW  Elec       q    Type
REMARK                         _______ _______ _______ _____ _____    ______ ____
ROOT
ATOM      1  C   UNL     1       5.197   4.598  16.049  0.00  0.00    +0.000 A 
ATOM      2  C   UNL     1       4.480   5.664  16.569  0.00  0.00    +0.000 A 
ATOM      3  C   UNL     1       3.949   5.295  17.840  0.00  0.00    +0.000 A 
ATOM      4  C   UNL     1       3.135   5.881  18.836  0.00  0.00    +0.000 A 
ATOM      5  C   UNL     1       2.855   5.106  19.969  0.00  0.00    +0.000 A 
ATOM      6  C   UNL     1       3.412   3.839  20.083  0.00  0.00    +0.000 A 
ATOM      7  N   UNL     1       4.202   3.243  19.167  0.00  0.00    +0.000 NA
ATOM      8  C   UNL     1       4.418   4.009  18.083  0.00  0.00    +0.000 A 
ATOM      9  N   UNL     1       5.164   3.613  17.011  0.00  0.00    +0.000 N 
ATOM     10  H   UNL     1       5.624   2.717  16.960  0.00  0.00    +0.000 HD
ENDROOT
BRANCH   4  11
ATOM     11  C   UNL     1       2.606   7.222  18.646  0.00  0.00    +0.000 A 
ATOM     12  C   UNL     1       2.681   8.073  17.516  0.00  0.00    +0.000 A 
ATOM     13  N   UNL     1       2.102   9.258  17.707  0.00  0.00    +0.000 NA
ATOM     14  N   UNL     1       1.627   9.184  18.958  0.00  0.00    +0.000 N 
ATOM     15  N   UNL     1       0.955  10.239  19.474  0.00  0.00    +0.000 NA
ATOM     16  C   UNL     1       0.548  10.032  20.682  0.00  0.00    +0.000 A 
ATOM     17  C   UNL     1       0.760   8.805  21.482  0.00  0.00    +0.000 A 
ATOM     18  C   UNL     1       1.448   7.813  20.906  0.00  0.00    +0.000 A 
ATOM     19  C   UNL     1       1.902   7.974  19.573  0.00  0.00    +0.000 A 
ENDBRANCH   4  11
BRANCH   1  24
ATOM     20  C   UNL     1       6.152   3.387  12.588  0.00  0.00    +0.000 A 
ATOM     21  C   UNL     1       7.299   4.149  12.360  0.00  0.00    +0.000 A 
ATOM     22  C   UNL     1       7.717   5.098  13.294  0.00  0.00    +0.000 A 
ATOM     23  C   UNL     1       7.017   5.256  14.490  0.00  0.00    +0.000 A 
ATOM     24  C   UNL     1       5.905   4.455  14.775  0.00  0.00    +0.000 A 
ATOM     25  C   UNL     1       5.491   3.516  13.816  0.00  0.00    +0.000 A 
BRANCH  20  26
ATOM     26  N   UNL     1       5.806   2.352  11.712  0.00  0.00    +0.000 N 
ATOM     27  H   UNL     1       5.849   1.430  12.136  0.00  0.00    +0.000 HD
ATOM     28  H   UNL     1       6.293   2.384  10.822  0.00  0.00    +0.000 HD
ENDBRANCH  20  26
ENDBRANCH   1  24
TORSDOF 3
ENDMDL
MODEL 7
REMARK VINA RESULT:      -8.3      1.056      1.780
REMARK  Name = 
REMARK  3 active torsions:
REMARK  status: ('A' for Active; 'I' for Inactive)
REMARK    1  A    between atoms: N_1  and  C_2
REMARK    2  A    between atoms: C_6  and  C_7
REMARK    3  A    between atoms: C_10  and  C_11
REMARK                            x       y       z     vdW  Elec       q    Type
REMARK                         _______ _______ _______ _____ _____    ______ ____
ROOT
ATOM      1  C   UNL     1       1.855   7.048  20.311  0.00  0.00    +0.000 A 
ATOM      2  C   UNL     1       2.674   6.500  19.335  0.00  0.00    +0.000 A 
ATOM      3  C   UNL     1       2.947   5.139  19.665  0.00  0.00    +0.000 A 
ATOM      4  C   UNL     1       3.707   4.074  19.131  0.00  0.00    +0.000 A 
ATOM      5  C   UNL     1       3.680   2.860  19.829  0.00  0.00    +0.000 A 
ATOM      6  C   UNL     1       2.892   2.744  20.966  0.00  0.00    +0.000 A 
ATOM      7  N   UNL     1       2.142   3.725  21.505  0.00  0.00    +0.000 NA
ATOM      8  C   UNL     1       2.223   4.882  20.822  0.00  0.00    +0.000 A 
ATOM      9  N   UNL     1       1.574   6.025  21.189  0.00  0.00    +0.000 N 
ATOM     10  H   UNL     1       0.970   6.083  21.994  0.00  0.00    +0.000 HD
ENDROOT
BRANCH   4  11
ATOM     11  C   UNL     1       4.493   4.275  17.925  0.00  0.00    +0.000 A 
ATOM     12  C   UNL     1       4.335   3.708  16.636  0.00  0.00    +0.000 A 
ATOM     13  N   UNL     1       5.267   4.099  15.768  0.00  0.00    +0.000 NA
ATOM     14  N   UNL     1       6.032   4.941  16.476  0.00  0.00    +0.000 N 
ATOM     15  N   UNL     1       7.085   5.541  15.877  0.00  0.00    +0.000 NA
ATOM     16  C   UNL     1       7.731   6.330  16.671  0.00  0.00    +0.000 A 
ATOM     17  C   UNL     1       7.418   6.593  18.094  0.00  0.00    +0.000 A 
ATOM     18  C   UNL     1       6.369   5.947  18.616  0.00  0.00    +0.000 A 
ATOM     19  C   UNL     1       5.609   5.085  17.788  0.00  0.00    +0.000 A 
ENDBRANCH   4  11
BRANCH   1  24
ATOM     20  C   UNL     1       0.711  10.564  19.483  0.00  0.00    +0.000 A 
ATOM     21  C   UNL     1       0.340  11.015  20.750  0.00  0.00    +0.000 A 
ATOM     22  C   UNL     1       0.395  10.160  21.852  0.00  0.00    +0.000 A 
ATOM     23  C   UNL     1       0.872   8.858  21.702  0.00  0.00    +0.000 A 
ATOM     24  C   UNL     1       1.318   8.403  20.454  0.00  0.00    +0.000 A 
ATOM     25  C   UNL     1       1.240   9.274  19.355  0.00  0.00    +0.000 A 
BRANCH  20  26
ATOM     26  N   UNL     1       0.774  11.456  18.406  0.00  0.00    +0.000 N 
ATOM     27  H   UNL     1       1.704  11.829  18.242  0.00  0.00    +0.000 HD
ATOM     28  H   UNL     1       0.070  12.187  18.434  0.00  0.00    +0.000 HD
ENDBRANCH  20  26
ENDBRANCH   1  24
TORSDOF 3
ENDMDL
MODEL 8
REMARK VINA RESULT:      -8.3      1.454      2.259
REMARK  Name = 
REMARK  3 active torsions:
REMARK  status: ('A' for Active; 'I' for Inactive)
REMARK    1  A    between atoms: N_1  and  C_2
REMARK    2  A    between atoms: C_6  and  C_7
REMARK    3  A    between atoms: C_10  and  C_11
REMARK                            x       y       z     vdW  Elec       q    Type
REMARK                         _______ _______ _______ _____ _____    ______ ____
ROOT
ATOM      1  C   UNL     1       1.843   6.937  20.359  0.00  0.00    +0.000 A 
ATOM      2  C   UNL     1       2.671   6.429  19.369  0.00  0.00    +0.000 A 
ATOM      3  C   UNL     1       2.982   5.070  19.671  0.00  0.00    +0.000 A 
ATOM      4  C   UNL     1       3.766   4.036  19.114  0.00  0.00    +0.000 A 
ATOM      5  C   UNL     1       3.776   2.808  19.789  0.00  0.00    +0.000 A 
ATOM      6  C   UNL     1       2.998   2.650  20.928  0.00  0.00    +0.000 A 
ATOM      7  N   UNL     1       2.225   3.602  21.489  0.00  0.00    +0.000 NA
ATOM      8  C   UNL     1       2.272   4.772  20.828  0.00  0.00    +0.000 A 
ATOM      9  N   UNL     1       1.595   5.891  21.219  0.00  0.00    +0.000 N 
ATOM     10  H   UNL     1       0.995   5.918  22.029  0.00  0.00    +0.000 HD
ENDROOT
BRANCH   4  11
ATOM     11  C   UNL     1       4.539   4.279  17.907  0.00  0.00    +0.000 A 
ATOM     12  C   UNL     1       4.376   3.747  16.604  0.00  0.00    +0.000 A 
ATOM     13  N   UNL     1       5.295   4.173  15.739  0.00  0.00    +0.000 NA
ATOM     14  N   UNL     1       6.057   5.003  16.465  0.00  0.00    +0.000 N 
ATOM     15  N   UNL     1       7.099   5.632  15.874  0.00  0.00    +0.000 NA
ATOM     16  C   UNL     1       7.743   6.405  16.684  0.00  0.00    +0.000 A 
ATOM     17  C   UNL     1       7.439   6.625  18.116  0.00  0.00    +0.000 A 
ATOM     18  C   UNL     1       6.403   5.953  18.629  0.00  0.00    +0.000 A 
ATOM     19  C   UNL     1       5.644   5.106  17.784  0.00  0.00    +0.000 A 
ENDBRANCH   4  11
BRANCH   1  24
ATOM     20  C   UNL     1       0.156   9.947  21.923  0.00  0.00    +0.000 A 
ATOM     21  C   UNL     1       0.130  10.818  20.834  0.00  0.00    +0.000 A 
ATOM     22  C   UNL     1       0.719  10.456  19.622  0.00  0.00    +0.000 A 
ATOM     23  C   UNL     1       1.295   9.194  19.475  0.00  0.00    +0.000 A 
ATOM     24  C   UNL     1       1.272   8.275  20.531  0.00  0.00    +0.000 A 
ATOM     25  C   UNL     1       0.687   8.663  21.747  0.00  0.00    +0.000 A 
BRANCH  20  26
ATOM     26  N   UNL     1      -0.543  10.260  23.095  0.00  0.00    +0.000 N 
ATOM     27  H   UNL     1       0.059  10.410  23.898  0.00  0.00    +0.000 HD
ATOM     28  H   UNL     1      -1.305   9.622  23.305  0.00  0.00    +0.000 HD
ENDBRANCH  20  26
ENDBRANCH   1  24
TORSDOF 3
ENDMDL
MODEL 9
REMARK VINA RESULT:      -8.2      1.286      1.576
REMARK  Name = 
REMARK  3 active torsions:
REMARK  status: ('A' for Active; 'I' for Inactive)
REMARK    1  A    between atoms: N_1  and  C_2
REMARK    2  A    between atoms: C_6  and  C_7
REMARK    3  A    between atoms: C_10  and  C_11
REMARK                            x       y       z     vdW  Elec       q    Type
REMARK                         _______ _______ _______ _____ _____    ______ ____
ROOT
ATOM      1  C   UNL     1       2.181   8.109  18.888  0.00  0.00    +0.000 A 
ATOM      2  C   UNL     1       3.301   7.637  18.221  0.00  0.00    +0.000 A 
ATOM      3  C   UNL     1       3.556   6.294  18.630  0.00  0.00    +0.000 A 
ATOM      4  C   UNL     1       4.520   5.294  18.368  0.00  0.00    +0.000 A 
ATOM      5  C   UNL     1       4.365   4.070  19.031  0.00  0.00    +0.000 A 
ATOM      6  C   UNL     1       3.272   3.880  19.866  0.00  0.00    +0.000 A 
ATOM      7  N   UNL     1       2.322   4.797  20.136  0.00  0.00    +0.000 NA
ATOM      8  C   UNL     1       2.527   5.967  19.505  0.00  0.00    +0.000 A 
ATOM      9  N   UNL     1       1.715   7.055  19.642  0.00  0.00    +0.000 N 
ATOM     10  H   UNL     1       0.887   7.057  20.218  0.00  0.00    +0.000 HD
ENDROOT
BRANCH   4  11
ATOM     11  C   UNL     1       5.626   5.569  17.466  0.00  0.00    +0.000 A 
ATOM     12  C   UNL     1       6.752   6.412  17.644  0.00  0.00    +0.000 A 
ATOM     13  N   UNL     1       7.559   6.446  16.585  0.00  0.00    +0.000 NA
ATOM     14  N   UNL     1       6.979   5.611  15.712  0.00  0.00    +0.000 N 
ATOM     15  N   UNL     1       7.562   5.400  14.510  0.00  0.00    +0.000 NA
ATOM     16  C   UNL     1       6.903   4.571  13.771  0.00  0.00    +0.000 A 
ATOM     17  C   UNL     1       5.637   3.891  14.128  0.00  0.00    +0.000 A 
ATOM     18  C   UNL     1       5.116   4.165  15.330  0.00  0.00    +0.000 A 
ATOM     19  C   UNL     1       5.806   5.051  16.193  0.00  0.00    +0.000 A 
ENDBRANCH   4  11
BRANCH   1  24
ATOM     20  C   UNL     1       1.498  11.758  18.129  0.00  0.00    +0.000 A 
ATOM     21  C   UNL     1       0.300  11.941  18.820  0.00  0.00    +0.000 A 
ATOM     22  C   UNL     1      -0.317  10.869  19.468  0.00  0.00    +0.000 A 
ATOM     23  C   UNL     1       0.291   9.613  19.472  0.00  0.00    +0.000 A 
ATOM     24  C   UNL     1       1.529   9.420  18.846  0.00  0.00    +0.000 A 
ATOM     25  C   UNL     1       2.125  10.507  18.187  0.00  0.00    +0.000 A 
BRANCH  20  26
ATOM     26  N   UNL     1       2.176  12.856  17.588  0.00  0.00    +0.000 N 
ATOM     27  H   UNL     1       1.576  13.655  17.408  0.00  0.00    +0.000 HD
ATOM     28  H   UNL     1       2.757  12.629  16.787  0.00  0.00    +0.000 HD
ENDBRANCH  20  26
ENDBRANCH   1  24
TORSDOF 3
ENDMDL
