MODEL 1
REMARK VINA RESULT:      -9.1      0.000      0.000
REMARK  Name = 
REMARK  1 active torsions:
REMARK  status: ('A' for Active; 'I' for Inactive)
REMARK    1  A    between atoms: C_21  and  O_22
REMARK                            x       y       z     vdW  Elec       q    Type
REMARK                         _______ _______ _______ _____ _____    ______ ____
ROOT
ATOM      1  O   UNL     1       1.243   4.746  21.152  0.00  0.00    +0.000 OA
ATOM      2  C   UNL     1       2.033   4.602  20.229  0.00  0.00    +0.000 C 
ATOM      3  N   UNL     1       2.343   3.378  19.693  0.00  0.00    +0.000 N 
ATOM      4  C   UNL     1       3.374   3.346  18.799  0.00  0.00    +0.000 C 
ATOM      5  O   UNL     1       3.861   2.307  18.378  0.00  0.00    +0.000 OA
ATOM      6  C   UNL     1       3.579   4.732  18.539  0.00  0.00    +0.000 A 
ATOM      7  C   UNL     1       2.790   5.524  19.422  0.00  0.00    +0.000 A 
ATOM      8  C   UNL     1       2.551   6.900  19.270  0.00  0.00    +0.000 A 
ATOM      9  C   UNL     1       3.034   7.496  18.084  0.00  0.00    +0.000 A 
ATOM     10  C   UNL     1       2.598   8.766  17.667  0.00  0.00    +0.000 A 
ATOM     11  C   UNL     1       1.614   9.433  18.390  0.00  0.00    +0.000 A 
ATOM     12  C   UNL     1       1.254   8.938  19.655  0.00  0.00    +0.000 A 
ATOM     13  C   UNL     1       0.386   9.410  20.668  0.00  0.00    +0.000 A 
ATOM     14  C   UNL     1       0.849   8.835  21.827  0.00  0.00    +0.000 A 
ATOM     15  N   UNL     1       1.546   7.707  21.467  0.00  0.00    +0.000 N 
ATOM     16  C   UNL     1       1.809   7.739  20.112  0.00  0.00    +0.000 A 
ATOM     17  C   UNL     1       3.919   6.744  17.291  0.00  0.00    +0.000 A 
ATOM     18  N   UNL     1       4.600   7.063  16.139  0.00  0.00    +0.000 N 
ATOM     19  C   UNL     1       5.236   5.950  15.624  0.00  0.00    +0.000 A 
ATOM     20  C   UNL     1       5.970   5.848  14.438  0.00  0.00    +0.000 A 
ATOM     21  C   UNL     1       6.493   4.597  14.126  0.00  0.00    +0.000 A 
ATOM     22  C   UNL     1       6.292   3.496  14.952  0.00  0.00    +0.000 A 
ATOM     23  C   UNL     1       5.564   3.617  16.139  0.00  0.00    +0.000 A 
ATOM     24  C   UNL     1       5.017   4.865  16.490  0.00  0.00    +0.000 A 
ATOM     25  C   UNL     1       4.244   5.441  17.492  0.00  0.00    +0.000 A 
ATOM     26  H   UNL     1       1.787   2.557  19.862  0.00  0.00    +0.000 HD
ATOM     27  H   UNL     1       1.979   7.065  22.119  0.00  0.00    +0.000 HD
ATOM     28  H   UNL     1       4.600   7.965  15.701  0.00  0.00    +0.000 HD
ENDROOT
BRANCH  21  29
ATOM     29  O   UNL     1       7.204   4.418  12.973  0.00  0.00    +0.000 OA
ATOM     30  H   UNL     1       7.688   5.239  12.781  0.00  0.00    +0.000 HD
ENDBRANCH  21  29
TORSDOF 1
ENDMDL
MODEL 2
REMARK VINA RESULT:      -8.1      2.961      5.646
REMARK  Name = 
REMARK  1 active torsions:
REMARK  status: ('A' for Active; 'I' for Inactive)
REMARK    1  A    between atoms: C_21  and  O_22
REMARK                            x       y       z     vdW  Elec       q    Type
REMARK                         _______ _______ _______ _____ _____    ______ ____
ROOT
ATOM      1  O   UNL     1       0.676  12.391  18.644  0.00  0.00    +0.000 OA
ATOM      2  C   UNL     1       1.081  11.237  18.631  0.00  0.00    +0.000 C 
ATOM      3  N   UNL     1       2.080  10.803  17.798  0.00  0.00    +0.000 N 
ATOM      4  C   UNL     1       2.301   9.457  17.759  0.00  0.00    +0.000 C 
ATOM      5  O   UNL     1       3.037   8.924  16.941  0.00  0.00    +0.000 OA
ATOM      6  C   UNL     1       1.542   9.002  18.875  0.00  0.00    +0.000 A 
ATOM      7  C   UNL     1       0.763  10.069  19.411  0.00  0.00    +0.000 A 
ATOM      8  C   UNL     1       0.110  10.040  20.655  0.00  0.00    +0.000 A 
ATOM      9  C   UNL     1       0.359   8.915  21.471  0.00  0.00    +0.000 A 
ATOM     10  C   UNL     1       0.030   8.908  22.838  0.00  0.00    +0.000 A 
ATOM     11  C   UNL     1      -0.485  10.056  23.432  0.00  0.00    +0.000 A 
ATOM     12  C   UNL     1      -0.898  11.115  22.606  0.00  0.00    +0.000 A 
ATOM     13  C   UNL     1      -1.537  12.352  22.866  0.00  0.00    +0.000 A 
ATOM     14  C   UNL     1      -2.153  12.686  21.684  0.00  0.00    +0.000 A 
ATOM     15  N   UNL     1      -1.487  12.025  20.680  0.00  0.00    +0.000 N 
ATOM     16  C   UNL     1      -0.688  11.040  21.227  0.00  0.00    +0.000 A 
ATOM     17  C   UNL     1       1.014   7.817  20.884  0.00  0.00    +0.000 A 
ATOM     18  N   UNL     1       1.332   6.576  21.386  0.00  0.00    +0.000 N 
ATOM     19  C   UNL     1       2.119   5.876  20.491  0.00  0.00    +0.000 A 
ATOM     20  C   UNL     1       2.700   4.615  20.658  0.00  0.00    +0.000 A 
ATOM     21  C   UNL     1       3.479   4.135  19.609  0.00  0.00    +0.000 A 
ATOM     22  C   UNL     1       3.676   4.877  18.450  0.00  0.00    +0.000 A 
ATOM     23  C   UNL     1       3.081   6.133  18.295  0.00  0.00    +0.000 A 
ATOM     24  C   UNL     1       2.286   6.654  19.333  0.00  0.00    +0.000 A 
ATOM     25  C   UNL     1       1.554   7.795  19.639  0.00  0.00    +0.000 A 
ATOM     26  H   UNL     1       2.692  11.436  17.310  0.00  0.00    +0.000 HD
ATOM     27  H   UNL     1      -1.704  12.103  19.695  0.00  0.00    +0.000 HD
ATOM     28  H   UNL     1       1.073   6.238  22.294  0.00  0.00    +0.000 HD
ENDROOT
BRANCH  21  29
ATOM     29  O   UNL     1       4.093   2.919  19.710  0.00  0.00    +0.000 OA
ATOM     30  H   UNL     1       4.406   2.660  18.827  0.00  0.00    +0.000 HD
ENDBRANCH  21  29
TORSDOF 1
ENDMDL
MODEL 3
REMARK VINA RESULT:      -7.9      8.422     11.685
REMARK  Name = 
REMARK  1 active torsions:
REMARK  status: ('A' for Active; 'I' for Inactive)
REMARK    1  A    between atoms: C_21  and  O_22
REMARK                            x       y       z     vdW  Elec       q    Type
REMARK                         _______ _______ _______ _____ _____    ______ ____
ROOT
ATOM      1  O   UNL     1      -6.718  10.808  18.174  0.00  0.00    +0.000 OA
ATOM      2  C   UNL     1      -6.219  11.425  19.105  0.00  0.00    +0.000 C 
ATOM      3  N   UNL     1      -6.876  11.660  20.285  0.00  0.00    +0.000 N 
ATOM      4  C   UNL     1      -6.273  12.517  21.160  0.00  0.00    +0.000 C 
ATOM      5  O   UNL     1      -6.824  12.944  22.164  0.00  0.00    +0.000 OA
ATOM      6  C   UNL     1      -4.972  12.645  20.595  0.00  0.00    +0.000 A 
ATOM      7  C   UNL     1      -4.920  12.007  19.322  0.00  0.00    +0.000 A 
ATOM      8  C   UNL     1      -3.740  11.717  18.616  0.00  0.00    +0.000 A 
ATOM      9  C   UNL     1      -2.525  11.969  19.290  0.00  0.00    +0.000 A 
ATOM     10  C   UNL     1      -1.305  11.440  18.834  0.00  0.00    +0.000 A 
ATOM     11  C   UNL     1      -1.288  10.586  17.736  0.00  0.00    +0.000 A 
ATOM     12  C   UNL     1      -2.451  10.467  16.956  0.00  0.00    +0.000 A 
ATOM     13  C   UNL     1      -2.742   9.781  15.752  0.00  0.00    +0.000 A 
ATOM     14  C   UNL     1      -3.812  10.454  15.213  0.00  0.00    +0.000 A 
ATOM     15  N   UNL     1      -4.446  11.100  16.247  0.00  0.00    +0.000 N 
ATOM     16  C   UNL     1      -3.621  11.118  17.354  0.00  0.00    +0.000 A 
ATOM     17  C   UNL     1      -2.583  12.716  20.480  0.00  0.00    +0.000 A 
ATOM     18  N   UNL     1      -1.589  13.175  21.314  0.00  0.00    +0.000 N 
ATOM     19  C   UNL     1      -2.130  13.734  22.457  0.00  0.00    +0.000 A 
ATOM     20  C   UNL     1      -1.454  14.248  23.567  0.00  0.00    +0.000 A 
ATOM     21  C   UNL     1      -2.235  14.733  24.612  0.00  0.00    +0.000 A 
ATOM     22  C   UNL     1      -3.625  14.705  24.557  0.00  0.00    +0.000 A 
ATOM     23  C   UNL     1      -4.286  14.196  23.435  0.00  0.00    +0.000 A 
ATOM     24  C   UNL     1      -3.532  13.694  22.357  0.00  0.00    +0.000 A 
ATOM     25  C   UNL     1      -3.721  13.099  21.116  0.00  0.00    +0.000 A 
ATOM     26  H   UNL     1      -7.708  11.160  20.550  0.00  0.00    +0.000 HD
ATOM     27  H   UNL     1      -5.287  11.655  16.152  0.00  0.00    +0.000 HD
ATOM     28  H   UNL     1      -0.606  13.079  21.145  0.00  0.00    +0.000 HD
ENDROOT
BRANCH  21  29
ATOM     29  O   UNL     1      -1.644  15.233  25.737  0.00  0.00    +0.000 OA
ATOM     30  H   UNL     1      -1.007  15.917  25.471  0.00  0.00    +0.000 HD
ENDBRANCH  21  29
TORSDOF 1
ENDMDL
MODEL 4
REMARK VINA RESULT:      -7.9      3.470      6.134
REMARK  Name = 
REMARK  1 active torsions:
REMARK  status: ('A' for Active; 'I' for Inactive)
REMARK    1  A    between atoms: C_21  and  O_22
REMARK                            x       y       z     vdW  Elec       q    Type
REMARK                         _______ _______ _______ _____ _____    ______ ____
ROOT
ATOM      1  O   UNL     1       0.022  13.503  19.297  0.00  0.00    +0.000 OA
ATOM      2  C   UNL     1       0.566  12.430  19.076  0.00  0.00    +0.000 C 
ATOM      3  N   UNL     1       1.622  12.288  18.213  0.00  0.00    +0.000 N 
ATOM      4  C   UNL     1       2.006  11.011  17.923  0.00  0.00    +0.000 C 
ATOM      5  O   UNL     1       2.814  10.739  17.046  0.00  0.00    +0.000 OA
ATOM      6  C   UNL     1       1.292  10.260  18.900  0.00  0.00    +0.000 A 
ATOM      7  C   UNL     1       0.381  11.102  19.602  0.00  0.00    +0.000 A 
ATOM      8  C   UNL     1      -0.282  10.753  20.791  0.00  0.00    +0.000 A 
ATOM      9  C   UNL     1       0.090   9.526  21.382  0.00  0.00    +0.000 A 
ATOM     10  C   UNL     1      -0.256   9.211  22.709  0.00  0.00    +0.000 A 
ATOM     11  C   UNL     1      -0.916  10.151  23.493  0.00  0.00    +0.000 A 
ATOM     12  C   UNL     1      -1.443  11.297  22.873  0.00  0.00    +0.000 A 
ATOM     13  C   UNL     1      -2.232  12.375  23.343  0.00  0.00    +0.000 A 
ATOM     14  C   UNL     1      -2.866  12.861  22.225  0.00  0.00    +0.000 A 
ATOM     15  N   UNL     1      -2.109  12.493  21.139  0.00  0.00    +0.000 N 
ATOM     16  C   UNL     1      -1.205  11.520  21.514  0.00  0.00    +0.000 A 
ATOM     17  C   UNL     1       0.882   8.649  20.620  0.00  0.00    +0.000 A 
ATOM     18  N   UNL     1       1.342   7.379  20.884  0.00  0.00    +0.000 N 
ATOM     19  C   UNL     1       2.222   6.966  19.901  0.00  0.00    +0.000 A 
ATOM     20  C   UNL     1       2.950   5.773  19.843  0.00  0.00    +0.000 A 
ATOM     21  C   UNL     1       3.797   5.604  18.752  0.00  0.00    +0.000 A 
ATOM     22  C   UNL     1       3.919   6.577  17.767  0.00  0.00    +0.000 A 
ATOM     23  C   UNL     1       3.178   7.760  17.835  0.00  0.00    +0.000 A 
ATOM     24  C   UNL     1       2.310   7.970  18.923  0.00  0.00    +0.000 A 
ATOM     25  C   UNL     1       1.439   8.935  19.416  0.00  0.00    +0.000 A 
ATOM     26  H   UNL     1       2.159  13.072  17.882  0.00  0.00    +0.000 HD
ATOM     27  H   UNL     1      -2.320  12.738  20.179  0.00  0.00    +0.000 HD
ATOM     28  H   UNL     1       1.113   6.841  21.698  0.00  0.00    +0.000 HD
ENDROOT
BRANCH  21  29
ATOM     29  O   UNL     1       4.553   4.472  18.639  0.00  0.00    +0.000 OA
ATOM     30  H   UNL     1       4.356   4.056  17.782  0.00  0.00    +0.000 HD
ENDBRANCH  21  29
TORSDOF 1
ENDMDL
MODEL 5
REMARK VINA RESULT:      -7.8      6.886      9.162
REMARK  Name = 
REMARK  1 active torsions:
REMARK  status: ('A' for Active; 'I' for Inactive)
REMARK    1  A    between atoms: C_21  and  O_22
REMARK                            x       y       z     vdW  Elec       q    Type
REMARK                         _______ _______ _______ _____ _____    ______ ____
ROOT
ATOM      1  O   UNL     1      -0.168  11.452  23.092  0.00  0.00    +0.000 OA
ATOM      2  C   UNL     1      -0.537  11.258  21.942  0.00  0.00    +0.000 C 
ATOM      3  N   UNL     1      -0.054  10.239  21.162  0.00  0.00    +0.000 N 
ATOM      4  C   UNL     1      -0.414  10.255  19.845  0.00  0.00    +0.000 C 
ATOM      5  O   UNL     1       0.078   9.511  19.009  0.00  0.00    +0.000 OA
ATOM      6  C   UNL     1      -1.443  11.239  19.834  0.00  0.00    +0.000 A 
ATOM      7  C   UNL     1      -1.521  11.889  21.100  0.00  0.00    +0.000 A 
ATOM      8  C   UNL     1      -2.579  12.714  21.516  0.00  0.00    +0.000 A 
ATOM      9  C   UNL     1      -3.694  12.791  20.653  0.00  0.00    +0.000 A 
ATOM     10  C   UNL     1      -4.926  13.315  21.085  0.00  0.00    +0.000 A 
ATOM     11  C   UNL     1      -5.087  13.703  22.411  0.00  0.00    +0.000 A 
ATOM     12  C   UNL     1      -3.948  13.796  23.230  0.00  0.00    +0.000 A 
ATOM     13  C   UNL     1      -3.746  14.239  24.559  0.00  0.00    +0.000 A 
ATOM     14  C   UNL     1      -2.422  14.604  24.612  0.00  0.00    +0.000 A 
ATOM     15  N   UNL     1      -1.775  13.923  23.609  0.00  0.00    +0.000 N 
ATOM     16  C   UNL     1      -2.704  13.400  22.732  0.00  0.00    +0.000 A 
ATOM     17  C   UNL     1      -3.554  12.260  19.359  0.00  0.00    +0.000 A 
ATOM     18  N   UNL     1      -4.416  12.243  18.286  0.00  0.00    +0.000 N 
ATOM     19  C   UNL     1      -3.905  11.467  17.263  0.00  0.00    +0.000 A 
ATOM     20  C   UNL     1      -4.506  11.149  16.041  0.00  0.00    +0.000 A 
ATOM     21  C   UNL     1      -3.789  10.319  15.183  0.00  0.00    +0.000 A 
ATOM     22  C   UNL     1      -2.535   9.825  15.526  0.00  0.00    +0.000 A 
ATOM     23  C   UNL     1      -1.944  10.161  16.748  0.00  0.00    +0.000 A 
ATOM     24  C   UNL     1      -2.637  10.996  17.644  0.00  0.00    +0.000 A 
ATOM     25  C   UNL     1      -2.485  11.554  18.908  0.00  0.00    +0.000 A 
ATOM     26  H   UNL     1       0.456   9.460  21.543  0.00  0.00    +0.000 HD
ATOM     27  H   UNL     1      -0.781  13.975  23.426  0.00  0.00    +0.000 HD
ATOM     28  H   UNL     1      -5.313  12.689  18.261  0.00  0.00    +0.000 HD
ENDROOT
BRANCH  21  29
ATOM     29  O   UNL     1      -4.322   9.950  13.981  0.00  0.00    +0.000 OA
ATOM     30  H   UNL     1      -5.223  10.311  13.920  0.00  0.00    +0.000 HD
ENDBRANCH  21  29
TORSDOF 1
ENDMDL
MODEL 6
REMARK VINA RESULT:      -7.6      5.820     10.801
REMARK  Name = 
REMARK  1 active torsions:
REMARK  status: ('A' for Active; 'I' for Inactive)
REMARK    1  A    between atoms: C_21  and  O_22
REMARK                            x       y       z     vdW  Elec       q    Type
REMARK                         _______ _______ _______ _____ _____    ______ ____
ROOT
ATOM      1  O   UNL     1      -2.068   9.773  16.693  0.00  0.00    +0.000 OA
ATOM      2  C   UNL     1      -2.569  10.523  17.520  0.00  0.00    +0.000 C 
ATOM      3  N   UNL     1      -3.888  10.896  17.491  0.00  0.00    +0.000 N 
ATOM      4  C   UNL     1      -4.264  11.879  18.360  0.00  0.00    +0.000 C 
ATOM      5  O   UNL     1      -5.359  12.422  18.322  0.00  0.00    +0.000 OA
ATOM      6  C   UNL     1      -3.128  11.964  19.216  0.00  0.00    +0.000 A 
ATOM      7  C   UNL     1      -2.064  11.164  18.707  0.00  0.00    +0.000 A 
ATOM      8  C   UNL     1      -0.909  10.813  19.425  0.00  0.00    +0.000 A 
ATOM      9  C   UNL     1      -0.876  11.186  20.787  0.00  0.00    +0.000 A 
ATOM     10  C   UNL     1       0.058  10.634  21.681  0.00  0.00    +0.000 A 
ATOM     11  C   UNL     1       0.930   9.641  21.246  0.00  0.00    +0.000 A 
ATOM     12  C   UNL     1       1.028   9.386  19.867  0.00  0.00    +0.000 A 
ATOM     13  C   UNL     1       1.859   8.538  19.097  0.00  0.00    +0.000 A 
ATOM     14  C   UNL     1       1.877   9.104  17.844  0.00  0.00    +0.000 A 
ATOM     15  N   UNL     1       0.739   9.865  17.729  0.00  0.00    +0.000 N 
ATOM     16  C   UNL     1       0.181  10.054  18.978  0.00  0.00    +0.000 A 
ATOM     17  C   UNL     1      -1.859  12.084  21.240  0.00  0.00    +0.000 A 
ATOM     18  N   UNL     1      -2.051  12.678  22.467  0.00  0.00    +0.000 N 
ATOM     19  C   UNL     1      -3.247  13.369  22.492  0.00  0.00    +0.000 A 
ATOM     20  C   UNL     1      -3.829  14.046  23.569  0.00  0.00    +0.000 A 
ATOM     21  C   UNL     1      -5.064  14.646  23.344  0.00  0.00    +0.000 A 
ATOM     22  C   UNL     1      -5.695  14.573  22.107  0.00  0.00    +0.000 A 
ATOM     23  C   UNL     1      -5.096  13.900  21.037  0.00  0.00    +0.000 A 
ATOM     24  C   UNL     1      -3.847  13.279  21.224  0.00  0.00    +0.000 A 
ATOM     25  C   UNL     1      -2.924  12.518  20.517  0.00  0.00    +0.000 A 
ATOM     26  H   UNL     1      -4.575  10.414  16.936  0.00  0.00    +0.000 HD
ATOM     27  H   UNL     1       0.470  10.379  16.900  0.00  0.00    +0.000 HD
ATOM     28  H   UNL     1      -1.436  12.586  23.253  0.00  0.00    +0.000 HD
ENDROOT
BRANCH  21  29
ATOM     29  O   UNL     1      -5.700  15.307  24.355  0.00  0.00    +0.000 OA
ATOM     30  H   UNL     1      -6.125  14.650  24.932  0.00  0.00    +0.000 HD
ENDBRANCH  21  29
TORSDOF 1
ENDMDL
MODEL 7
REMARK VINA RESULT:      -7.4      1.805      6.379
REMARK  Name = 
REMARK  1 active torsions:
REMARK  status: ('A' for Active; 'I' for Inactive)
REMARK    1  A    between atoms: C_21  and  O_22
REMARK                            x       y       z     vdW  Elec       q    Type
REMARK                         _______ _______ _______ _____ _____    ______ ____
ROOT
ATOM      1  O   UNL     1       4.690   2.409  18.876  0.00  0.00    +0.000 OA
ATOM      2  C   UNL     1       3.974   3.332  19.240  0.00  0.00    +0.000 C 
ATOM      3  N   UNL     1       3.389   3.383  20.479  0.00  0.00    +0.000 N 
ATOM      4  C   UNL     1       2.471   4.372  20.680  0.00  0.00    +0.000 C 
ATOM      5  O   UNL     1       1.755   4.428  21.670  0.00  0.00    +0.000 OA
ATOM      6  C   UNL     1       2.677   5.201  19.540  0.00  0.00    +0.000 A 
ATOM      7  C   UNL     1       3.574   4.573  18.628  0.00  0.00    +0.000 A 
ATOM      8  C   UNL     1       4.194   5.213  17.542  0.00  0.00    +0.000 A 
ATOM      9  C   UNL     1       4.000   6.608  17.439  0.00  0.00    +0.000 A 
ATOM     10  C   UNL     1       4.802   7.405  16.603  0.00  0.00    +0.000 A 
ATOM     11  C   UNL     1       5.865   6.832  15.912  0.00  0.00    +0.000 A 
ATOM     12  C   UNL     1       5.962   5.431  15.866  0.00  0.00    +0.000 A 
ATOM     13  C   UNL     1       6.836   4.543  15.193  0.00  0.00    +0.000 A 
ATOM     14  C   UNL     1       6.133   3.367  15.090  0.00  0.00    +0.000 A 
ATOM     15  N   UNL     1       5.187   3.373  16.086  0.00  0.00    +0.000 N 
ATOM     16  C   UNL     1       5.062   4.650  16.596  0.00  0.00    +0.000 A 
ATOM     17  C   UNL     1       3.014   7.191  18.256  0.00  0.00    +0.000 A 
ATOM     18  N   UNL     1       2.551   8.484  18.338  0.00  0.00    +0.000 N 
ATOM     19  C   UNL     1       1.681   8.623  19.403  0.00  0.00    +0.000 A 
ATOM     20  C   UNL     1       1.054   9.788  19.856  0.00  0.00    +0.000 A 
ATOM     21  C   UNL     1       0.236   9.669  20.976  0.00  0.00    +0.000 A 
ATOM     22  C   UNL     1       0.054   8.449  21.618  0.00  0.00    +0.000 A 
ATOM     23  C   UNL     1       0.680   7.292  21.147  0.00  0.00    +0.000 A 
ATOM     24  C   UNL     1       1.516   7.370  20.017  0.00  0.00    +0.000 A 
ATOM     25  C   UNL     1       2.327   6.553  19.238  0.00  0.00    +0.000 A 
ATOM     26  H   UNL     1       3.680   2.793  21.240  0.00  0.00    +0.000 HD
ATOM     27  H   UNL     1       4.538   2.618  16.271  0.00  0.00    +0.000 HD
ATOM     28  H   UNL     1       2.837   9.237  17.742  0.00  0.00    +0.000 HD
ENDROOT
BRANCH  21  29
ATOM     29  O   UNL     1      -0.393  10.768  21.487  0.00  0.00    +0.000 OA
ATOM     30  H   UNL     1      -1.312  10.771  21.170  0.00  0.00    +0.000 HD
ENDBRANCH  21  29
TORSDOF 1
ENDMDL
MODEL 8
REMARK VINA RESULT:      -7.3      9.524     11.615
REMARK  Name = 
REMARK  1 active torsions:
REMARK  status: ('A' for Active; 'I' for Inactive)
REMARK    1  A    between atoms: C_21  and  O_22
REMARK                            x       y       z     vdW  Elec       q    Type
REMARK                         _______ _______ _______ _____ _____    ______ ____
ROOT
ATOM      1  O   UNL     1       7.769  15.586  17.703  0.00  0.00    +0.000 OA
ATOM      2  C   UNL     1       7.517  15.194  18.833  0.00  0.00    +0.000 C 
ATOM      3  N   UNL     1       6.283  15.332  19.416  0.00  0.00    +0.000 N 
ATOM      4  C   UNL     1       6.195  15.020  20.741  0.00  0.00    +0.000 C 
ATOM      5  O   UNL     1       5.206  15.258  21.420  0.00  0.00    +0.000 OA
ATOM      6  C   UNL     1       7.440  14.368  20.973  0.00  0.00    +0.000 A 
ATOM      7  C   UNL     1       8.280  14.485  19.827  0.00  0.00    +0.000 A 
ATOM      8  C   UNL     1       9.456  13.746  19.615  0.00  0.00    +0.000 A 
ATOM      9  C   UNL     1       9.740  12.731  20.556  0.00  0.00    +0.000 A 
ATOM     10  C   UNL     1      10.694  11.730  20.295  0.00  0.00    +0.000 A 
ATOM     11  C   UNL     1      11.326  11.681  19.057  0.00  0.00    +0.000 A 
ATOM     12  C   UNL     1      11.185  12.774  18.184  0.00  0.00    +0.000 A 
ATOM     13  C   UNL     1      11.753  13.086  16.926  0.00  0.00    +0.000 A 
ATOM     14  C   UNL     1      11.681  14.456  16.836  0.00  0.00    +0.000 A 
ATOM     15  N   UNL     1      10.674  14.863  17.677  0.00  0.00    +0.000 N 
ATOM     16  C   UNL     1      10.337  13.830  18.528  0.00  0.00    +0.000 A 
ATOM     17  C   UNL     1       8.987  12.714  21.743  0.00  0.00    +0.000 A 
ATOM     18  N   UNL     1       9.068  11.912  22.858  0.00  0.00    +0.000 N 
ATOM     19  C   UNL     1       8.013  12.160  23.715  0.00  0.00    +0.000 A 
ATOM     20  C   UNL     1       7.705  11.509  24.914  0.00  0.00    +0.000 A 
ATOM     21  C   UNL     1       6.561  11.931  25.585  0.00  0.00    +0.000 A 
ATOM     22  C   UNL     1       5.757  12.950  25.085  0.00  0.00    +0.000 A 
ATOM     23  C   UNL     1       6.083  13.596  23.889  0.00  0.00    +0.000 A 
ATOM     24  C   UNL     1       7.232  13.199  23.179  0.00  0.00    +0.000 A 
ATOM     25  C   UNL     1       7.913  13.501  22.006  0.00  0.00    +0.000 A 
ATOM     26  H   UNL     1       5.456  15.554  18.886  0.00  0.00    +0.000 HD
ATOM     27  H   UNL     1      10.375  15.823  17.796  0.00  0.00    +0.000 HD
ATOM     28  H   UNL     1       9.767  11.209  23.013  0.00  0.00    +0.000 HD
ENDROOT
BRANCH  21  29
ATOM     29  O   UNL     1       6.188  11.329  26.752  0.00  0.00    +0.000 OA
ATOM     30  H   UNL     1       6.912  11.428  27.394  0.00  0.00    +0.000 HD
ENDBRANCH  21  29
TORSDOF 1
ENDMDL
MODEL 9
REMARK VINA RESULT:      -7.1      4.052      7.021
REMARK  Name = 
REMARK  1 active torsions:
REMARK  status: ('A' for Active; 'I' for Inactive)
REMARK    1  A    between atoms: C_21  and  O_22
REMARK                            x       y       z     vdW  Elec       q    Type
REMARK                         _______ _______ _______ _____ _____    ______ ____
ROOT
ATOM      1  O   UNL     1       0.168  14.308  18.932  0.00  0.00    +0.000 OA
ATOM      2  C   UNL     1       0.563  13.152  18.889  0.00  0.00    +0.000 C 
ATOM      3  N   UNL     1       1.656  12.760  18.159  0.00  0.00    +0.000 N 
ATOM      4  C   UNL     1       1.870  11.416  18.054  0.00  0.00    +0.000 C 
ATOM      5  O   UNL     1       2.699  10.928  17.299  0.00  0.00    +0.000 OA
ATOM      6  C   UNL     1       0.972  10.898  19.031  0.00  0.00    +0.000 A 
ATOM      7  C   UNL     1       0.140  11.938  19.539  0.00  0.00    +0.000 A 
ATOM      8  C   UNL     1      -0.664  11.835  20.686  0.00  0.00    +0.000 A 
ATOM      9  C   UNL     1      -0.529  10.652  21.446  0.00  0.00    +0.000 A 
ATOM     10  C   UNL     1      -1.028  10.556  22.757  0.00  0.00    +0.000 A 
ATOM     11  C   UNL     1      -1.605  11.669  23.361  0.00  0.00    +0.000 A 
ATOM     12  C   UNL     1      -1.903  12.789  22.567  0.00  0.00    +0.000 A 
ATOM     13  C   UNL     1      -2.560  14.015  22.830  0.00  0.00    +0.000 A 
ATOM     14  C   UNL     1      -3.020  14.440  21.607  0.00  0.00    +0.000 A 
ATOM     15  N   UNL     1      -2.237  13.838  20.651  0.00  0.00    +0.000 N 
ATOM     16  C   UNL     1      -1.521  12.806  21.222  0.00  0.00    +0.000 A 
ATOM     17  C   UNL     1       0.186   9.586  20.870  0.00  0.00    +0.000 A 
ATOM     18  N   UNL     1       0.429   8.308  21.320  0.00  0.00    +0.000 N 
ATOM     19  C   UNL     1       1.318   7.659  20.484  0.00  0.00    +0.000 A 
ATOM     20  C   UNL     1       1.863   6.380  20.633  0.00  0.00    +0.000 A 
ATOM     21  C   UNL     1       2.764   5.961  19.659  0.00  0.00    +0.000 A 
ATOM     22  C   UNL     1       3.111   6.778  18.588  0.00  0.00    +0.000 A 
ATOM     23  C   UNL     1       2.550   8.050  18.448  0.00  0.00    +0.000 A 
ATOM     24  C   UNL     1       1.635   8.512  19.413  0.00  0.00    +0.000 A 
ATOM     25  C   UNL     1       0.878   9.641  19.704  0.00  0.00    +0.000 A 
ATOM     26  H   UNL     1       2.328  13.415  17.798  0.00  0.00    +0.000 HD
ATOM     27  H   UNL     1      -2.328  13.988  19.654  0.00  0.00    +0.000 HD
ATOM     28  H   UNL     1       0.055   7.913  22.162  0.00  0.00    +0.000 HD
ENDROOT
BRANCH  21  29
ATOM     29  O   UNL     1       3.352   4.731  19.750  0.00  0.00    +0.000 OA
ATOM     30  H   UNL     1       3.321   4.444  20.678  0.00  0.00    +0.000 HD
ENDBRANCH  21  29
TORSDOF 1
ENDMDL
