MODEL 1
REMARK VINA RESULT:      -7.8      0.000      0.000
REMARK  Name = 
REMARK  7 active torsions:
REMARK  status: ('A' for Active; 'I' for Inactive)
REMARK    1  A    between atoms: N_3  and  C_4
REMARK    2  A    between atoms: N_11  and  C_12
REMARK    3  A    between atoms: C_17  and  O_18
REMARK    4  A    between atoms: O_18  and  C_19
REMARK    5  A    between atoms: C_19  and  C_20
REMARK    6  A    between atoms: C_20  and  C_21
REMARK    7  A    between atoms: C_21  and  N_22
REMARK                            x       y       z     vdW  Elec       q    Type
REMARK                         _______ _______ _______ _____ _____    ______ ____
ROOT
ATOM      1  C   UNL     1       7.128   6.357  17.484  0.00  0.00    +0.000 A 
ATOM      2  C   UNL     1       7.619   5.610  16.411  0.00  0.00    +0.000 A 
ATOM      3  C   UNL     1       6.769   4.879  15.591  0.00  0.00    +0.000 A 
ATOM      4  C   UNL     1       5.411   4.875  15.843  0.00  0.00    +0.000 A 
ATOM      5  F   UNL     1       4.634   4.170  15.004  0.00  0.00    +0.000 F 
ATOM      6  C   UNL     1       4.884   5.579  16.928  0.00  0.00    +0.000 A 
ATOM      7  C   UNL     1       5.750   6.319  17.751  0.00  0.00    +0.000 A 
ENDROOT
BRANCH   1  11
ATOM      8  O   UNL     1       7.463   9.243  17.469  0.00  0.00    +0.000 OA
ATOM      9  C   UNL     1       8.087   8.527  18.242  0.00  0.00    +0.000 C 
ATOM     10  N   UNL     1       9.049   9.002  19.119  0.00  0.00    +0.000 N 
ATOM     11  N   UNL     1       7.953   7.150  18.318  0.00  0.00    +0.000 N 
ATOM     12  H   UNL     1       9.658   8.316  19.536  0.00  0.00    +0.000 HD
ATOM     13  H   UNL     1       8.430   6.676  19.072  0.00  0.00    +0.000 HD
BRANCH  10  14
ATOM     14  C   UNL     1       9.463  10.350  19.206  0.00  0.00    +0.000 A 
ATOM     15  C   UNL     1       9.371  11.114  20.375  0.00  0.00    +0.000 A 
ATOM     16  C   UNL     1       9.704  12.475  20.373  0.00  0.00    +0.000 A 
ATOM     17  C   UNL     1      10.151  13.066  19.199  0.00  0.00    +0.000 A 
ATOM     18 CL   UNL     1      10.511  14.750  19.178  0.00  0.00    +0.000 Cl
ATOM     19  C   UNL     1      10.292  12.312  18.040  0.00  0.00    +0.000 A 
ATOM     20  C   UNL     1       9.960  10.954  18.043  0.00  0.00    +0.000 A 
ENDBRANCH  10  14
ENDBRANCH   1  11
BRANCH   6  21
ATOM     21  O   UNL     1       3.568   5.633  17.295  0.00  0.00    +0.000 OA
BRANCH  21  22
ATOM     22  C   UNL     1       3.204   6.661  18.222  0.00  0.00    +0.000 C 
BRANCH  22  23
ATOM     23  C   UNL     1       2.296   6.048  19.285  0.00  0.00    +0.000 C 
BRANCH  23  24
ATOM     24  C   UNL     1       3.033   4.971  20.093  0.00  0.00    +0.000 C 
BRANCH  24  25
ATOM     25  N   UNL     1       2.276   3.726  20.302  0.00  0.00    +0.000 NA
ATOM     26  C   UNL     1       3.177   2.632  20.740  0.00  0.00    +0.000 C 
ATOM     27  C   UNL     1       4.055   2.084  19.602  0.00  0.00    +0.000 C 
ATOM     28  O   UNL     1       3.245   1.553  18.548  0.00  0.00    +0.000 OA
ATOM     29  C   UNL     1       2.352   2.548  18.030  0.00  0.00    +0.000 C 
ATOM     30  C   UNL     1       1.519   3.232  19.132  0.00  0.00    +0.000 C 
ENDBRANCH  24  25
ENDBRANCH  23  24
ENDBRANCH  22  23
ENDBRANCH  21  22
ENDBRANCH   6  21
TORSDOF 7
ENDMDL
MODEL 2
REMARK VINA RESULT:      -7.7      1.279      1.314
REMARK  Name = 
REMARK  7 active torsions:
REMARK  status: ('A' for Active; 'I' for Inactive)
REMARK    1  A    between atoms: N_3  and  C_4
REMARK    2  A    between atoms: N_11  and  C_12
REMARK    3  A    between atoms: C_17  and  O_18
REMARK    4  A    between atoms: O_18  and  C_19
REMARK    5  A    between atoms: C_19  and  C_20
REMARK    6  A    between atoms: C_20  and  C_21
REMARK    7  A    between atoms: C_21  and  N_22
REMARK                            x       y       z     vdW  Elec       q    Type
REMARK                         _______ _______ _______ _____ _____    ______ ____
ROOT
ATOM      1  C   UNL     1       6.270   6.744  17.077  0.00  0.00    +0.000 A 
ATOM      2  C   UNL     1       6.940   5.593  16.659  0.00  0.00    +0.000 A 
ATOM      3  C   UNL     1       6.316   4.351  16.664  0.00  0.00    +0.000 A 
ATOM      4  C   UNL     1       5.010   4.244  17.102  0.00  0.00    +0.000 A 
ATOM      5  F   UNL     1       4.449   3.024  17.062  0.00  0.00    +0.000 F 
ATOM      6  C   UNL     1       4.317   5.365  17.562  0.00  0.00    +0.000 A 
ATOM      7  C   UNL     1       4.954   6.618  17.550  0.00  0.00    +0.000 A 
ENDROOT
BRANCH   1  11
ATOM      8  O   UNL     1       8.567   7.716  18.567  0.00  0.00    +0.000 OA
ATOM      9  C   UNL     1       7.939   8.442  17.806  0.00  0.00    +0.000 C 
ATOM     10  N   UNL     1       8.209   9.791  17.638  0.00  0.00    +0.000 N 
ATOM     11  N   UNL     1       6.854   8.034  17.048  0.00  0.00    +0.000 N 
ATOM     12  H   UNL     1       7.500  10.339  17.177  0.00  0.00    +0.000 HD
ATOM     13  H   UNL     1       6.488   8.686  16.369  0.00  0.00    +0.000 HD
BRANCH  10  14
ATOM     14  C   UNL     1       9.201  10.507  18.343  0.00  0.00    +0.000 A 
ATOM     15  C   UNL     1       9.201  10.665  19.734  0.00  0.00    +0.000 A 
ATOM     16  C   UNL     1      10.155  11.471  20.368  0.00  0.00    +0.000 A 
ATOM     17  C   UNL     1      11.127  12.105  19.605  0.00  0.00    +0.000 A 
ATOM     18 CL   UNL     1      12.270  13.138  20.373  0.00  0.00    +0.000 Cl
ATOM     19  C   UNL     1      11.171  11.923  18.228  0.00  0.00    +0.000 A 
ATOM     20  C   UNL     1      10.218  11.118  17.597  0.00  0.00    +0.000 A 
ENDBRANCH  10  14
ENDBRANCH   1  11
BRANCH   6  21
ATOM     21  O   UNL     1       3.036   5.384  18.041  0.00  0.00    +0.000 OA
BRANCH  21  22
ATOM     22  C   UNL     1       2.745   6.355  19.052  0.00  0.00    +0.000 C 
BRANCH  22  23
ATOM     23  C   UNL     1       1.659   5.787  19.962  0.00  0.00    +0.000 C 
BRANCH  23  24
ATOM     24  C   UNL     1       2.263   4.938  21.088  0.00  0.00    +0.000 C 
BRANCH  24  25
ATOM     25  N   UNL     1       1.671   3.599  21.242  0.00  0.00    +0.000 NA
ATOM     26  C   UNL     1       2.728   2.575  21.422  0.00  0.00    +0.000 C 
ATOM     27  C   UNL     1       3.485   2.255  20.122  0.00  0.00    +0.000 C 
ATOM     28  O   UNL     1       2.589   1.751  19.126  0.00  0.00    +0.000 OA
ATOM     29  C   UNL     1       1.537   2.687  18.853  0.00  0.00    +0.000 C 
ATOM     30  C   UNL     1       0.807   3.150  20.129  0.00  0.00    +0.000 C 
ENDBRANCH  24  25
ENDBRANCH  23  24
ENDBRANCH  22  23
ENDBRANCH  21  22
ENDBRANCH   6  21
TORSDOF 7
ENDMDL
MODEL 3
REMARK VINA RESULT:      -7.7      0.717      1.155
REMARK  Name = 
REMARK  7 active torsions:
REMARK  status: ('A' for Active; 'I' for Inactive)
REMARK    1  A    between atoms: N_3  and  C_4
REMARK    2  A    between atoms: N_11  and  C_12
REMARK    3  A    between atoms: C_17  and  O_18
REMARK    4  A    between atoms: O_18  and  C_19
REMARK    5  A    between atoms: C_19  and  C_20
REMARK    6  A    between atoms: C_20  and  C_21
REMARK    7  A    between atoms: C_21  and  N_22
REMARK                            x       y       z     vdW  Elec       q    Type
REMARK                         _______ _______ _______ _____ _____    ______ ____
ROOT
ATOM      1  C   UNL     1       7.370   6.523  18.025  0.00  0.00    +0.000 A 
ATOM      2  C   UNL     1       7.759   5.246  17.616  0.00  0.00    +0.000 A 
ATOM      3  C   UNL     1       6.904   4.428  16.888  0.00  0.00    +0.000 A 
ATOM      4  C   UNL     1       5.636   4.874  16.571  0.00  0.00    +0.000 A 
ATOM      5  F   UNL     1       4.861   4.051  15.845  0.00  0.00    +0.000 F 
ATOM      6  C   UNL     1       5.195   6.130  16.992  0.00  0.00    +0.000 A 
ATOM      7  C   UNL     1       6.067   6.953  17.725  0.00  0.00    +0.000 A 
ENDROOT
BRANCH   1  11
ATOM      8  O   UNL     1       7.699   9.387  17.662  0.00  0.00    +0.000 OA
ATOM      9  C   UNL     1       8.352   8.764  18.489  0.00  0.00    +0.000 C 
ATOM     10  N   UNL     1       9.345   9.335  19.269  0.00  0.00    +0.000 N 
ATOM     11  N   UNL     1       8.224   7.405  18.730  0.00  0.00    +0.000 N 
ATOM     12  H   UNL     1       9.970   8.701  19.740  0.00  0.00    +0.000 HD
ATOM     13  H   UNL     1       8.729   7.021  19.515  0.00  0.00    +0.000 HD
BRANCH  10  14
ATOM     14  C   UNL     1       9.760  10.682  19.183  0.00  0.00    +0.000 A 
ATOM     15  C   UNL     1      10.093  11.314  17.979  0.00  0.00    +0.000 A 
ATOM     16  C   UNL     1      10.596  12.623  17.968  0.00  0.00    +0.000 A 
ATOM     17  C   UNL     1      10.744  13.306  19.167  0.00  0.00    +0.000 A 
ATOM     18 CL   UNL     1      11.410  14.894  19.163  0.00  0.00    +0.000 Cl
ATOM     19  C   UNL     1      10.376  12.711  20.368  0.00  0.00    +0.000 A 
ATOM     20  C   UNL     1       9.875  11.406  20.378  0.00  0.00    +0.000 A 
ENDBRANCH  10  14
ENDBRANCH   1  11
BRANCH   6  21
ATOM     21  O   UNL     1       3.960   6.673  16.763  0.00  0.00    +0.000 OA
BRANCH  21  22
ATOM     22  C   UNL     1       3.182   7.001  17.918  0.00  0.00    +0.000 C 
BRANCH  22  23
ATOM     23  C   UNL     1       2.270   5.817  18.233  0.00  0.00    +0.000 C 
BRANCH  23  24
ATOM     24  C   UNL     1       2.729   5.083  19.500  0.00  0.00    +0.000 C 
BRANCH  24  25
ATOM     25  N   UNL     1       2.065   3.792  19.743  0.00  0.00    +0.000 NA
ATOM     26  C   UNL     1       2.940   2.894  20.535  0.00  0.00    +0.000 C 
ATOM     27  C   UNL     1       4.105   2.312  19.715  0.00  0.00    +0.000 C 
ATOM     28  O   UNL     1       3.613   1.541  18.614  0.00  0.00    +0.000 OA
ATOM     29  C   UNL     1       2.773   2.332  17.762  0.00  0.00    +0.000 C 
ATOM     30  C   UNL     1       1.648   3.048  18.535  0.00  0.00    +0.000 C 
ENDBRANCH  24  25
ENDBRANCH  23  24
ENDBRANCH  22  23
ENDBRANCH  21  22
ENDBRANCH   6  21
TORSDOF 7
ENDMDL
MODEL 4
REMARK VINA RESULT:      -7.4      0.916      1.526
REMARK  Name = 
REMARK  7 active torsions:
REMARK  status: ('A' for Active; 'I' for Inactive)
REMARK    1  A    between atoms: N_3  and  C_4
REMARK    2  A    between atoms: N_11  and  C_12
REMARK    3  A    between atoms: C_17  and  O_18
REMARK    4  A    between atoms: O_18  and  C_19
REMARK    5  A    between atoms: C_19  and  C_20
REMARK    6  A    between atoms: C_20  and  C_21
REMARK    7  A    between atoms: C_21  and  N_22
REMARK                            x       y       z     vdW  Elec       q    Type
REMARK                         _______ _______ _______ _____ _____    ______ ____
ROOT
ATOM      1  C   UNL     1       7.149   6.289  17.374  0.00  0.00    +0.000 A 
ATOM      2  C   UNL     1       7.683   5.642  16.257  0.00  0.00    +0.000 A 
ATOM      3  C   UNL     1       6.879   4.905  15.396  0.00  0.00    +0.000 A 
ATOM      4  C   UNL     1       5.525   4.794  15.651  0.00  0.00    +0.000 A 
ATOM      5  F   UNL     1       4.793   4.089  14.772  0.00  0.00    +0.000 F 
ATOM      6  C   UNL     1       4.959   5.395  16.777  0.00  0.00    +0.000 A 
ATOM      7  C   UNL     1       5.779   6.141  17.641  0.00  0.00    +0.000 A 
ENDROOT
BRANCH   1  11
ATOM      8  O   UNL     1       7.557   9.165  17.314  0.00  0.00    +0.000 OA
ATOM      9  C   UNL     1       8.098   8.456  18.153  0.00  0.00    +0.000 C 
ATOM     10  N   UNL     1       8.997   8.932  19.093  0.00  0.00    +0.000 N 
ATOM     11  N   UNL     1       7.924   7.084  18.253  0.00  0.00    +0.000 N 
ATOM     12  H   UNL     1       9.553   8.243  19.576  0.00  0.00    +0.000 HD
ATOM     13  H   UNL     1       8.327   6.620  19.054  0.00  0.00    +0.000 HD
BRANCH  10  14
ATOM     14  C   UNL     1       9.438  10.271  19.180  0.00  0.00    +0.000 A 
ATOM     15  C   UNL     1       9.888  11.010  18.080  0.00  0.00    +0.000 A 
ATOM     16  C   UNL     1      10.408  12.301  18.244  0.00  0.00    +0.000 A 
ATOM     17  C   UNL     1      10.455  12.860  19.514  0.00  0.00    +0.000 A 
ATOM     18 CL   UNL     1      11.141  14.426  19.728  0.00  0.00    +0.000 Cl
ATOM     19  C   UNL     1       9.970  12.159  20.612  0.00  0.00    +0.000 A 
ATOM     20  C   UNL     1       9.452  10.871  20.446  0.00  0.00    +0.000 A 
ENDBRANCH  10  14
ENDBRANCH   1  11
BRANCH   6  21
ATOM     21  O   UNL     1       3.644   5.337  17.149  0.00  0.00    +0.000 OA
BRANCH  21  22
ATOM     22  C   UNL     1       3.100   6.514  17.756  0.00  0.00    +0.000 C 
BRANCH  22  23
ATOM     23  C   UNL     1       1.882   6.107  18.582  0.00  0.00    +0.000 C 
BRANCH  23  24
ATOM     24  C   UNL     1       2.284   5.215  19.764  0.00  0.00    +0.000 C 
BRANCH  24  25
ATOM     25  N   UNL     1       1.900   3.800  19.632  0.00  0.00    +0.000 NA
ATOM     26  C   UNL     1       1.165   3.342  20.836  0.00  0.00    +0.000 C 
ATOM     27  C   UNL     1       2.078   3.136  22.057  0.00  0.00    +0.000 C 
ATOM     28  O   UNL     1       3.075   2.147  21.782  0.00  0.00    +0.000 OA
ATOM     29  C   UNL     1       3.868   2.512  20.645  0.00  0.00    +0.000 C 
ATOM     30  C   UNL     1       3.013   2.853  19.408  0.00  0.00    +0.000 C 
ENDBRANCH  24  25
ENDBRANCH  23  24
ENDBRANCH  22  23
ENDBRANCH  21  22
ENDBRANCH   6  21
TORSDOF 7
ENDMDL
MODEL 5
REMARK VINA RESULT:      -7.4      4.581      6.901
REMARK  Name = 
REMARK  7 active torsions:
REMARK  status: ('A' for Active; 'I' for Inactive)
REMARK    1  A    between atoms: N_3  and  C_4
REMARK    2  A    between atoms: N_11  and  C_12
REMARK    3  A    between atoms: C_17  and  O_18
REMARK    4  A    between atoms: O_18  and  C_19
REMARK    5  A    between atoms: C_19  and  C_20
REMARK    6  A    between atoms: C_20  and  C_21
REMARK    7  A    between atoms: C_21  and  N_22
REMARK                            x       y       z     vdW  Elec       q    Type
REMARK                         _______ _______ _______ _____ _____    ______ ____
ROOT
ATOM      1  C   UNL     1       2.722   5.616  18.305  0.00  0.00    +0.000 A 
ATOM      2  C   UNL     1       1.851   4.548  18.536  0.00  0.00    +0.000 A 
ATOM      3  C   UNL     1       2.312   3.335  19.035  0.00  0.00    +0.000 A 
ATOM      4  C   UNL     1       3.658   3.170  19.297  0.00  0.00    +0.000 A 
ATOM      5  F   UNL     1       4.043   1.986  19.800  0.00  0.00    +0.000 F 
ATOM      6  C   UNL     1       4.566   4.201  19.045  0.00  0.00    +0.000 A 
ATOM      7  C   UNL     1       4.092   5.426  18.544  0.00  0.00    +0.000 A 
ENDROOT
BRANCH   1  11
ATOM      8  O   UNL     1       1.992   7.957  19.863  0.00  0.00    +0.000 OA
ATOM      9  C   UNL     1       1.930   7.953  18.641  0.00  0.00    +0.000 C 
ATOM     10  N   UNL     1       1.448   9.017  17.895  0.00  0.00    +0.000 N 
ATOM     11  N   UNL     1       2.289   6.881  17.839  0.00  0.00    +0.000 N 
ATOM     12  H   UNL     1       1.224   8.827  16.931  0.00  0.00    +0.000 HD
ATOM     13  H   UNL     1       2.309   7.031  16.841  0.00  0.00    +0.000 HD
BRANCH  10  14
ATOM     14  C   UNL     1       0.929  10.212  18.440  0.00  0.00    +0.000 A 
ATOM     15  C   UNL     1       1.693  11.368  18.639  0.00  0.00    +0.000 A 
ATOM     16  C   UNL     1       1.148  12.490  19.277  0.00  0.00    +0.000 A 
ATOM     17  C   UNL     1      -0.174  12.459  19.699  0.00  0.00    +0.000 A 
ATOM     18 CL   UNL     1      -0.833  13.816  20.530  0.00  0.00    +0.000 Cl
ATOM     19  C   UNL     1      -0.962  11.337  19.469  0.00  0.00    +0.000 A 
ATOM     20  C   UNL     1      -0.417  10.219  18.832  0.00  0.00    +0.000 A 
ENDBRANCH  10  14
ENDBRANCH   1  11
BRANCH   6  21
ATOM     21  O   UNL     1       5.919   4.152  19.240  0.00  0.00    +0.000 OA
BRANCH  21  22
ATOM     22  C   UNL     1       6.603   5.408  19.293  0.00  0.00    +0.000 C 
BRANCH  22  23
ATOM     23  C   UNL     1       7.744   5.376  18.279  0.00  0.00    +0.000 C 
BRANCH  23  24
ATOM     24  C   UNL     1       7.329   4.644  16.997  0.00  0.00    +0.000 C 
BRANCH  24  25
ATOM     25  N   UNL     1       7.072   5.516  15.839  0.00  0.00    +0.000 NA
ATOM     26  C   UNL     1       5.626   5.825  15.725  0.00  0.00    +0.000 C 
ATOM     27  C   UNL     1       4.796   4.639  15.206  0.00  0.00    +0.000 C 
ATOM     28  O   UNL     1       5.236   4.245  13.902  0.00  0.00    +0.000 OA
ATOM     29  C   UNL     1       6.626   3.893  13.909  0.00  0.00    +0.000 C 
ATOM     30  C   UNL     1       7.514   4.989  14.530  0.00  0.00    +0.000 C 
ENDBRANCH  24  25
ENDBRANCH  23  24
ENDBRANCH  22  23
ENDBRANCH  21  22
ENDBRANCH   6  21
TORSDOF 7
ENDMDL
MODEL 6
REMARK VINA RESULT:      -7.3      1.813      2.379
REMARK  Name = 
REMARK  7 active torsions:
REMARK  status: ('A' for Active; 'I' for Inactive)
REMARK    1  A    between atoms: N_3  and  C_4
REMARK    2  A    between atoms: N_11  and  C_12
REMARK    3  A    between atoms: C_17  and  O_18
REMARK    4  A    between atoms: O_18  and  C_19
REMARK    5  A    between atoms: C_19  and  C_20
REMARK    6  A    between atoms: C_20  and  C_21
REMARK    7  A    between atoms: C_21  and  N_22
REMARK                            x       y       z     vdW  Elec       q    Type
REMARK                         _______ _______ _______ _____ _____    ______ ____
ROOT
ATOM      1  C   UNL     1       7.654   7.928  17.843  0.00  0.00    +0.000 A 
ATOM      2  C   UNL     1       8.317   6.970  18.614  0.00  0.00    +0.000 A 
ATOM      3  C   UNL     1       7.752   5.724  18.861  0.00  0.00    +0.000 A 
ATOM      4  C   UNL     1       6.504   5.426  18.350  0.00  0.00    +0.000 A 
ATOM      5  F   UNL     1       6.017   4.199  18.602  0.00  0.00    +0.000 F 
ATOM      6  C   UNL     1       5.793   6.369  17.606  0.00  0.00    +0.000 A 
ATOM      7  C   UNL     1       6.373   7.625  17.357  0.00  0.00    +0.000 A 
ENDROOT
BRANCH   1  11
ATOM      8  O   UNL     1       9.137   9.722  19.581  0.00  0.00    +0.000 OA
ATOM      9  C   UNL     1       8.889  10.013  18.418  0.00  0.00    +0.000 C 
ATOM     10  N   UNL     1       9.219  11.230  17.845  0.00  0.00    +0.000 N 
ATOM     11  N   UNL     1       8.211   9.191  17.531  0.00  0.00    +0.000 N 
ATOM     12  H   UNL     1       8.771  11.454  16.971  0.00  0.00    +0.000 HD
ATOM     13  H   UNL     1       8.167   9.484  16.566  0.00  0.00    +0.000 HD
BRANCH  10  14
ATOM     14  C   UNL     1       9.837  12.300  18.530  0.00  0.00    +0.000 A 
ATOM     15  C   UNL     1       9.130  13.270  19.249  0.00  0.00    +0.000 A 
ATOM     16  C   UNL     1       9.790  14.365  19.823  0.00  0.00    +0.000 A 
ATOM     17  C   UNL     1      11.168  14.475  19.692  0.00  0.00    +0.000 A 
ATOM     18 CL   UNL     1      11.977  15.845  20.350  0.00  0.00    +0.000 Cl
ATOM     19  C   UNL     1      11.893  13.497  19.021  0.00  0.00    +0.000 A 
ATOM     20  C   UNL     1      11.233  12.406  18.449  0.00  0.00    +0.000 A 
ENDBRANCH  10  14
ENDBRANCH   1  11
BRANCH   6  21
ATOM     21  O   UNL     1       4.545   6.203  17.070  0.00  0.00    +0.000 OA
BRANCH  21  22
ATOM     22  C   UNL     1       3.505   7.028  17.603  0.00  0.00    +0.000 C 
BRANCH  22  23
ATOM     23  C   UNL     1       2.408   6.119  18.153  0.00  0.00    +0.000 C 
BRANCH  23  24
ATOM     24  C   UNL     1       2.931   5.246  19.301  0.00  0.00    +0.000 C 
BRANCH  24  25
ATOM     25  N   UNL     1       2.781   3.796  19.096  0.00  0.00    +0.000 NA
ATOM     26  C   UNL     1       1.353   3.434  18.935  0.00  0.00    +0.000 C 
ATOM     27  C   UNL     1       0.566   3.481  20.256  0.00  0.00    +0.000 C 
ATOM     28  O   UNL     1       1.118   2.563  21.205  0.00  0.00    +0.000 OA
ATOM     29  C   UNL     1       2.501   2.848  21.458  0.00  0.00    +0.000 C 
ATOM     30  C   UNL     1       3.335   2.938  20.165  0.00  0.00    +0.000 C 
ENDBRANCH  24  25
ENDBRANCH  23  24
ENDBRANCH  22  23
ENDBRANCH  21  22
ENDBRANCH   6  21
TORSDOF 7
ENDMDL
MODEL 7
REMARK VINA RESULT:      -7.3      1.199      1.353
REMARK  Name = 
REMARK  7 active torsions:
REMARK  status: ('A' for Active; 'I' for Inactive)
REMARK    1  A    between atoms: N_3  and  C_4
REMARK    2  A    between atoms: N_11  and  C_12
REMARK    3  A    between atoms: C_17  and  O_18
REMARK    4  A    between atoms: O_18  and  C_19
REMARK    5  A    between atoms: C_19  and  C_20
REMARK    6  A    between atoms: C_20  and  C_21
REMARK    7  A    between atoms: C_21  and  N_22
REMARK                            x       y       z     vdW  Elec       q    Type
REMARK                         _______ _______ _______ _____ _____    ______ ____
ROOT
ATOM      1  C   UNL     1       7.662   6.814  18.273  0.00  0.00    +0.000 A 
ATOM      2  C   UNL     1       8.019   5.464  18.256  0.00  0.00    +0.000 A 
ATOM      3  C   UNL     1       7.182   4.502  17.702  0.00  0.00    +0.000 A 
ATOM      4  C   UNL     1       5.965   4.880  17.169  0.00  0.00    +0.000 A 
ATOM      5  F   UNL     1       5.208   3.912  16.626  0.00  0.00    +0.000 F 
ATOM      6  C   UNL     1       5.555   6.214  17.200  0.00  0.00    +0.000 A 
ATOM      7  C   UNL     1       6.409   7.181  17.759  0.00  0.00    +0.000 A 
ENDROOT
BRANCH   1  11
ATOM      8  O   UNL     1       7.696   9.639  17.595  0.00  0.00    +0.000 OA
ATOM      9  C   UNL     1       8.484   9.161  18.402  0.00  0.00    +0.000 C 
ATOM     10  N   UNL     1       9.497   9.889  19.005  0.00  0.00    +0.000 N 
ATOM     11  N   UNL     1       8.503   7.831  18.788  0.00  0.00    +0.000 N 
ATOM     12  H   UNL     1      10.221   9.359  19.464  0.00  0.00    +0.000 HD
ATOM     13  H   UNL     1       9.118   7.574  19.546  0.00  0.00    +0.000 HD
BRANCH  10  14
ATOM     14  C   UNL     1       9.779  11.247  18.741  0.00  0.00    +0.000 A 
ATOM     15  C   UNL     1       9.143  12.311  19.391  0.00  0.00    +0.000 A 
ATOM     16  C   UNL     1       9.392  13.638  19.014  0.00  0.00    +0.000 A 
ATOM     17  C   UNL     1      10.299  13.898  17.996  0.00  0.00    +0.000 A 
ATOM     18 CL   UNL     1      10.569  15.523  17.494  0.00  0.00    +0.000 Cl
ATOM     19  C   UNL     1      10.975  12.857  17.371  0.00  0.00    +0.000 A 
ATOM     20  C   UNL     1      10.725  11.534  17.747  0.00  0.00    +0.000 A 
ENDBRANCH  10  14
ENDBRANCH   1  11
BRANCH   6  21
ATOM     21  O   UNL     1       4.369   6.708  16.730  0.00  0.00    +0.000 OA
BRANCH  21  22
ATOM     22  C   UNL     1       3.425   7.147  17.711  0.00  0.00    +0.000 C 
BRANCH  22  23
ATOM     23  C   UNL     1       2.536   5.963  18.084  0.00  0.00    +0.000 C 
BRANCH  23  24
ATOM     24  C   UNL     1       2.708   5.580  19.559  0.00  0.00    +0.000 C 
BRANCH  24  25
ATOM     25  N   UNL     1       1.634   4.738  20.111  0.00  0.00    +0.000 NA
ATOM     26  C   UNL     1       2.128   3.946  21.263  0.00  0.00    +0.000 C 
ATOM     27  C   UNL     1       3.034   2.776  20.845  0.00  0.00    +0.000 C 
ATOM     28  O   UNL     1       2.328   1.868  19.994  0.00  0.00    +0.000 OA
ATOM     29  C   UNL     1       1.831   2.533  18.825  0.00  0.00    +0.000 C 
ATOM     30  C   UNL     1       1.009   3.793  19.162  0.00  0.00    +0.000 C 
ENDBRANCH  24  25
ENDBRANCH  23  24
ENDBRANCH  22  23
ENDBRANCH  21  22
ENDBRANCH   6  21
TORSDOF 7
ENDMDL
MODEL 8
REMARK VINA RESULT:      -7.3      4.583      7.636
REMARK  Name = 
REMARK  7 active torsions:
REMARK  status: ('A' for Active; 'I' for Inactive)
REMARK    1  A    between atoms: N_3  and  C_4
REMARK    2  A    between atoms: N_11  and  C_12
REMARK    3  A    between atoms: C_17  and  O_18
REMARK    4  A    between atoms: O_18  and  C_19
REMARK    5  A    between atoms: C_19  and  C_20
REMARK    6  A    between atoms: C_20  and  C_21
REMARK    7  A    between atoms: C_21  and  N_22
REMARK                            x       y       z     vdW  Elec       q    Type
REMARK                         _______ _______ _______ _____ _____    ______ ____
ROOT
ATOM      1  C   UNL     1       1.985   5.401  20.489  0.00  0.00    +0.000 A 
ATOM      2  C   UNL     1       2.000   4.387  21.449  0.00  0.00    +0.000 A 
ATOM      3  C   UNL     1       1.993   3.047  21.084  0.00  0.00    +0.000 A 
ATOM      4  C   UNL     1       1.956   2.702  19.746  0.00  0.00    +0.000 A 
ATOM      5  F   UNL     1       1.975   1.391  19.451  0.00  0.00    +0.000 F 
ATOM      6  C   UNL     1       1.904   3.686  18.757  0.00  0.00    +0.000 A 
ATOM      7  C   UNL     1       1.915   5.040  19.134  0.00  0.00    +0.000 A 
ENDROOT
BRANCH   1  11
ATOM      8  O   UNL     1      -0.209   7.161  21.217  0.00  0.00    +0.000 OA
ATOM      9  C   UNL     1       0.942   7.570  21.132  0.00  0.00    +0.000 C 
ATOM     10  N   UNL     1       1.297   8.899  21.298  0.00  0.00    +0.000 N 
ATOM     11  N   UNL     1       2.035   6.778  20.816  0.00  0.00    +0.000 N 
ATOM     12  H   UNL     1       2.216   9.163  20.981  0.00  0.00    +0.000 HD
ATOM     13  H   UNL     1       2.950   7.198  20.889  0.00  0.00    +0.000 HD
BRANCH  10  14
ATOM     14  C   UNL     1       0.387   9.951  21.541  0.00  0.00    +0.000 A 
ATOM     15  C   UNL     1       0.128  10.977  20.626  0.00  0.00    +0.000 A 
ATOM     16  C   UNL     1      -0.710  12.049  20.963  0.00  0.00    +0.000 A 
ATOM     17  C   UNL     1      -1.306  12.079  22.216  0.00  0.00    +0.000 A 
ATOM     18 CL   UNL     1      -2.295  13.420  22.655  0.00  0.00    +0.000 Cl
ATOM     19  C   UNL     1      -1.098  11.045  23.121  0.00  0.00    +0.000 A 
ATOM     20  C   UNL     1      -0.262   9.977  22.783  0.00  0.00    +0.000 A 
ENDBRANCH  10  14
ENDBRANCH   1  11
BRANCH   6  21
ATOM     21  O   UNL     1       1.840   3.473  17.407  0.00  0.00    +0.000 OA
BRANCH  21  22
ATOM     22  C   UNL     1       2.975   3.889  16.641  0.00  0.00    +0.000 C 
BRANCH  22  23
ATOM     23  C   UNL     1       4.232   3.335  17.307  0.00  0.00    +0.000 C 
BRANCH  23  24
ATOM     24  C   UNL     1       5.406   4.315  17.184  0.00  0.00    +0.000 C 
BRANCH  24  25
ATOM     25  N   UNL     1       5.302   5.516  18.030  0.00  0.00    +0.000 NA
ATOM     26  C   UNL     1       5.817   6.708  17.314  0.00  0.00    +0.000 C 
ATOM     27  C   UNL     1       7.351   6.731  17.208  0.00  0.00    +0.000 C 
ATOM     28  O   UNL     1       7.948   6.744  18.509  0.00  0.00    +0.000 OA
ATOM     29  C   UNL     1       7.536   5.606  19.279  0.00  0.00    +0.000 C 
ATOM     30  C   UNL     1       6.004   5.446  19.330  0.00  0.00    +0.000 C 
ENDBRANCH  24  25
ENDBRANCH  23  24
ENDBRANCH  22  23
ENDBRANCH  21  22
ENDBRANCH   6  21
TORSDOF 7
ENDMDL
MODEL 9
REMARK VINA RESULT:      -7.1      1.147      2.238
REMARK  Name = 
REMARK  7 active torsions:
REMARK  status: ('A' for Active; 'I' for Inactive)
REMARK    1  A    between atoms: N_3  and  C_4
REMARK    2  A    between atoms: N_11  and  C_12
REMARK    3  A    between atoms: C_17  and  O_18
REMARK    4  A    between atoms: O_18  and  C_19
REMARK    5  A    between atoms: C_19  and  C_20
REMARK    6  A    between atoms: C_20  and  C_21
REMARK    7  A    between atoms: C_21  and  N_22
REMARK                            x       y       z     vdW  Elec       q    Type
REMARK                         _______ _______ _______ _____ _____    ______ ____
ROOT
ATOM      1  C   UNL     1       7.401   6.316  18.204  0.00  0.00    +0.000 A 
ATOM      2  C   UNL     1       7.383   6.033  16.836  0.00  0.00    +0.000 A 
ATOM      3  C   UNL     1       6.489   5.113  16.301  0.00  0.00    +0.000 A 
ATOM      4  C   UNL     1       5.608   4.451  17.134  0.00  0.00    +0.000 A 
ATOM      5  F   UNL     1       4.751   3.590  16.558  0.00  0.00    +0.000 F 
ATOM      6  C   UNL     1       5.619   4.679  18.511  0.00  0.00    +0.000 A 
ATOM      7  C   UNL     1       6.523   5.613  19.045  0.00  0.00    +0.000 A 
ENDROOT
BRANCH   1  11
ATOM      8  O   UNL     1       7.511   9.176  17.704  0.00  0.00    +0.000 OA
ATOM      9  C   UNL     1       8.282   8.629  18.482  0.00  0.00    +0.000 C 
ATOM     10  N   UNL     1       9.310   9.291  19.134  0.00  0.00    +0.000 N 
ATOM     11  N   UNL     1       8.265   7.276  18.784  0.00  0.00    +0.000 N 
ATOM     12  H   UNL     1      10.019   8.715  19.561  0.00  0.00    +0.000 HD
ATOM     13  H   UNL     1       8.870   6.957  19.526  0.00  0.00    +0.000 HD
BRANCH  10  14
ATOM     14  C   UNL     1       9.629  10.655  18.956  0.00  0.00    +0.000 A 
ATOM     15  C   UNL     1      10.218  11.168  17.794  0.00  0.00    +0.000 A 
ATOM     16  C   UNL     1      10.604  12.513  17.716  0.00  0.00    +0.000 A 
ATOM     17  C   UNL     1      10.378  13.351  18.799  0.00  0.00    +0.000 A 
ATOM     18 CL   UNL     1      10.898  14.991  18.727  0.00  0.00    +0.000 Cl
ATOM     19  C   UNL     1       9.753  12.870  19.944  0.00  0.00    +0.000 A 
ATOM     20  C   UNL     1       9.369  11.529  20.021  0.00  0.00    +0.000 A 
ENDBRANCH  10  14
ENDBRANCH   1  11
BRANCH   6  21
ATOM     21  O   UNL     1       4.817   4.071  19.438  0.00  0.00    +0.000 OA
BRANCH  21  22
ATOM     22  C   UNL     1       4.879   2.643  19.499  0.00  0.00    +0.000 C 
BRANCH  22  23
ATOM     23  C   UNL     1       3.453   2.104  19.579  0.00  0.00    +0.000 C 
BRANCH  23  24
ATOM     24  C   UNL     1       2.685   2.732  20.749  0.00  0.00    +0.000 C 
BRANCH  24  25
ATOM     25  N   UNL     1       1.392   3.337  20.389  0.00  0.00    +0.000 NA
ATOM     26  C   UNL     1       1.001   2.958  19.010  0.00  0.00    +0.000 C 
ATOM     27  C   UNL     1       1.815   3.693  17.930  0.00  0.00    +0.000 C 
ATOM     28  O   UNL     1       1.633   5.108  18.035  0.00  0.00    +0.000 OA
ATOM     29  C   UNL     1       2.015   5.585  19.333  0.00  0.00    +0.000 C 
ATOM     30  C   UNL     1       1.328   4.812  20.476  0.00  0.00    +0.000 C 
ENDBRANCH  24  25
ENDBRANCH  23  24
ENDBRANCH  22  23
ENDBRANCH  21  22
ENDBRANCH   6  21
TORSDOF 7
ENDMDL
