MODEL 1
REMARK VINA RESULT:      -7.9      0.000      0.000
REMARK  Name = 
REMARK  6 active torsions:
REMARK  status: ('A' for Active; 'I' for Inactive)
REMARK    1  A    between atoms: C_1  and  O_2
REMARK    2  A    between atoms: O_2  and  C_3
REMARK    3  A    between atoms: C_6  and  C_7
REMARK    4  A    between atoms: C_9  and  C_10
REMARK    5  A    between atoms: C_22  and  O_23
REMARK    6  A    between atoms: O_23  and  C_24
REMARK                            x       y       z     vdW  Elec       q    Type
REMARK                         _______ _______ _______ _____ _____    ______ ____
ROOT
ATOM      1  C   UNL     1       6.791   6.647  18.008  0.00  0.00    +0.000 A 
ATOM      2  C   UNL     1       6.903   7.894  17.347  0.00  0.00    +0.000 A 
ATOM      3  C   UNL     1       8.046   8.496  17.842  0.00  0.00    +0.000 A 
ATOM      4  O   UNL     1       8.591   7.610  18.738  0.00  0.00    +0.000 OA
ATOM      5  N   UNL     1       7.831   6.471  18.832  0.00  0.00    +0.000 NA
ENDROOT
BRANCH   3   6
ATOM      6  C   UNL     1       8.582   9.768  17.516  0.00  0.00    +0.000 C 
ATOM      7  C   UNL     1       9.140  10.603  18.411  0.00  0.00    +0.000 C 
ATOM      8  C   UNL     1       9.293  10.366  19.904  0.00  0.00    +0.000 C 
ATOM      9  N   UNL     1       9.984  11.510  20.549  0.00  0.00    +0.000 NA
ATOM     10  C   UNL     1      11.314  11.670  19.924  0.00  0.00    +0.000 C 
ATOM     11  C   UNL     1      11.202  11.935  18.412  0.00  0.00    +0.000 C 
ATOM     12  C   UNL     1       9.720  11.949  18.008  0.00  0.00    +0.000 C 
ATOM     13  C   UNL     1       9.004  13.028  18.829  0.00  0.00    +0.000 C 
ATOM     14  C   UNL     1       9.186  12.733  20.327  0.00  0.00    +0.000 C 
ENDBRANCH   3   6
BRANCH   1  18
ATOM     15  C   UNL     1       3.853   3.559  17.874  0.00  0.00    +0.000 A 
ATOM     16  C   UNL     1       4.606   3.873  16.732  0.00  0.00    +0.000 A 
ATOM     17  C   UNL     1       5.551   4.900  16.760  0.00  0.00    +0.000 A 
ATOM     18  C   UNL     1       5.723   5.663  17.916  0.00  0.00    +0.000 A 
ATOM     19  C   UNL     1       4.887   5.424  19.012  0.00  0.00    +0.000 A 
ATOM     20  C   UNL     1       3.950   4.380  19.007  0.00  0.00    +0.000 A 
BRANCH  15  22
ATOM     21  C   UNL     1       3.525   1.314  18.521  0.00  0.00    +0.000 C 
ATOM     22  O   UNL     1       3.011   2.480  17.875  0.00  0.00    +0.000 OA
ENDBRANCH  15  22
BRANCH  20  23
ATOM     23  O   UNL     1       3.264   4.311  20.189  0.00  0.00    +0.000 OA
ATOM     24  C   UNL     1       2.160   5.176  20.397  0.00  0.00    +0.000 C 
ENDBRANCH  20  23
ENDBRANCH   1  18
TORSDOF 4
ENDMDL
MODEL 2
REMARK VINA RESULT:      -7.8      1.101      1.133
REMARK  Name = 
REMARK  6 active torsions:
REMARK  status: ('A' for Active; 'I' for Inactive)
REMARK    1  A    between atoms: C_1  and  O_2
REMARK    2  A    between atoms: O_2  and  C_3
REMARK    3  A    between atoms: C_6  and  C_7
REMARK    4  A    between atoms: C_9  and  C_10
REMARK    5  A    between atoms: C_22  and  O_23
REMARK    6  A    between atoms: O_23  and  C_24
REMARK                            x       y       z     vdW  Elec       q    Type
REMARK                         _______ _______ _______ _____ _____    ______ ____
ROOT
ATOM      1  C   UNL     1       6.724   6.521  18.150  0.00  0.00    +0.000 A 
ATOM      2  C   UNL     1       6.820   7.744  17.443  0.00  0.00    +0.000 A 
ATOM      3  C   UNL     1       7.990   8.347  17.867  0.00  0.00    +0.000 A 
ATOM      4  O   UNL     1       8.565   7.485  18.767  0.00  0.00    +0.000 OA
ATOM      5  N   UNL     1       7.797   6.359  18.932  0.00  0.00    +0.000 NA
ENDROOT
BRANCH   3   6
ATOM      6  C   UNL     1       8.525   9.602  17.476  0.00  0.00    +0.000 C 
ATOM      7  C   UNL     1       9.100  10.474  18.324  0.00  0.00    +0.000 C 
ATOM      8  C   UNL     1       9.274  10.304  19.823  0.00  0.00    +0.000 C 
ATOM      9  N   UNL     1       9.978  11.474  20.406  0.00  0.00    +0.000 NA
ATOM     10  C   UNL     1      11.299  11.600  19.755  0.00  0.00    +0.000 C 
ATOM     11  C   UNL     1      11.166  11.797  18.234  0.00  0.00    +0.000 C 
ATOM     12  C   UNL     1       9.678  11.798  17.851  0.00  0.00    +0.000 C 
ATOM     13  C   UNL     1       8.978  12.916  18.633  0.00  0.00    +0.000 C 
ATOM     14  C   UNL     1       9.181  12.688  20.140  0.00  0.00    +0.000 C 
ENDBRANCH   3   6
BRANCH   1  18
ATOM     15  C   UNL     1       3.733   3.489  17.934  0.00  0.00    +0.000 A 
ATOM     16  C   UNL     1       3.649   4.628  17.118  0.00  0.00    +0.000 A 
ATOM     17  C   UNL     1       4.609   5.637  17.201  0.00  0.00    +0.000 A 
ATOM     18  C   UNL     1       5.641   5.548  18.137  0.00  0.00    +0.000 A 
ATOM     19  C   UNL     1       5.652   4.469  19.028  0.00  0.00    +0.000 A 
ATOM     20  C   UNL     1       4.708   3.435  18.940  0.00  0.00    +0.000 A 
BRANCH  15  22
ATOM     21  C   UNL     1       1.540   2.685  18.277  0.00  0.00    +0.000 C 
ATOM     22  O   UNL     1       2.855   2.452  17.769  0.00  0.00    +0.000 OA
ENDBRANCH  15  22
BRANCH  20  23
ATOM     23  O   UNL     1       4.924   2.471  19.887  0.00  0.00    +0.000 OA
ATOM     24  C   UNL     1       3.958   2.279  20.907  0.00  0.00    +0.000 C 
ENDBRANCH  20  23
ENDBRANCH   1  18
TORSDOF 4
ENDMDL
MODEL 3
REMARK VINA RESULT:      -7.7      5.195      8.417
REMARK  Name = 
REMARK  6 active torsions:
REMARK  status: ('A' for Active; 'I' for Inactive)
REMARK    1  A    between atoms: C_1  and  O_2
REMARK    2  A    between atoms: O_2  and  C_3
REMARK    3  A    between atoms: C_6  and  C_7
REMARK    4  A    between atoms: C_9  and  C_10
REMARK    5  A    between atoms: C_22  and  O_23
REMARK    6  A    between atoms: O_23  and  C_24
REMARK                            x       y       z     vdW  Elec       q    Type
REMARK                         _______ _______ _______ _____ _____    ______ ____
ROOT
ATOM      1  C   UNL     1       1.410   8.597  19.772  0.00  0.00    +0.000 A 
ATOM      2  C   UNL     1       2.058   7.363  20.024  0.00  0.00    +0.000 A 
ATOM      3  C   UNL     1       2.609   6.961  18.821  0.00  0.00    +0.000 A 
ATOM      4  O   UNL     1       2.314   7.946  17.912  0.00  0.00    +0.000 OA
ATOM      5  N   UNL     1       1.591   8.956  18.496  0.00  0.00    +0.000 NA
ENDROOT
BRANCH   3   6
ATOM      6  C   UNL     1       3.340   5.777  18.541  0.00  0.00    +0.000 C 
ATOM      7  C   UNL     1       4.396   5.723  17.709  0.00  0.00    +0.000 C 
ATOM      8  C   UNL     1       4.991   6.875  16.918  0.00  0.00    +0.000 C 
ATOM      9  N   UNL     1       6.166   6.421  16.133  0.00  0.00    +0.000 NA
ATOM     10  C   UNL     1       7.174   5.876  17.067  0.00  0.00    +0.000 C 
ATOM     11  C   UNL     1       6.617   4.690  17.874  0.00  0.00    +0.000 C 
ATOM     12  C   UNL     1       5.161   4.433  17.458  0.00  0.00    +0.000 C 
ATOM     13  C   UNL     1       5.128   4.160  15.949  0.00  0.00    +0.000 C 
ATOM     14  C   UNL     1       5.734   5.360  15.202  0.00  0.00    +0.000 C 
ENDBRANCH   3   6
BRANCH   1  18
ATOM     15  C   UNL     1      -0.701  11.128  22.478  0.00  0.00    +0.000 A 
ATOM     16  C   UNL     1      -0.213   9.884  22.904  0.00  0.00    +0.000 A 
ATOM     17  C   UNL     1       0.456   9.037  22.018  0.00  0.00    +0.000 A 
ATOM     18  C   UNL     1       0.604   9.401  20.679  0.00  0.00    +0.000 A 
ATOM     19  C   UNL     1       0.012  10.588  20.233  0.00  0.00    +0.000 A 
ATOM     20  C   UNL     1      -0.642  11.459  21.116  0.00  0.00    +0.000 A 
BRANCH  15  22
ATOM     21  C   UNL     1      -2.682  11.984  23.435  0.00  0.00    +0.000 C 
ATOM     22  O   UNL     1      -1.254  12.001  23.375  0.00  0.00    +0.000 OA
ENDBRANCH  15  22
BRANCH  20  23
ATOM     23  O   UNL     1      -1.118  12.569  20.472  0.00  0.00    +0.000 OA
ATOM     24  C   UNL     1      -2.305  12.464  19.705  0.00  0.00    +0.000 C 
ENDBRANCH  20  23
ENDBRANCH   1  18
TORSDOF 4
ENDMDL
MODEL 4
REMARK VINA RESULT:      -7.7      6.337     10.074
REMARK  Name = 
REMARK  6 active torsions:
REMARK  status: ('A' for Active; 'I' for Inactive)
REMARK    1  A    between atoms: C_1  and  O_2
REMARK    2  A    between atoms: O_2  and  C_3
REMARK    3  A    between atoms: C_6  and  C_7
REMARK    4  A    between atoms: C_9  and  C_10
REMARK    5  A    between atoms: C_22  and  O_23
REMARK    6  A    between atoms: O_23  and  C_24
REMARK                            x       y       z     vdW  Elec       q    Type
REMARK                         _______ _______ _______ _____ _____    ______ ____
ROOT
ATOM      1  C   UNL     1       1.016   8.931  20.390  0.00  0.00    +0.000 A 
ATOM      2  C   UNL     1       1.578   7.694  20.790  0.00  0.00    +0.000 A 
ATOM      3  C   UNL     1       2.263   7.204  19.693  0.00  0.00    +0.000 A 
ATOM      4  O   UNL     1       2.124   8.143  18.701  0.00  0.00    +0.000 OA
ATOM      5  N   UNL     1       1.372   9.208  19.130  0.00  0.00    +0.000 NA
ENDROOT
BRANCH   3   6
ATOM      6  C   UNL     1       2.977   5.985  19.575  0.00  0.00    +0.000 C 
ATOM      7  C   UNL     1       2.434   4.771  19.776  0.00  0.00    +0.000 C 
ATOM      8  C   UNL     1       0.998   4.471  20.170  0.00  0.00    +0.000 C 
ATOM      9  N   UNL     1       0.776   3.007  20.272  0.00  0.00    +0.000 NA
ATOM     10  C   UNL     1       1.079   2.393  18.962  0.00  0.00    +0.000 C 
ATOM     11  C   UNL     1       2.534   2.655  18.535  0.00  0.00    +0.000 C 
ATOM     12  C   UNL     1       3.237   3.490  19.616  0.00  0.00    +0.000 C 
ATOM     13  C   UNL     1       3.162   2.725  20.944  0.00  0.00    +0.000 C 
ATOM     14  C   UNL     1       1.689   2.458  21.295  0.00  0.00    +0.000 C 
ENDBRANCH   3   6
BRANCH   1  18
ATOM     15  C   UNL     1      -1.325  11.681  22.658  0.00  0.00    +0.000 A 
ATOM     16  C   UNL     1      -0.949  10.445  23.208  0.00  0.00    +0.000 A 
ATOM     17  C   UNL     1      -0.206   9.528  22.464  0.00  0.00    +0.000 A 
ATOM     18  C   UNL     1       0.131   9.811  21.139  0.00  0.00    +0.000 A 
ATOM     19  C   UNL     1      -0.347  10.991  20.558  0.00  0.00    +0.000 A 
ATOM     20  C   UNL     1      -1.074  11.932  21.302  0.00  0.00    +0.000 A 
BRANCH  15  22
ATOM     21  C   UNL     1      -3.363  12.434  23.580  0.00  0.00    +0.000 C 
ATOM     22  O   UNL     1      -1.954  12.621  23.428  0.00  0.00    +0.000 OA
ENDBRANCH  15  22
BRANCH  20  23
ATOM     23  O   UNL     1      -1.415  13.021  20.545  0.00  0.00    +0.000 OA
ATOM     24  C   UNL     1      -0.988  13.082  19.194  0.00  0.00    +0.000 C 
ENDBRANCH  20  23
ENDBRANCH   1  18
TORSDOF 4
ENDMDL
MODEL 5
REMARK VINA RESULT:      -7.5      5.276      8.236
REMARK  Name = 
REMARK  6 active torsions:
REMARK  status: ('A' for Active; 'I' for Inactive)
REMARK    1  A    between atoms: C_1  and  O_2
REMARK    2  A    between atoms: O_2  and  C_3
REMARK    3  A    between atoms: C_6  and  C_7
REMARK    4  A    between atoms: C_9  and  C_10
REMARK    5  A    between atoms: C_22  and  O_23
REMARK    6  A    between atoms: O_23  and  C_24
REMARK                            x       y       z     vdW  Elec       q    Type
REMARK                         _______ _______ _______ _____ _____    ______ ____
ROOT
ATOM      1  C   UNL     1       1.527   9.194  18.746  0.00  0.00    +0.000 A 
ATOM      2  C   UNL     1       1.962   7.917  19.178  0.00  0.00    +0.000 A 
ATOM      3  C   UNL     1       2.669   7.369  18.123  0.00  0.00    +0.000 A 
ATOM      4  O   UNL     1       2.669   8.314  17.126  0.00  0.00    +0.000 OA
ATOM      5  N   UNL     1       1.981   9.438  17.511  0.00  0.00    +0.000 NA
ENDROOT
BRANCH   3   6
ATOM      6  C   UNL     1       3.288   6.095  18.046  0.00  0.00    +0.000 C 
ATOM      7  C   UNL     1       4.479   5.869  17.463  0.00  0.00    +0.000 C 
ATOM      8  C   UNL     1       5.367   6.896  16.781  0.00  0.00    +0.000 C 
ATOM      9  N   UNL     1       6.613   6.263  16.283  0.00  0.00    +0.000 NA
ATOM     10  C   UNL     1       7.326   5.660  17.429  0.00  0.00    +0.000 C 
ATOM     11  C   UNL     1       6.468   4.597  18.136  0.00  0.00    +0.000 C 
ATOM     12  C   UNL     1       5.110   4.487  17.425  0.00  0.00    +0.000 C 
ATOM     13  C   UNL     1       5.361   4.131  15.955  0.00  0.00    +0.000 C 
ATOM     14  C   UNL     1       6.256   5.205  15.316  0.00  0.00    +0.000 C 
ENDBRANCH   3   6
BRANCH   1  18
ATOM     15  C   UNL     1      -1.184  11.755  20.814  0.00  0.00    +0.000 A 
ATOM     16  C   UNL     1      -1.079  11.812  19.416  0.00  0.00    +0.000 A 
ATOM     17  C   UNL     1      -0.175  10.996  18.733  0.00  0.00    +0.000 A 
ATOM     18  C   UNL     1       0.674  10.146  19.442  0.00  0.00    +0.000 A 
ATOM     19  C   UNL     1       0.649  10.179  20.841  0.00  0.00    +0.000 A 
ATOM     20  C   UNL     1      -0.270  10.976  21.539  0.00  0.00    +0.000 A 
BRANCH  15  22
ATOM     21  C   UNL     1      -2.046  13.891  21.329  0.00  0.00    +0.000 C 
ATOM     22  O   UNL     1      -2.148  12.472  21.468  0.00  0.00    +0.000 OA
ENDBRANCH  15  22
BRANCH  20  23
ATOM     23  O   UNL     1      -0.138  10.832  22.894  0.00  0.00    +0.000 OA
ATOM     24  C   UNL     1      -0.061   9.528  23.444  0.00  0.00    +0.000 C 
ENDBRANCH  20  23
ENDBRANCH   1  18
TORSDOF 4
ENDMDL
MODEL 6
REMARK VINA RESULT:      -7.5      6.049      9.504
REMARK  Name = 
REMARK  6 active torsions:
REMARK  status: ('A' for Active; 'I' for Inactive)
REMARK    1  A    between atoms: C_1  and  O_2
REMARK    2  A    between atoms: O_2  and  C_3
REMARK    3  A    between atoms: C_6  and  C_7
REMARK    4  A    between atoms: C_9  and  C_10
REMARK    5  A    between atoms: C_22  and  O_23
REMARK    6  A    between atoms: O_23  and  C_24
REMARK                            x       y       z     vdW  Elec       q    Type
REMARK                         _______ _______ _______ _____ _____    ______ ____
ROOT
ATOM      1  C   UNL     1       1.416   8.912  19.484  0.00  0.00    +0.000 A 
ATOM      2  C   UNL     1       2.049   7.659  19.674  0.00  0.00    +0.000 A 
ATOM      3  C   UNL     1       2.588   7.307  18.450  0.00  0.00    +0.000 A 
ATOM      4  O   UNL     1       2.301   8.338  17.590  0.00  0.00    +0.000 OA
ATOM      5  N   UNL     1       1.595   9.329  18.226  0.00  0.00    +0.000 NA
ENDROOT
BRANCH   3   6
ATOM      6  C   UNL     1       3.301   6.128  18.109  0.00  0.00    +0.000 C 
ATOM      7  C   UNL     1       2.984   4.900  18.556  0.00  0.00    +0.000 C 
ATOM      8  C   UNL     1       1.844   4.540  19.494  0.00  0.00    +0.000 C 
ATOM      9  N   UNL     1       1.804   3.075  19.733  0.00  0.00    +0.000 NA
ATOM     10  C   UNL     1       1.626   2.391  18.434  0.00  0.00    +0.000 C 
ATOM     11  C   UNL     1       2.773   2.713  17.461  0.00  0.00    +0.000 C 
ATOM     12  C   UNL     1       3.767   3.663  18.145  0.00  0.00    +0.000 C 
ATOM     13  C   UNL     1       4.278   2.991  19.425  0.00  0.00    +0.000 C 
ATOM     14  C   UNL     1       3.085   2.657  20.336  0.00  0.00    +0.000 C 
ENDBRANCH   3   6
BRANCH   1  18
ATOM     15  C   UNL     1      -0.633  11.261  22.394  0.00  0.00    +0.000 A 
ATOM     16  C   UNL     1      -0.517   9.872  22.556  0.00  0.00    +0.000 A 
ATOM     17  C   UNL     1       0.129   9.092  21.596  0.00  0.00    +0.000 A 
ATOM     18  C   UNL     1       0.626   9.682  20.433  0.00  0.00    +0.000 A 
ATOM     19  C   UNL     1       0.403  11.047  20.221  0.00  0.00    +0.000 A 
ATOM     20  C   UNL     1      -0.223  11.848  21.188  0.00  0.00    +0.000 A 
BRANCH  15  22
ATOM     21  C   UNL     1      -2.591  12.131  23.384  0.00  0.00    +0.000 C 
ATOM     22  O   UNL     1      -1.165  12.035  23.390  0.00  0.00    +0.000 OA
ENDBRANCH  15  22
BRANCH  20  23
ATOM     23  O   UNL     1      -0.310  13.153  20.785  0.00  0.00    +0.000 OA
ATOM     24  C   UNL     1      -1.301  13.517  19.839  0.00  0.00    +0.000 C 
ENDBRANCH  20  23
ENDBRANCH   1  18
TORSDOF 4
ENDMDL
MODEL 7
REMARK VINA RESULT:      -7.5      5.369      7.051
REMARK  Name = 
REMARK  6 active torsions:
REMARK  status: ('A' for Active; 'I' for Inactive)
REMARK    1  A    between atoms: C_1  and  O_2
REMARK    2  A    between atoms: O_2  and  C_3
REMARK    3  A    between atoms: C_6  and  C_7
REMARK    4  A    between atoms: C_9  and  C_10
REMARK    5  A    between atoms: C_22  and  O_23
REMARK    6  A    between atoms: O_23  and  C_24
REMARK                            x       y       z     vdW  Elec       q    Type
REMARK                         _______ _______ _______ _____ _____    ______ ____
ROOT
ATOM      1  C   UNL     1       2.700   7.509  18.444  0.00  0.00    +0.000 A 
ATOM      2  C   UNL     1       2.094   8.615  17.799  0.00  0.00    +0.000 A 
ATOM      3  C   UNL     1       1.229   9.177  18.720  0.00  0.00    +0.000 A 
ATOM      4  O   UNL     1       1.355   8.438  19.870  0.00  0.00    +0.000 OA
ATOM      5  N   UNL     1       2.266   7.423  19.707  0.00  0.00    +0.000 NA
ENDROOT
BRANCH   3   6
ATOM      6  C   UNL     1       0.369  10.293  18.552  0.00  0.00    +0.000 C 
ATOM      7  C   UNL     1       0.297  11.325  19.411  0.00  0.00    +0.000 C 
ATOM      8  C   UNL     1       1.085  11.493  20.700  0.00  0.00    +0.000 C 
ATOM      9  N   UNL     1       0.745  12.778  21.360  0.00  0.00    +0.000 NA
ATOM     10  C   UNL     1       1.057  13.883  20.429  0.00  0.00    +0.000 C 
ATOM     11  C   UNL     1       0.262  13.762  19.117  0.00  0.00    +0.000 C 
ATOM     12  C   UNL     1      -0.626  12.510  19.176  0.00  0.00    +0.000 C 
ATOM     13  C   UNL     1      -1.551  12.628  20.393  0.00  0.00    +0.000 C 
ATOM     14  C   UNL     1      -0.700  12.787  21.665  0.00  0.00    +0.000 C 
ENDBRANCH   3   6
BRANCH   1  18
ATOM     15  C   UNL     1       5.314   4.729  16.540  0.00  0.00    +0.000 A 
ATOM     16  C   UNL     1       4.078   4.306  17.054  0.00  0.00    +0.000 A 
ATOM     17  C   UNL     1       3.228   5.203  17.702  0.00  0.00    +0.000 A 
ATOM     18  C   UNL     1       3.622   6.529  17.891  0.00  0.00    +0.000 A 
ATOM     19  C   UNL     1       4.903   6.917  17.483  0.00  0.00    +0.000 A 
ATOM     20  C   UNL     1       5.758   6.032  16.809  0.00  0.00    +0.000 A 
BRANCH  15  22
ATOM     21  C   UNL     1       6.010   4.048  14.391  0.00  0.00    +0.000 C 
ATOM     22  O   UNL     1       6.090   3.874  15.807  0.00  0.00    +0.000 OA
ENDBRANCH  15  22
BRANCH  20  23
ATOM     23  O   UNL     1       6.945   6.628  16.479  0.00  0.00    +0.000 OA
ATOM     24  C   UNL     1       7.605   7.430  17.443  0.00  0.00    +0.000 C 
ENDBRANCH  20  23
ENDBRANCH   1  18
TORSDOF 4
ENDMDL
MODEL 8
REMARK VINA RESULT:      -7.5      1.106      2.213
REMARK  Name = 
REMARK  6 active torsions:
REMARK  status: ('A' for Active; 'I' for Inactive)
REMARK    1  A    between atoms: C_1  and  O_2
REMARK    2  A    between atoms: O_2  and  C_3
REMARK    3  A    between atoms: C_6  and  C_7
REMARK    4  A    between atoms: C_9  and  C_10
REMARK    5  A    between atoms: C_22  and  O_23
REMARK    6  A    between atoms: O_23  and  C_24
REMARK                            x       y       z     vdW  Elec       q    Type
REMARK                         _______ _______ _______ _____ _____    ______ ____
ROOT
ATOM      1  C   UNL     1       7.259   6.754  18.089  0.00  0.00    +0.000 A 
ATOM      2  C   UNL     1       7.285   8.004  17.424  0.00  0.00    +0.000 A 
ATOM      3  C   UNL     1       8.283   8.747  18.031  0.00  0.00    +0.000 A 
ATOM      4  O   UNL     1       8.834   7.938  18.994  0.00  0.00    +0.000 OA
ATOM      5  N   UNL     1       8.217   6.712  19.022  0.00  0.00    +0.000 NA
ENDROOT
BRANCH   3   6
ATOM      6  C   UNL     1       8.687  10.076  17.745  0.00  0.00    +0.000 C 
ATOM      7  C   UNL     1       9.234  10.908  18.649  0.00  0.00    +0.000 C 
ATOM      8  C   UNL     1       9.509  10.608  20.112  0.00  0.00    +0.000 C 
ATOM      9  N   UNL     1      10.145  11.773  20.777  0.00  0.00    +0.000 NA
ATOM     10  C   UNL     1      11.411  12.080  20.078  0.00  0.00    +0.000 C 
ATOM     11  C   UNL     1      11.174  12.413  18.594  0.00  0.00    +0.000 C 
ATOM     12  C   UNL     1       9.671  12.319  18.288  0.00  0.00    +0.000 C 
ATOM     13  C   UNL     1       8.926  13.288  19.214  0.00  0.00    +0.000 C 
ATOM     14  C   UNL     1       9.235  12.931  20.678  0.00  0.00    +0.000 C 
ENDBRANCH   3   6
BRANCH   1  18
ATOM     15  C   UNL     1       4.376   3.694  17.373  0.00  0.00    +0.000 A 
ATOM     16  C   UNL     1       4.435   4.337  18.619  0.00  0.00    +0.000 A 
ATOM     17  C   UNL     1       5.393   5.320  18.871  0.00  0.00    +0.000 A 
ATOM     18  C   UNL     1       6.339   5.643  17.897  0.00  0.00    +0.000 A 
ATOM     19  C   UNL     1       6.350   4.917  16.701  0.00  0.00    +0.000 A 
ATOM     20  C   UNL     1       5.379   3.943  16.425  0.00  0.00    +0.000 A 
BRANCH  15  22
ATOM     21  C   UNL     1       3.075   1.877  18.132  0.00  0.00    +0.000 C 
ATOM     22  O   UNL     1       3.366   2.814  17.093  0.00  0.00    +0.000 OA
ENDBRANCH  15  22
BRANCH  20  23
ATOM     23  O   UNL     1       5.563   3.381  15.190  0.00  0.00    +0.000 OA
ATOM     24  C   UNL     1       6.213   4.134  14.180  0.00  0.00    +0.000 C 
ENDBRANCH  20  23
ENDBRANCH   1  18
TORSDOF 4
ENDMDL
MODEL 9
REMARK VINA RESULT:      -7.4      6.025      9.545
REMARK  Name = 
REMARK  6 active torsions:
REMARK  status: ('A' for Active; 'I' for Inactive)
REMARK    1  A    between atoms: C_1  and  O_2
REMARK    2  A    between atoms: O_2  and  C_3
REMARK    3  A    between atoms: C_6  and  C_7
REMARK    4  A    between atoms: C_9  and  C_10
REMARK    5  A    between atoms: C_22  and  O_23
REMARK    6  A    between atoms: O_23  and  C_24
REMARK                            x       y       z     vdW  Elec       q    Type
REMARK                         _______ _______ _______ _____ _____    ______ ____
ROOT
ATOM      1  C   UNL     1       1.213   9.178  18.778  0.00  0.00    +0.000 A 
ATOM      2  C   UNL     1       1.629   8.103  19.600  0.00  0.00    +0.000 A 
ATOM      3  C   UNL     1       2.548   7.380  18.860  0.00  0.00    +0.000 A 
ATOM      4  O   UNL     1       2.681   8.036  17.662  0.00  0.00    +0.000 OA
ATOM      5  N   UNL     1       1.874   9.146  17.614  0.00  0.00    +0.000 NA
ENDROOT
BRANCH   3   6
ATOM      6  C   UNL     1       3.238   6.197  19.229  0.00  0.00    +0.000 C 
ATOM      7  C   UNL     1       2.814   4.955  18.934  0.00  0.00    +0.000 C 
ATOM      8  C   UNL     1       1.548   4.580  18.184  0.00  0.00    +0.000 C 
ATOM      9  N   UNL     1       1.442   3.107  18.035  0.00  0.00    +0.000 NA
ATOM     10  C   UNL     1       2.629   2.622  17.298  0.00  0.00    +0.000 C 
ATOM     11  C   UNL     1       3.935   2.963  18.038  0.00  0.00    +0.000 C 
ATOM     12  C   UNL     1       3.601   3.717  19.334  0.00  0.00    +0.000 C 
ATOM     13  C   UNL     1       2.679   2.834  20.184  0.00  0.00    +0.000 C 
ATOM     14  C   UNL     1       1.415   2.494  19.378  0.00  0.00    +0.000 C 
ENDBRANCH   3   6
BRANCH   1  18
ATOM     15  C   UNL     1      -1.946  11.899  19.676  0.00  0.00    +0.000 A 
ATOM     16  C   UNL     1      -1.775  11.415  18.370  0.00  0.00    +0.000 A 
ATOM     17  C   UNL     1      -0.728  10.545  18.061  0.00  0.00    +0.000 A 
ATOM     18  C   UNL     1       0.196  10.184  19.044  0.00  0.00    +0.000 A 
ATOM     19  C   UNL     1       0.090  10.762  20.314  0.00  0.00    +0.000 A 
ATOM     20  C   UNL     1      -0.970  11.618  20.644  0.00  0.00    +0.000 A 
BRANCH  15  22
ATOM     21  C   UNL     1      -4.262  12.247  19.386  0.00  0.00    +0.000 C 
ATOM     22  O   UNL     1      -3.037  12.658  19.998  0.00  0.00    +0.000 OA
ENDBRANCH  15  22
BRANCH  20  23
ATOM     23  O   UNL     1      -0.892  12.043  21.943  0.00  0.00    +0.000 OA
ATOM     24  C   UNL     1      -1.190  11.130  22.985  0.00  0.00    +0.000 C 
ENDBRANCH  20  23
ENDBRANCH   1  18
TORSDOF 4
ENDMDL
