MODEL 1
REMARK VINA RESULT:      -6.9      0.000      0.000
REMARK  Name = 
REMARK  5 active torsions:
REMARK  status: ('A' for Active; 'I' for Inactive)
REMARK    1  A    between atoms: N_1  and  C_2
REMARK    2  A    between atoms: C_4  and  C_5
REMARK    3  A    between atoms: C_5  and  O_7
REMARK    4  A    between atoms: C_9  and  C_10
REMARK    5  A    between atoms: C_10  and  C_13
REMARK                            x       y       z     vdW  Elec       q    Type
REMARK                         _______ _______ _______ _____ _____    ______ ____
ROOT
ATOM      1  C   UNL     1       4.046   5.535  18.261  0.00  0.00    +0.000 C 
ATOM      2  C   UNL     1       5.330   6.074  17.606  0.00  0.00    +0.000 C 
ATOM      3  C   UNL     1       5.538   5.239  16.338  0.00  0.00    +0.000 C 
ATOM      4  C   UNL     1       4.763   3.994  16.658  0.00  0.00    +0.000 C 
ATOM      5  C   UNL     1       3.962   4.146  17.725  0.00  0.00    +0.000 C 
ENDROOT
BRANCH   1   6
ATOM      6  N   UNL     1       4.107   5.616  19.703  0.00  0.00    +0.000 NA
ATOM      7  H   UNL     1       4.385   6.554  19.991  0.00  0.00    +0.000 HD
ATOM      8  H   UNL     1       4.829   4.994  20.072  0.00  0.00    +0.000 HD
ENDBRANCH   1   6
BRANCH   5   9
ATOM      9  C   UNL     1       2.947   3.163  18.248  0.00  0.00    +0.000 C 
ATOM     10  F   UNL     1       2.998   2.035  17.468  0.00  0.00    +0.000 F 
ATOM     11  F   UNL     1       3.353   2.719  19.483  0.00  0.00    +0.000 F 
BRANCH   9  12
ATOM     12  C   UNL     1       1.479   3.662  18.357  0.00  0.00    +0.000 C 
ATOM     13  F   UNL     1       1.212   4.359  19.491  0.00  0.00    +0.000 F 
ATOM     14  F   UNL     1       1.127   4.450  17.309  0.00  0.00    +0.000 F 
ATOM     15  F   UNL     1       0.604   2.618  18.352  0.00  0.00    +0.000 F 
ENDBRANCH   9  12
ENDBRANCH   5   9
BRANCH   3  16
ATOM     16  C   UNL     1       7.012   4.952  16.075  0.00  0.00    +0.000 C 
ATOM     17  O   UNL     1       7.771   4.389  16.849  0.00  0.00    +0.000 OA
BRANCH  16  18
ATOM     18  O   UNL     1       7.418   5.348  14.843  0.00  0.00    +0.000 OA
ATOM     19  H   UNL     1       7.523   6.312  14.736  0.00  0.00    +0.000 HD
ENDBRANCH  16  18
ENDBRANCH   3  16
TORSDOF 5
ENDMDL
MODEL 2
REMARK VINA RESULT:      -6.9      0.638      1.383
REMARK  Name = 
REMARK  5 active torsions:
REMARK  status: ('A' for Active; 'I' for Inactive)
REMARK    1  A    between atoms: N_1  and  C_2
REMARK    2  A    between atoms: C_4  and  C_5
REMARK    3  A    between atoms: C_5  and  O_7
REMARK    4  A    between atoms: C_9  and  C_10
REMARK    5  A    between atoms: C_10  and  C_13
REMARK                            x       y       z     vdW  Elec       q    Type
REMARK                         _______ _______ _______ _____ _____    ______ ____
ROOT
ATOM      1  C   UNL     1       3.727   5.289  18.527  0.00  0.00    +0.000 C 
ATOM      2  C   UNL     1       5.048   5.808  17.934  0.00  0.00    +0.000 C 
ATOM      3  C   UNL     1       5.396   4.857  16.783  0.00  0.00    +0.000 C 
ATOM      4  C   UNL     1       4.634   3.621  17.164  0.00  0.00    +0.000 C 
ATOM      5  C   UNL     1       3.734   3.850  18.134  0.00  0.00    +0.000 C 
ENDROOT
BRANCH   1   6
ATOM      6  N   UNL     1       3.654   5.518  19.952  0.00  0.00    +0.000 NA
ATOM      7  H   UNL     1       4.433   5.059  20.423  0.00  0.00    +0.000 HD
ATOM      8  H   UNL     1       2.811   5.095  20.346  0.00  0.00    +0.000 HD
ENDBRANCH   1   6
BRANCH   5   9
ATOM      9  C   UNL     1       2.706   2.886  18.667  0.00  0.00    +0.000 C 
ATOM     10  F   UNL     1       2.856   1.690  18.011  0.00  0.00    +0.000 F 
ATOM     11  F   UNL     1       3.017   2.579  19.970  0.00  0.00    +0.000 F 
BRANCH   9  12
ATOM     12  C   UNL     1       1.221   3.339  18.604  0.00  0.00    +0.000 C 
ATOM     13  F   UNL     1       0.332   2.319  18.493  0.00  0.00    +0.000 F 
ATOM     14  F   UNL     1       0.861   4.067  19.693  0.00  0.00    +0.000 F 
ATOM     15  F   UNL     1       0.998   4.141  17.526  0.00  0.00    +0.000 F 
ENDBRANCH   9  12
ENDBRANCH   5   9
BRANCH   3  16
ATOM     16  C   UNL     1       6.897   4.604  16.682  0.00  0.00    +0.000 C 
ATOM     17  O   UNL     1       7.575   4.770  15.680  0.00  0.00    +0.000 OA
BRANCH  16  18
ATOM     18  O   UNL     1       7.447   4.206  17.856  0.00  0.00    +0.000 OA
ATOM     19  H   UNL     1       8.053   4.852  18.264  0.00  0.00    +0.000 HD
ENDBRANCH  16  18
ENDBRANCH   3  16
TORSDOF 5
ENDMDL
MODEL 3
REMARK VINA RESULT:      -6.9      1.548      2.459
REMARK  Name = 
REMARK  5 active torsions:
REMARK  status: ('A' for Active; 'I' for Inactive)
REMARK    1  A    between atoms: N_1  and  C_2
REMARK    2  A    between atoms: C_4  and  C_5
REMARK    3  A    between atoms: C_5  and  O_7
REMARK    4  A    between atoms: C_9  and  C_10
REMARK    5  A    between atoms: C_10  and  C_13
REMARK                            x       y       z     vdW  Elec       q    Type
REMARK                         _______ _______ _______ _____ _____    ______ ____
ROOT
ATOM      1  C   UNL     1       5.790   4.723  18.357  0.00  0.00    +0.000 C 
ATOM      2  C   UNL     1       6.928   4.553  17.336  0.00  0.00    +0.000 C 
ATOM      3  C   UNL     1       6.589   5.487  16.169  0.00  0.00    +0.000 C 
ATOM      4  C   UNL     1       5.104   5.648  16.324  0.00  0.00    +0.000 C 
ATOM      5  C   UNL     1       4.661   5.210  17.514  0.00  0.00    +0.000 C 
ENDROOT
BRANCH   1   6
ATOM      6  N   UNL     1       5.518   3.492  19.065  0.00  0.00    +0.000 NA
ATOM      7  H   UNL     1       4.512   3.353  19.156  0.00  0.00    +0.000 HD
ATOM      8  H   UNL     1       5.874   3.537  20.022  0.00  0.00    +0.000 HD
ENDBRANCH   1   6
BRANCH   5   9
ATOM      9  C   UNL     1       3.265   5.337  18.067  0.00  0.00    +0.000 C 
ATOM     10  F   UNL     1       3.354   5.511  19.425  0.00  0.00    +0.000 F 
ATOM     11  F   UNL     1       2.718   6.518  17.627  0.00  0.00    +0.000 F 
BRANCH   9  12
ATOM     12  C   UNL     1       2.276   4.182  17.747  0.00  0.00    +0.000 C 
ATOM     13  F   UNL     1       2.714   3.325  16.790  0.00  0.00    +0.000 F 
ATOM     14  F   UNL     1       1.983   3.440  18.846  0.00  0.00    +0.000 F 
ATOM     15  F   UNL     1       1.087   4.665  17.291  0.00  0.00    +0.000 F 
ENDBRANCH   9  12
ENDBRANCH   5   9
BRANCH   3  16
ATOM     16  C   UNL     1       6.968   4.882  14.821  0.00  0.00    +0.000 C 
ATOM     17  O   UNL     1       7.719   5.393  14.004  0.00  0.00    +0.000 OA
BRANCH  16  18
ATOM     18  O   UNL     1       6.418   3.660  14.615  0.00  0.00    +0.000 OA
ATOM     19  H   UNL     1       7.052   2.920  14.613  0.00  0.00    +0.000 HD
ENDBRANCH  16  18
ENDBRANCH   3  16
TORSDOF 5
ENDMDL
MODEL 4
REMARK VINA RESULT:      -6.9      0.145      1.242
REMARK  Name = 
REMARK  5 active torsions:
REMARK  status: ('A' for Active; 'I' for Inactive)
REMARK    1  A    between atoms: N_1  and  C_2
REMARK    2  A    between atoms: C_4  and  C_5
REMARK    3  A    between atoms: C_5  and  O_7
REMARK    4  A    between atoms: C_9  and  C_10
REMARK    5  A    between atoms: C_10  and  C_13
REMARK                            x       y       z     vdW  Elec       q    Type
REMARK                         _______ _______ _______ _____ _____    ______ ____
ROOT
ATOM      1  C   UNL     1       4.071   5.632  18.221  0.00  0.00    +0.000 C 
ATOM      2  C   UNL     1       5.325   6.188  17.524  0.00  0.00    +0.000 C 
ATOM      3  C   UNL     1       5.476   5.387  16.226  0.00  0.00    +0.000 C 
ATOM      4  C   UNL     1       4.715   4.133  16.548  0.00  0.00    +0.000 C 
ATOM      5  C   UNL     1       3.961   4.258  17.653  0.00  0.00    +0.000 C 
ENDROOT
BRANCH   1   6
ATOM      6  N   UNL     1       4.196   5.674  19.660  0.00  0.00    +0.000 NA
ATOM      7  H   UNL     1       3.360   5.284  20.097  0.00  0.00    +0.000 HD
ATOM      8  H   UNL     1       4.250   6.639  19.992  0.00  0.00    +0.000 HD
ENDBRANCH   1   6
BRANCH   5   9
ATOM      9  C   UNL     1       2.970   3.261  18.194  0.00  0.00    +0.000 C 
ATOM     10  F   UNL     1       3.045   2.121  17.434  0.00  0.00    +0.000 F 
ATOM     11  F   UNL     1       3.387   2.847  19.436  0.00  0.00    +0.000 F 
BRANCH   9  12
ATOM     12  C   UNL     1       1.491   3.728  18.297  0.00  0.00    +0.000 C 
ATOM     13  F   UNL     1       1.092   4.538  17.283  0.00  0.00    +0.000 F 
ATOM     14  F   UNL     1       0.626   2.683  18.340  0.00  0.00    +0.000 F 
ATOM     15  F   UNL     1       1.280   4.439  19.440  0.00  0.00    +0.000 F 
ENDBRANCH   9  12
ENDBRANCH   5   9
BRANCH   3  16
ATOM     16  C   UNL     1       6.937   5.107  15.892  0.00  0.00    +0.000 C 
ATOM     17  O   UNL     1       7.486   5.384  14.836  0.00  0.00    +0.000 OA
BRANCH  16  18
ATOM     18  O   UNL     1       7.618   4.544  16.921  0.00  0.00    +0.000 OA
ATOM     19  H   UNL     1       8.534   4.281  16.711  0.00  0.00    +0.000 HD
ENDBRANCH  16  18
ENDBRANCH   3  16
TORSDOF 5
ENDMDL
MODEL 5
REMARK VINA RESULT:      -6.8      1.045      1.979
REMARK  Name = 
REMARK  5 active torsions:
REMARK  status: ('A' for Active; 'I' for Inactive)
REMARK    1  A    between atoms: N_1  and  C_2
REMARK    2  A    between atoms: C_4  and  C_5
REMARK    3  A    between atoms: C_5  and  O_7
REMARK    4  A    between atoms: C_9  and  C_10
REMARK    5  A    between atoms: C_10  and  C_13
REMARK                            x       y       z     vdW  Elec       q    Type
REMARK                         _______ _______ _______ _____ _____    ______ ____
ROOT
ATOM      1  C   UNL     1       3.442   5.787  17.703  0.00  0.00    +0.000 C 
ATOM      2  C   UNL     1       4.927   6.084  17.431  0.00  0.00    +0.000 C 
ATOM      3  C   UNL     1       5.467   4.868  16.670  0.00  0.00    +0.000 C 
ATOM      4  C   UNL     1       4.491   3.798  17.065  0.00  0.00    +0.000 C 
ATOM      5  C   UNL     1       3.390   4.298  17.652  0.00  0.00    +0.000 C 
ENDROOT
BRANCH   1   6
ATOM      6  N   UNL     1       3.004   6.356  18.957  0.00  0.00    +0.000 NA
ATOM      7  H   UNL     1       2.411   5.693  19.457  0.00  0.00    +0.000 HD
ATOM      8  H   UNL     1       2.418   7.178  18.798  0.00  0.00    +0.000 HD
ENDBRANCH   1   6
BRANCH   5   9
ATOM      9  C   UNL     1       2.150   3.541  18.051  0.00  0.00    +0.000 C 
ATOM     10  F   UNL     1       1.056   4.244  17.612  0.00  0.00    +0.000 F 
ATOM     11  F   UNL     1       2.091   2.372  17.332  0.00  0.00    +0.000 F 
BRANCH   9  12
ATOM     12  C   UNL     1       1.990   3.205  19.560  0.00  0.00    +0.000 C 
ATOM     13  F   UNL     1       1.598   1.929  19.806  0.00  0.00    +0.000 F 
ATOM     14  F   UNL     1       3.138   3.413  20.255  0.00  0.00    +0.000 F 
ATOM     15  F   UNL     1       1.048   3.998  20.142  0.00  0.00    +0.000 F 
ENDBRANCH   9  12
ENDBRANCH   5   9
BRANCH   3  16
ATOM     16  C   UNL     1       6.897   4.526  17.076  0.00  0.00    +0.000 C 
ATOM     17  O   UNL     1       7.869   4.565  16.338  0.00  0.00    +0.000 OA
BRANCH  16  18
ATOM     18  O   UNL     1       7.012   4.205  18.389  0.00  0.00    +0.000 OA
ATOM     19  H   UNL     1       7.174   4.961  18.983  0.00  0.00    +0.000 HD
ENDBRANCH  16  18
ENDBRANCH   3  16
TORSDOF 5
ENDMDL
MODEL 6
REMARK VINA RESULT:      -6.7      0.958      1.934
REMARK  Name = 
REMARK  5 active torsions:
REMARK  status: ('A' for Active; 'I' for Inactive)
REMARK    1  A    between atoms: N_1  and  C_2
REMARK    2  A    between atoms: C_4  and  C_5
REMARK    3  A    between atoms: C_5  and  O_7
REMARK    4  A    between atoms: C_9  and  C_10
REMARK    5  A    between atoms: C_10  and  C_13
REMARK                            x       y       z     vdW  Elec       q    Type
REMARK                         _______ _______ _______ _____ _____    ______ ____
ROOT
ATOM      1  C   UNL     1       3.658   5.839  18.199  0.00  0.00    +0.000 C 
ATOM      2  C   UNL     1       5.143   6.120  17.914  0.00  0.00    +0.000 C 
ATOM      3  C   UNL     1       5.559   5.126  16.824  0.00  0.00    +0.000 C 
ATOM      4  C   UNL     1       4.533   4.041  16.989  0.00  0.00    +0.000 C 
ATOM      5  C   UNL     1       3.501   4.423  17.760  0.00  0.00    +0.000 C 
ENDROOT
BRANCH   1   6
ATOM      6  N   UNL     1       3.326   6.075  19.585  0.00  0.00    +0.000 NA
ATOM      7  H   UNL     1       3.442   5.217  20.126  0.00  0.00    +0.000 HD
ATOM      8  H   UNL     1       2.340   6.328  19.686  0.00  0.00    +0.000 HD
ENDBRANCH   1   6
BRANCH   5   9
ATOM      9  C   UNL     1       2.235   3.653  18.030  0.00  0.00    +0.000 C 
ATOM     10  F   UNL     1       1.168   4.485  17.802  0.00  0.00    +0.000 F 
ATOM     11  F   UNL     1       2.093   2.678  17.071  0.00  0.00    +0.000 F 
BRANCH   9  12
ATOM     12  C   UNL     1       2.100   2.994  19.431  0.00  0.00    +0.000 C 
ATOM     13  F   UNL     1       1.253   3.643  20.271  0.00  0.00    +0.000 F 
ATOM     14  F   UNL     1       1.678   1.706  19.353  0.00  0.00    +0.000 F 
ATOM     15  F   UNL     1       3.300   2.959  20.074  0.00  0.00    +0.000 F 
ENDBRANCH   9  12
ENDBRANCH   5   9
BRANCH   3  16
ATOM     16  C   UNL     1       6.981   4.613  17.027  0.00  0.00    +0.000 C 
ATOM     17  O   UNL     1       7.843   4.560  16.163  0.00  0.00    +0.000 OA
BRANCH  16  18
ATOM     18  O   UNL     1       7.235   4.248  18.308  0.00  0.00    +0.000 OA
ATOM     19  H   UNL     1       6.536   4.482  18.947  0.00  0.00    +0.000 HD
ENDBRANCH  16  18
ENDBRANCH   3  16
TORSDOF 5
ENDMDL
MODEL 7
REMARK VINA RESULT:      -6.7      1.445      1.770
REMARK  Name = 
REMARK  5 active torsions:
REMARK  status: ('A' for Active; 'I' for Inactive)
REMARK    1  A    between atoms: N_1  and  C_2
REMARK    2  A    between atoms: C_4  and  C_5
REMARK    3  A    between atoms: C_5  and  O_7
REMARK    4  A    between atoms: C_9  and  C_10
REMARK    5  A    between atoms: C_10  and  C_13
REMARK                            x       y       z     vdW  Elec       q    Type
REMARK                         _______ _______ _______ _____ _____    ______ ____
ROOT
ATOM      1  C   UNL     1       4.623   3.899  19.274  0.00  0.00    +0.000 C 
ATOM      2  C   UNL     1       5.751   4.879  18.908  0.00  0.00    +0.000 C 
ATOM      3  C   UNL     1       5.197   5.758  17.781  0.00  0.00    +0.000 C 
ATOM      4  C   UNL     1       4.107   4.890  17.221  0.00  0.00    +0.000 C 
ATOM      5  C   UNL     1       3.806   3.858  18.027  0.00  0.00    +0.000 C 
ENDROOT
BRANCH   1   6
ATOM      6  N   UNL     1       5.143   2.617  19.689  0.00  0.00    +0.000 NA
ATOM      7  H   UNL     1       5.971   2.744  20.271  0.00  0.00    +0.000 HD
ATOM      8  H   UNL     1       5.459   2.073  18.883  0.00  0.00    +0.000 HD
ENDBRANCH   1   6
BRANCH   5   9
ATOM      9  C   UNL     1       2.682   2.869  17.857  0.00  0.00    +0.000 C 
ATOM     10  F   UNL     1       2.096   3.089  16.636  0.00  0.00    +0.000 F 
ATOM     11  F   UNL     1       3.213   1.608  17.736  0.00  0.00    +0.000 F 
BRANCH   9  12
ATOM     12  C   UNL     1       1.595   2.846  18.968  0.00  0.00    +0.000 C 
ATOM     13  F   UNL     1       1.932   2.114  20.060  0.00  0.00    +0.000 F 
ATOM     14  F   UNL     1       1.281   4.094  19.402  0.00  0.00    +0.000 F 
ATOM     15  F   UNL     1       0.433   2.306  18.506  0.00  0.00    +0.000 F 
ENDBRANCH   9  12
ENDBRANCH   5   9
BRANCH   3  16
ATOM     16  C   UNL     1       6.260   6.095  16.741  0.00  0.00    +0.000 C 
ATOM     17  O   UNL     1       7.464   5.948  16.887  0.00  0.00    +0.000 OA
BRANCH  16  18
ATOM     18  O   UNL     1       5.736   6.546  15.574  0.00  0.00    +0.000 OA
ATOM     19  H   UNL     1       5.900   7.489  15.388  0.00  0.00    +0.000 HD
ENDBRANCH  16  18
ENDBRANCH   3  16
TORSDOF 5
ENDMDL
MODEL 8
REMARK VINA RESULT:      -6.7      0.895      1.957
REMARK  Name = 
REMARK  5 active torsions:
REMARK  status: ('A' for Active; 'I' for Inactive)
REMARK    1  A    between atoms: N_1  and  C_2
REMARK    2  A    between atoms: C_4  and  C_5
REMARK    3  A    between atoms: C_5  and  O_7
REMARK    4  A    between atoms: C_9  and  C_10
REMARK    5  A    between atoms: C_10  and  C_13
REMARK                            x       y       z     vdW  Elec       q    Type
REMARK                         _______ _______ _______ _____ _____    ______ ____
ROOT
ATOM      1  C   UNL     1       4.172   5.703  18.177  0.00  0.00    +0.000 C 
ATOM      2  C   UNL     1       5.528   6.168  17.618  0.00  0.00    +0.000 C 
ATOM      3  C   UNL     1       5.705   5.438  16.282  0.00  0.00    +0.000 C 
ATOM      4  C   UNL     1       4.801   4.252  16.456  0.00  0.00    +0.000 C 
ATOM      5  C   UNL     1       3.975   4.385  17.507  0.00  0.00    +0.000 C 
ENDROOT
BRANCH   1   6
ATOM      6  N   UNL     1       4.182   5.643  19.621  0.00  0.00    +0.000 NA
ATOM      7  H   UNL     1       3.227   5.625  19.979  0.00  0.00    +0.000 HD
ATOM      8  H   UNL     1       4.604   6.485  20.017  0.00  0.00    +0.000 HD
ENDBRANCH   1   6
BRANCH   5   9
ATOM      9  C   UNL     1       2.849   3.464  17.901  0.00  0.00    +0.000 C 
ATOM     10  F   UNL     1       1.864   4.216  18.490  0.00  0.00    +0.000 F 
ATOM     11  F   UNL     1       2.249   2.983  16.763  0.00  0.00    +0.000 F 
BRANCH   9  12
ATOM     12  C   UNL     1       3.215   2.263  18.817  0.00  0.00    +0.000 C 
ATOM     13  F   UNL     1       2.233   1.906  19.684  0.00  0.00    +0.000 F 
ATOM     14  F   UNL     1       3.541   1.155  18.102  0.00  0.00    +0.000 F 
ATOM     15  F   UNL     1       4.301   2.546  19.588  0.00  0.00    +0.000 F 
ENDBRANCH   9  12
ENDBRANCH   5   9
BRANCH   3  16
ATOM     16  C   UNL     1       7.155   5.030  16.039  0.00  0.00    +0.000 C 
ATOM     17  O   UNL     1       7.860   4.425  16.832  0.00  0.00    +0.000 OA
BRANCH  16  18
ATOM     18  O   UNL     1       7.600   5.367  14.803  0.00  0.00    +0.000 OA
ATOM     19  H   UNL     1       6.942   5.271  14.090  0.00  0.00    +0.000 HD
ENDBRANCH  16  18
ENDBRANCH   3  16
TORSDOF 5
ENDMDL
MODEL 9
REMARK VINA RESULT:      -6.7      1.658      2.239
REMARK  Name = 
REMARK  5 active torsions:
REMARK  status: ('A' for Active; 'I' for Inactive)
REMARK    1  A    between atoms: N_1  and  C_2
REMARK    2  A    between atoms: C_4  and  C_5
REMARK    3  A    between atoms: C_5  and  O_7
REMARK    4  A    between atoms: C_9  and  C_10
REMARK    5  A    between atoms: C_10  and  C_13
REMARK                            x       y       z     vdW  Elec       q    Type
REMARK                         _______ _______ _______ _____ _____    ______ ____
ROOT
ATOM      1  C   UNL     1       4.545   4.180  19.198  0.00  0.00    +0.000 C 
ATOM      2  C   UNL     1       5.625   5.137  18.665  0.00  0.00    +0.000 C 
ATOM      3  C   UNL     1       4.878   6.221  17.880  0.00  0.00    +0.000 C 
ATOM      4  C   UNL     1       3.592   5.524  17.540  0.00  0.00    +0.000 C 
ATOM      5  C   UNL     1       3.417   4.394  18.245  0.00  0.00    +0.000 C 
ENDROOT
BRANCH   1   6
ATOM      6  N   UNL     1       5.022   2.818  19.261  0.00  0.00    +0.000 NA
ATOM      7  H   UNL     1       6.033   2.792  19.128  0.00  0.00    +0.000 HD
ATOM      8  H   UNL     1       4.634   2.260  18.497  0.00  0.00    +0.000 HD
ENDBRANCH   1   6
BRANCH   5   9
ATOM      9  C   UNL     1       2.193   3.516  18.268  0.00  0.00    +0.000 C 
ATOM     10  F   UNL     1       1.264   4.051  17.411  0.00  0.00    +0.000 F 
ATOM     11  F   UNL     1       2.501   2.307  17.694  0.00  0.00    +0.000 F 
BRANCH   9  12
ATOM     12  C   UNL     1       1.542   3.257  19.656  0.00  0.00    +0.000 C 
ATOM     13  F   UNL     1       2.170   2.307  20.394  0.00  0.00    +0.000 F 
ATOM     14  F   UNL     1       1.487   4.382  20.413  0.00  0.00    +0.000 F 
ATOM     15  F   UNL     1       0.256   2.829  19.523  0.00  0.00    +0.000 F 
ENDBRANCH   9  12
ENDBRANCH   5   9
BRANCH   3  16
ATOM     16  C   UNL     1       5.643   6.660  16.636  0.00  0.00    +0.000 C 
ATOM     17  O   UNL     1       5.186   6.705  15.504  0.00  0.00    +0.000 OA
BRANCH  16  18
ATOM     18  O   UNL     1       6.912   7.056  16.907  0.00  0.00    +0.000 OA
ATOM     19  H   UNL     1       6.983   7.816  17.514  0.00  0.00    +0.000 HD
ENDBRANCH  16  18
ENDBRANCH   3  16
TORSDOF 5
ENDMDL
