MODEL 1
REMARK VINA RESULT:      -7.4      0.000      0.000
REMARK  Name = 
REMARK  7 active torsions:
REMARK  status: ('A' for Active; 'I' for Inactive)
REMARK    1  A    between atoms: C_2  and  C_3
REMARK    2  A    between atoms: C_3  and  C_4
REMARK    3  A    between atoms: C_5  and  O_6
REMARK    4  A    between atoms: C_10  and  O_11
REMARK    5  A    between atoms: C_15  and  C_16
REMARK    6  A    between atoms: C_19  and  O_20
REMARK    7  A    between atoms: O_20  and  C_21
REMARK                            x       y       z     vdW  Elec       q    Type
REMARK                         _______ _______ _______ _____ _____    ______ ____
ROOT
ATOM      1  C   UNL     1       2.888   3.796  18.903  0.00  0.00    +0.000 A 
ATOM      2  C   UNL     1       3.968   2.975  19.268  0.00  0.00    +0.000 A 
ATOM      3  C   UNL     1       5.289   3.353  19.014  0.00  0.00    +0.000 A 
ATOM      4  C   UNL     1       5.556   4.551  18.358  0.00  0.00    +0.000 A 
ATOM      5  C   UNL     1       4.506   5.395  18.000  0.00  0.00    +0.000 A 
ATOM      6  C   UNL     1       3.182   5.009  18.250  0.00  0.00    +0.000 A 
ATOM      7  C   UNL     1       4.838   6.682  17.362  0.00  0.00    +0.000 C 
ATOM      8  O   UNL     1       3.941   7.469  17.064  0.00  0.00    +0.000 OA
ATOM      9  C   UNL     1       6.296   6.993  17.192  0.00  0.00    +0.000 C 
ATOM     10  C   UNL     1       7.045   5.694  16.912  0.00  0.00    +0.000 C 
ATOM     11  O   UNL     1       6.866   4.776  18.012  0.00  0.00    +0.000 OA
ENDROOT
BRANCH  10  12
ATOM     12  C   UNL     1       6.745   5.097  15.532  0.00  0.00    +0.000 A 
ATOM     13  C   UNL     1       5.712   4.158  15.385  0.00  0.00    +0.000 A 
ATOM     14  C   UNL     1       5.474   3.542  14.149  0.00  0.00    +0.000 A 
ATOM     15  C   UNL     1       6.252   3.857  13.034  0.00  0.00    +0.000 A 
ATOM     16  C   UNL     1       7.265   4.798  13.163  0.00  0.00    +0.000 A 
ATOM     17  C   UNL     1       7.491   5.425  14.390  0.00  0.00    +0.000 A 
BRANCH  15  18
ATOM     18  O   UNL     1       5.948   3.181  11.886  0.00  0.00    +0.000 OA
ATOM     19  C   UNL     1       4.561   3.124  11.566  0.00  0.00    +0.000 C 
ENDBRANCH  15  18
ENDBRANCH  10  12
BRANCH   2  20
ATOM     20  O   UNL     1       3.815   1.755  19.865  0.00  0.00    +0.000 OA
ATOM     21  H   UNL     1       4.689   1.366  20.036  0.00  0.00    +0.000 HD
ENDBRANCH   2  20
BRANCH   6  22
ATOM     22  O   UNL     1       2.125   5.787  17.841  0.00  0.00    +0.000 OA
ATOM     23  H   UNL     1       1.307   5.241  17.869  0.00  0.00    +0.000 HD
ENDBRANCH   6  22
BRANCH   1  24
ATOM     24  C   UNL     1       1.449   3.413  19.174  0.00  0.00    +0.000 C 
BRANCH  24  26
ATOM     25  C   UNL     1       1.262   2.881  21.633  0.00  0.00    +0.000 C 
ATOM     26  C   UNL     1       1.030   3.691  20.590  0.00  0.00    +0.000 C 
ENDBRANCH  24  26
ENDBRANCH   1  24
TORSDOF 6
ENDMDL
MODEL 2
REMARK VINA RESULT:      -7.2      2.815      6.591
REMARK  Name = 
REMARK  7 active torsions:
REMARK  status: ('A' for Active; 'I' for Inactive)
REMARK    1  A    between atoms: C_2  and  C_3
REMARK    2  A    between atoms: C_3  and  C_4
REMARK    3  A    between atoms: C_5  and  O_6
REMARK    4  A    between atoms: C_10  and  O_11
REMARK    5  A    between atoms: C_15  and  C_16
REMARK    6  A    between atoms: C_19  and  O_20
REMARK    7  A    between atoms: O_20  and  C_21
REMARK                            x       y       z     vdW  Elec       q    Type
REMARK                         _______ _______ _______ _____ _____    ______ ____
ROOT
ATOM      1  C   UNL     1       5.165   3.901  16.947  0.00  0.00    +0.000 A 
ATOM      2  C   UNL     1       5.949   4.236  18.063  0.00  0.00    +0.000 A 
ATOM      3  C   UNL     1       5.369   4.512  19.304  0.00  0.00    +0.000 A 
ATOM      4  C   UNL     1       3.985   4.489  19.446  0.00  0.00    +0.000 A 
ATOM      5  C   UNL     1       3.182   4.141  18.361  0.00  0.00    +0.000 A 
ATOM      6  C   UNL     1       3.767   3.872  17.116  0.00  0.00    +0.000 A 
ATOM      7  C   UNL     1       1.725   4.070  18.572  0.00  0.00    +0.000 C 
ATOM      8  O   UNL     1       0.986   3.731  17.648  0.00  0.00    +0.000 OA
ATOM      9  C   UNL     1       1.232   4.337  19.963  0.00  0.00    +0.000 C 
ATOM     10  C   UNL     1       2.127   5.393  20.605  0.00  0.00    +0.000 C 
ATOM     11  O   UNL     1       3.489   4.919  20.652  0.00  0.00    +0.000 OA
ENDROOT
BRANCH  10  12
ATOM     12  C   UNL     1       1.961   6.790  19.999  0.00  0.00    +0.000 A 
ATOM     13  C   UNL     1       1.328   7.803  20.737  0.00  0.00    +0.000 A 
ATOM     14  C   UNL     1       1.095   9.064  20.172  0.00  0.00    +0.000 A 
ATOM     15  C   UNL     1       1.497   9.344  18.865  0.00  0.00    +0.000 A 
ATOM     16  C   UNL     1       2.140   8.356  18.131  0.00  0.00    +0.000 A 
ATOM     17  C   UNL     1       2.389   7.105  18.701  0.00  0.00    +0.000 A 
BRANCH  15  18
ATOM     18  O   UNL     1       1.200  10.596  18.407  0.00  0.00    +0.000 OA
ATOM     19  C   UNL     1       0.967  11.572  19.418  0.00  0.00    +0.000 C 
ENDBRANCH  15  18
ENDBRANCH  10  12
BRANCH   2  20
ATOM     20  O   UNL     1       7.311   4.343  18.019  0.00  0.00    +0.000 OA
ATOM     21  H   UNL     1       7.557   5.256  17.793  0.00  0.00    +0.000 HD
ENDBRANCH   2  20
BRANCH   6  22
ATOM     22  O   UNL     1       2.996   3.599  16.012  0.00  0.00    +0.000 OA
ATOM     23  H   UNL     1       2.468   4.400  15.794  0.00  0.00    +0.000 HD
ENDBRANCH   6  22
BRANCH   1  24
ATOM     24  C   UNL     1       5.769   3.589  15.594  0.00  0.00    +0.000 C 
BRANCH  24  26
ATOM     25  C   UNL     1       7.100   4.929  13.922  0.00  0.00    +0.000 C 
ATOM     26  C   UNL     1       6.098   4.825  14.805  0.00  0.00    +0.000 C 
ENDBRANCH  24  26
ENDBRANCH   1  24
TORSDOF 6
ENDMDL
MODEL 3
REMARK VINA RESULT:      -7.1      0.844      1.379
REMARK  Name = 
REMARK  7 active torsions:
REMARK  status: ('A' for Active; 'I' for Inactive)
REMARK    1  A    between atoms: C_2  and  C_3
REMARK    2  A    between atoms: C_3  and  C_4
REMARK    3  A    between atoms: C_5  and  O_6
REMARK    4  A    between atoms: C_10  and  O_11
REMARK    5  A    between atoms: C_15  and  C_16
REMARK    6  A    between atoms: C_19  and  O_20
REMARK    7  A    between atoms: O_20  and  C_21
REMARK                            x       y       z     vdW  Elec       q    Type
REMARK                         _______ _______ _______ _____ _____    ______ ____
ROOT
ATOM      1  C   UNL     1       3.055   4.400  19.335  0.00  0.00    +0.000 A 
ATOM      2  C   UNL     1       3.994   3.427  19.716  0.00  0.00    +0.000 A 
ATOM      3  C   UNL     1       5.344   3.547  19.378  0.00  0.00    +0.000 A 
ATOM      4  C   UNL     1       5.779   4.631  18.622  0.00  0.00    +0.000 A 
ATOM      5  C   UNL     1       4.875   5.622  18.245  0.00  0.00    +0.000 A 
ATOM      6  C   UNL     1       3.519   5.495  18.579  0.00  0.00    +0.000 A 
ATOM      7  C   UNL     1       5.390   6.783  17.498  0.00  0.00    +0.000 C 
ATOM      8  O   UNL     1       4.630   7.696  17.179  0.00  0.00    +0.000 OA
ATOM      9  C   UNL     1       6.868   6.817  17.243  0.00  0.00    +0.000 C 
ATOM     10  C   UNL     1       7.363   5.390  17.032  0.00  0.00    +0.000 C 
ATOM     11  O   UNL     1       7.087   4.596  18.205  0.00  0.00    +0.000 OA
ENDROOT
BRANCH  10  12
ATOM     12  C   UNL     1       6.889   4.765  15.715  0.00  0.00    +0.000 A 
ATOM     13  C   UNL     1       7.443   5.192  14.498  0.00  0.00    +0.000 A 
ATOM     14  C   UNL     1       6.968   4.691  13.279  0.00  0.00    +0.000 A 
ATOM     15  C   UNL     1       5.939   3.747  13.248  0.00  0.00    +0.000 A 
ATOM     16  C   UNL     1       5.396   3.304  14.446  0.00  0.00    +0.000 A 
ATOM     17  C   UNL     1       5.882   3.789  15.662  0.00  0.00    +0.000 A 
BRANCH  15  18
ATOM     18  O   UNL     1       5.539   3.344  12.006  0.00  0.00    +0.000 OA
ATOM     19  C   UNL     1       5.949   2.032  11.634  0.00  0.00    +0.000 C 
ENDBRANCH  15  18
ENDBRANCH  10  12
BRANCH   2  20
ATOM     20  O   UNL     1       3.663   2.297  20.409  0.00  0.00    +0.000 OA
ATOM     21  H   UNL     1       4.137   2.287  21.258  0.00  0.00    +0.000 HD
ENDBRANCH   2  20
BRANCH   6  22
ATOM     22  O   UNL     1       2.593   6.419  18.157  0.00  0.00    +0.000 OA
ATOM     23  H   UNL     1       2.645   6.488  17.178  0.00  0.00    +0.000 HD
ENDBRANCH   6  22
BRANCH   1  24
ATOM     24  C   UNL     1       1.588   4.299  19.695  0.00  0.00    +0.000 C 
BRANCH  24  26
ATOM     25  C   UNL     1       0.697   2.122  18.783  0.00  0.00    +0.000 C 
ATOM     26  C   UNL     1       0.808   3.457  18.726  0.00  0.00    +0.000 C 
ENDBRANCH  24  26
ENDBRANCH   1  24
TORSDOF 6
ENDMDL
MODEL 4
REMARK VINA RESULT:      -7.1      2.769      6.600
REMARK  Name = 
REMARK  7 active torsions:
REMARK  status: ('A' for Active; 'I' for Inactive)
REMARK    1  A    between atoms: C_2  and  C_3
REMARK    2  A    between atoms: C_3  and  C_4
REMARK    3  A    between atoms: C_5  and  O_6
REMARK    4  A    between atoms: C_10  and  O_11
REMARK    5  A    between atoms: C_15  and  C_16
REMARK    6  A    between atoms: C_19  and  O_20
REMARK    7  A    between atoms: O_20  and  C_21
REMARK                            x       y       z     vdW  Elec       q    Type
REMARK                         _______ _______ _______ _____ _____    ______ ____
ROOT
ATOM      1  C   UNL     1       4.890   3.773  16.986  0.00  0.00    +0.000 A 
ATOM      2  C   UNL     1       5.731   4.152  18.046  0.00  0.00    +0.000 A 
ATOM      3  C   UNL     1       5.218   4.456  19.309  0.00  0.00    +0.000 A 
ATOM      4  C   UNL     1       3.844   4.419  19.530  0.00  0.00    +0.000 A 
ATOM      5  C   UNL     1       2.987   4.029  18.503  0.00  0.00    +0.000 A 
ATOM      6  C   UNL     1       3.504   3.731  17.235  0.00  0.00    +0.000 A 
ATOM      7  C   UNL     1       1.545   3.944  18.800  0.00  0.00    +0.000 C 
ATOM      8  O   UNL     1       0.760   3.569  17.930  0.00  0.00    +0.000 OA
ATOM      9  C   UNL     1       1.128   4.247  20.209  0.00  0.00    +0.000 C 
ATOM     10  C   UNL     1       2.042   5.332  20.768  0.00  0.00    +0.000 C 
ATOM     11  O   UNL     1       3.412   4.878  20.750  0.00  0.00    +0.000 OA
ENDROOT
BRANCH  10  12
ATOM     12  C   UNL     1       1.821   6.709  20.132  0.00  0.00    +0.000 A 
ATOM     13  C   UNL     1       2.340   6.982  18.856  0.00  0.00    +0.000 A 
ATOM     14  C   UNL     1       2.218   8.258  18.291  0.00  0.00    +0.000 A 
ATOM     15  C   UNL     1       1.568   9.284  18.980  0.00  0.00    +0.000 A 
ATOM     16  C   UNL     1       1.036   9.021  20.234  0.00  0.00    +0.000 A 
ATOM     17  C   UNL     1       1.141   7.744  20.791  0.00  0.00    +0.000 A 
BRANCH  15  18
ATOM     18  O   UNL     1       1.527  10.493  18.345  0.00  0.00    +0.000 OA
ATOM     19  C   UNL     1       1.152  11.595  19.166  0.00  0.00    +0.000 C 
ENDBRANCH  15  18
ENDBRANCH  10  12
BRANCH   2  20
ATOM     20  O   UNL     1       7.086   4.275  17.920  0.00  0.00    +0.000 OA
ATOM     21  H   UNL     1       7.521   3.873  18.690  0.00  0.00    +0.000 HD
ENDBRANCH   2  20
BRANCH   6  22
ATOM     22  O   UNL     1       2.675   3.416  16.185  0.00  0.00    +0.000 OA
ATOM     23  H   UNL     1       1.911   4.035  16.194  0.00  0.00    +0.000 HD
ENDBRANCH   6  22
BRANCH   1  24
ATOM     24  C   UNL     1       5.420   3.430  15.611  0.00  0.00    +0.000 C 
BRANCH  24  26
ATOM     25  C   UNL     1       6.968   4.991  14.373  0.00  0.00    +0.000 C 
ATOM     26  C   UNL     1       5.742   4.647  14.790  0.00  0.00    +0.000 C 
ENDBRANCH  24  26
ENDBRANCH   1  24
TORSDOF 6
ENDMDL
MODEL 5
REMARK VINA RESULT:      -7.0      0.629      1.210
REMARK  Name = 
REMARK  7 active torsions:
REMARK  status: ('A' for Active; 'I' for Inactive)
REMARK    1  A    between atoms: C_2  and  C_3
REMARK    2  A    between atoms: C_3  and  C_4
REMARK    3  A    between atoms: C_5  and  O_6
REMARK    4  A    between atoms: C_10  and  O_11
REMARK    5  A    between atoms: C_15  and  C_16
REMARK    6  A    between atoms: C_19  and  O_20
REMARK    7  A    between atoms: O_20  and  C_21
REMARK                            x       y       z     vdW  Elec       q    Type
REMARK                         _______ _______ _______ _____ _____    ______ ____
ROOT
ATOM      1  C   UNL     1       2.808   4.065  18.894  0.00  0.00    +0.000 A 
ATOM      2  C   UNL     1       3.763   3.129  19.324  0.00  0.00    +0.000 A 
ATOM      3  C   UNL     1       5.129   3.337  19.122  0.00  0.00    +0.000 A 
ATOM      4  C   UNL     1       5.568   4.475  18.452  0.00  0.00    +0.000 A 
ATOM      5  C   UNL     1       4.646   5.430  18.029  0.00  0.00    +0.000 A 
ATOM      6  C   UNL     1       3.275   5.215  18.228  0.00  0.00    +0.000 A 
ATOM      7  C   UNL     1       5.160   6.650  17.379  0.00  0.00    +0.000 C 
ATOM      8  O   UNL     1       4.380   7.532  17.025  0.00  0.00    +0.000 OA
ATOM      9  C   UNL     1       6.651   6.776  17.267  0.00  0.00    +0.000 C 
ATOM     10  C   UNL     1       7.245   5.388  17.049  0.00  0.00    +0.000 C 
ATOM     11  O   UNL     1       6.909   4.530  18.160  0.00  0.00    +0.000 OA
ENDROOT
BRANCH  10  12
ATOM     12  C   UNL     1       6.932   4.796  15.670  0.00  0.00    +0.000 A 
ATOM     13  C   UNL     1       7.613   5.265  14.536  0.00  0.00    +0.000 A 
ATOM     14  C   UNL     1       7.286   4.795  13.258  0.00  0.00    +0.000 A 
ATOM     15  C   UNL     1       6.283   3.840  13.085  0.00  0.00    +0.000 A 
ATOM     16  C   UNL     1       5.615   3.355  14.201  0.00  0.00    +0.000 A 
ATOM     17  C   UNL     1       5.953   3.810  15.477  0.00  0.00    +0.000 A 
BRANCH  15  18
ATOM     18  O   UNL     1       6.031   3.468  11.795  0.00  0.00    +0.000 OA
ATOM     19  C   UNL     1       5.764   2.082  11.605  0.00  0.00    +0.000 C 
ENDBRANCH  15  18
ENDBRANCH  10  12
BRANCH   2  20
ATOM     20  O   UNL     1       3.436   1.953  19.940  0.00  0.00    +0.000 OA
ATOM     21  H   UNL     1       3.203   1.290  19.269  0.00  0.00    +0.000 HD
ENDBRANCH   2  20
BRANCH   6  22
ATOM     22  O   UNL     1       2.340   6.105  17.756  0.00  0.00    +0.000 OA
ATOM     23  H   UNL     1       1.755   5.634  17.121  0.00  0.00    +0.000 HD
ENDBRANCH   6  22
BRANCH   1  24
ATOM     24  C   UNL     1       1.323   3.869  19.109  0.00  0.00    +0.000 C 
BRANCH  24  26
ATOM     25  C   UNL     1       1.454   5.436  21.081  0.00  0.00    +0.000 C 
ATOM     26  C   UNL     1       0.839   4.456  20.405  0.00  0.00    +0.000 C 
ENDBRANCH  24  26
ENDBRANCH   1  24
TORSDOF 6
ENDMDL
MODEL 6
REMARK VINA RESULT:      -6.9      6.041      8.482
REMARK  Name = 
REMARK  7 active torsions:
REMARK  status: ('A' for Active; 'I' for Inactive)
REMARK    1  A    between atoms: C_2  and  C_3
REMARK    2  A    between atoms: C_3  and  C_4
REMARK    3  A    between atoms: C_5  and  O_6
REMARK    4  A    between atoms: C_10  and  O_11
REMARK    5  A    between atoms: C_15  and  C_16
REMARK    6  A    between atoms: C_19  and  O_20
REMARK    7  A    between atoms: O_20  and  C_21
REMARK                            x       y       z     vdW  Elec       q    Type
REMARK                         _______ _______ _______ _____ _____    ______ ____
ROOT
ATOM      1  C   UNL     1       1.954   7.007  19.969  0.00  0.00    +0.000 A 
ATOM      2  C   UNL     1       2.299   7.188  18.619  0.00  0.00    +0.000 A 
ATOM      3  C   UNL     1       2.233   8.445  18.013  0.00  0.00    +0.000 A 
ATOM      4  C   UNL     1       1.788   9.546  18.740  0.00  0.00    +0.000 A 
ATOM      5  C   UNL     1       1.457   9.400  20.085  0.00  0.00    +0.000 A 
ATOM      6  C   UNL     1       1.517   8.136  20.688  0.00  0.00    +0.000 A 
ATOM      7  C   UNL     1       1.049  10.604  20.832  0.00  0.00    +0.000 C 
ATOM      8  O   UNL     1       0.783  10.523  22.031  0.00  0.00    +0.000 OA
ATOM      9  C   UNL     1       1.069  11.902  20.080  0.00  0.00    +0.000 C 
ATOM     10  C   UNL     1       0.677  11.635  18.631  0.00  0.00    +0.000 C 
ATOM     11  O   UNL     1       1.608  10.709  18.032  0.00  0.00    +0.000 OA
ENDROOT
BRANCH  10  12
ATOM     12  C   UNL     1      -0.798  11.257  18.454  0.00  0.00    +0.000 A 
ATOM     13  C   UNL     1      -1.148  10.166  17.642  0.00  0.00    +0.000 A 
ATOM     14  C   UNL     1      -2.492   9.852  17.403  0.00  0.00    +0.000 A 
ATOM     15  C   UNL     1      -3.514  10.613  17.976  0.00  0.00    +0.000 A 
ATOM     16  C   UNL     1      -3.180  11.683  18.794  0.00  0.00    +0.000 A 
ATOM     17  C   UNL     1      -1.840  11.985  19.047  0.00  0.00    +0.000 A 
BRANCH  15  18
ATOM     18  O   UNL     1      -4.787  10.233  17.658  0.00  0.00    +0.000 OA
ATOM     19  C   UNL     1      -5.817  11.064  18.186  0.00  0.00    +0.000 C 
ENDBRANCH  15  18
ENDBRANCH  10  12
BRANCH   2  20
ATOM     20  O   UNL     1       2.693   6.166  17.802  0.00  0.00    +0.000 OA
ATOM     21  H   UNL     1       3.082   6.531  16.990  0.00  0.00    +0.000 HD
ENDBRANCH   2  20
BRANCH   6  22
ATOM     22  O   UNL     1       1.125   7.951  21.992  0.00  0.00    +0.000 OA
ATOM     23  H   UNL     1       1.422   7.059  22.283  0.00  0.00    +0.000 HD
ENDBRANCH   6  22
BRANCH   1  24
ATOM     24  C   UNL     1       2.024   5.658  20.651  0.00  0.00    +0.000 C 
BRANCH  24  26
ATOM     25  C   UNL     1       0.966   3.390  20.332  0.00  0.00    +0.000 C 
ATOM     26  C   UNL     1       0.933   4.724  20.209  0.00  0.00    +0.000 C 
ENDBRANCH  24  26
ENDBRANCH   1  24
TORSDOF 6
ENDMDL
MODEL 7
REMARK VINA RESULT:      -6.9      6.157      8.597
REMARK  Name = 
REMARK  7 active torsions:
REMARK  status: ('A' for Active; 'I' for Inactive)
REMARK    1  A    between atoms: C_2  and  C_3
REMARK    2  A    between atoms: C_3  and  C_4
REMARK    3  A    between atoms: C_5  and  O_6
REMARK    4  A    between atoms: C_10  and  O_11
REMARK    5  A    between atoms: C_15  and  C_16
REMARK    6  A    between atoms: C_19  and  O_20
REMARK    7  A    between atoms: O_20  and  C_21
REMARK                            x       y       z     vdW  Elec       q    Type
REMARK                         _______ _______ _______ _____ _____    ______ ____
ROOT
ATOM      1  C   UNL     1       1.904   7.182  20.035  0.00  0.00    +0.000 A 
ATOM      2  C   UNL     1       2.322   7.385  18.709  0.00  0.00    +0.000 A 
ATOM      3  C   UNL     1       2.252   8.644  18.108  0.00  0.00    +0.000 A 
ATOM      4  C   UNL     1       1.730   9.724  18.814  0.00  0.00    +0.000 A 
ATOM      5  C   UNL     1       1.326   9.558  20.137  0.00  0.00    +0.000 A 
ATOM      6  C   UNL     1       1.390   8.292  20.735  0.00  0.00    +0.000 A 
ATOM      7  C   UNL     1       0.837  10.743  20.866  0.00  0.00    +0.000 C 
ATOM      8  O   UNL     1       0.506  10.644  22.047  0.00  0.00    +0.000 OA
ATOM      9  C   UNL     1       0.861  12.047  20.125  0.00  0.00    +0.000 C 
ATOM     10  C   UNL     1       0.562  11.779  18.653  0.00  0.00    +0.000 C 
ATOM     11  O   UNL     1       1.555  10.887  18.104  0.00  0.00    +0.000 OA
ENDROOT
BRANCH  10  12
ATOM     12  C   UNL     1      -0.887  11.356  18.387  0.00  0.00    +0.000 A 
ATOM     13  C   UNL     1      -1.945  12.110  18.921  0.00  0.00    +0.000 A 
ATOM     14  C   UNL     1      -3.273  11.697  18.758  0.00  0.00    +0.000 A 
ATOM     15  C   UNL     1      -3.576  10.532  18.051  0.00  0.00    +0.000 A 
ATOM     16  C   UNL     1      -2.539   9.788  17.502  0.00  0.00    +0.000 A 
ATOM     17  C   UNL     1      -1.216  10.210  17.650  0.00  0.00    +0.000 A 
BRANCH  15  18
ATOM     18  O   UNL     1      -4.901  10.211  17.971  0.00  0.00    +0.000 OA
ATOM     19  C   UNL     1      -5.798  11.315  18.062  0.00  0.00    +0.000 C 
ENDBRANCH  15  18
ENDBRANCH  10  12
BRANCH   2  20
ATOM     20  O   UNL     1       2.795   6.382  17.910  0.00  0.00    +0.000 OA
ATOM     21  H   UNL     1       2.322   5.557  18.112  0.00  0.00    +0.000 HD
ENDBRANCH   2  20
BRANCH   6  22
ATOM     22  O   UNL     1       0.930   8.084  22.013  0.00  0.00    +0.000 OA
ATOM     23  H   UNL     1       1.062   7.137  22.242  0.00  0.00    +0.000 HD
ENDBRANCH   6  22
BRANCH   1  24
ATOM     24  C   UNL     1       1.977   5.831  20.713  0.00  0.00    +0.000 C 
BRANCH  24  26
ATOM     25  C   UNL     1       0.996   3.544  20.297  0.00  0.00    +0.000 C 
ATOM     26  C   UNL     1       0.917   4.880  20.232  0.00  0.00    +0.000 C 
ENDBRANCH  24  26
ENDBRANCH   1  24
TORSDOF 6
ENDMDL
MODEL 8
REMARK VINA RESULT:      -6.7      7.826     10.683
REMARK  Name = 
REMARK  7 active torsions:
REMARK  status: ('A' for Active; 'I' for Inactive)
REMARK    1  A    between atoms: C_2  and  C_3
REMARK    2  A    between atoms: C_3  and  C_4
REMARK    3  A    between atoms: C_5  and  O_6
REMARK    4  A    between atoms: C_10  and  O_11
REMARK    5  A    between atoms: C_15  and  C_16
REMARK    6  A    between atoms: C_19  and  O_20
REMARK    7  A    between atoms: O_20  and  C_21
REMARK                            x       y       z     vdW  Elec       q    Type
REMARK                         _______ _______ _______ _____ _____    ______ ____
ROOT
ATOM      1  C   UNL     1       2.069  14.295  18.475  0.00  0.00    +0.000 A 
ATOM      2  C   UNL     1       1.111  14.823  19.357  0.00  0.00    +0.000 A 
ATOM      3  C   UNL     1       0.238  13.993  20.065  0.00  0.00    +0.000 A 
ATOM      4  C   UNL     1       0.283  12.615  19.878  0.00  0.00    +0.000 A 
ATOM      5  C   UNL     1       1.234  12.061  19.024  0.00  0.00    +0.000 A 
ATOM      6  C   UNL     1       2.104  12.897  18.310  0.00  0.00    +0.000 A 
ATOM      7  C   UNL     1       1.286  10.593  18.903  0.00  0.00    +0.000 C 
ATOM      8  O   UNL     1       2.135  10.065  18.187  0.00  0.00    +0.000 OA
ATOM      9  C   UNL     1       0.328   9.813  19.755  0.00  0.00    +0.000 C 
ATOM     10  C   UNL     1      -0.970  10.604  19.883  0.00  0.00    +0.000 C 
ATOM     11  O   UNL     1      -0.706  11.886  20.492  0.00  0.00    +0.000 OA
ENDROOT
BRANCH  10  12
ATOM     12  C   UNL     1      -1.778  10.672  18.582  0.00  0.00    +0.000 A 
ATOM     13  C   UNL     1      -2.893  11.521  18.495  0.00  0.00    +0.000 A 
ATOM     14  C   UNL     1      -3.691  11.539  17.344  0.00  0.00    +0.000 A 
ATOM     15  C   UNL     1      -3.389  10.721  16.254  0.00  0.00    +0.000 A 
ATOM     16  C   UNL     1      -2.279   9.891  16.322  0.00  0.00    +0.000 A 
ATOM     17  C   UNL     1      -1.472   9.886  17.462  0.00  0.00    +0.000 A 
BRANCH  15  18
ATOM     18  O   UNL     1      -4.246  10.803  15.193  0.00  0.00    +0.000 OA
ATOM     19  C   UNL     1      -3.895  10.003  14.068  0.00  0.00    +0.000 C 
ENDBRANCH  15  18
ENDBRANCH  10  12
BRANCH   2  20
ATOM     20  O   UNL     1       0.945  16.163  19.569  0.00  0.00    +0.000 OA
ATOM     21  H   UNL     1       0.264  16.504  18.967  0.00  0.00    +0.000 HD
ENDBRANCH   2  20
BRANCH   6  22
ATOM     22  O   UNL     1       3.002  12.383  17.405  0.00  0.00    +0.000 OA
ATOM     23  H   UNL     1       3.477  13.130  16.978  0.00  0.00    +0.000 HD
ENDBRANCH   6  22
BRANCH   1  24
ATOM     24  C   UNL     1       3.032  15.171  17.703  0.00  0.00    +0.000 C 
BRANCH  24  26
ATOM     25  C   UNL     1       5.495  14.778  18.080  0.00  0.00    +0.000 C 
ATOM     26  C   UNL     1       4.340  15.367  18.417  0.00  0.00    +0.000 C 
ENDBRANCH  24  26
ENDBRANCH   1  24
TORSDOF 6
ENDMDL
MODEL 9
REMARK VINA RESULT:      -6.6      7.868     10.695
REMARK  Name = 
REMARK  7 active torsions:
REMARK  status: ('A' for Active; 'I' for Inactive)
REMARK    1  A    between atoms: C_2  and  C_3
REMARK    2  A    between atoms: C_3  and  C_4
REMARK    3  A    between atoms: C_5  and  O_6
REMARK    4  A    between atoms: C_10  and  O_11
REMARK    5  A    between atoms: C_15  and  C_16
REMARK    6  A    between atoms: C_19  and  O_20
REMARK    7  A    between atoms: O_20  and  C_21
REMARK                            x       y       z     vdW  Elec       q    Type
REMARK                         _______ _______ _______ _____ _____    ______ ____
ROOT
ATOM      1  C   UNL     1       2.015  14.248  18.591  0.00  0.00    +0.000 A 
ATOM      2  C   UNL     1       1.107  14.714  19.556  0.00  0.00    +0.000 A 
ATOM      3  C   UNL     1       0.290  13.835  20.271  0.00  0.00    +0.000 A 
ATOM      4  C   UNL     1       0.341  12.468  20.010  0.00  0.00    +0.000 A 
ATOM      5  C   UNL     1       1.245  11.975  19.071  0.00  0.00    +0.000 A 
ATOM      6  C   UNL     1       2.058  12.860  18.351  0.00  0.00    +0.000 A 
ATOM      7  C   UNL     1       1.308  10.516  18.871  0.00  0.00    +0.000 C 
ATOM      8  O   UNL     1       2.119  10.039  18.077  0.00  0.00    +0.000 OA
ATOM      9  C   UNL     1       0.415   9.678  19.737  0.00  0.00    +0.000 C 
ATOM     10  C   UNL     1      -0.883  10.440  19.985  0.00  0.00    +0.000 C 
ATOM     11  O   UNL     1      -0.599  11.693  20.643  0.00  0.00    +0.000 OA
ENDROOT
BRANCH  10  12
ATOM     12  C   UNL     1      -1.770  10.562  18.741  0.00  0.00    +0.000 A 
ATOM     13  C   UNL     1      -1.501   9.776  17.609  0.00  0.00    +0.000 A 
ATOM     14  C   UNL     1      -2.249   9.930  16.435  0.00  0.00    +0.000 A 
ATOM     15  C   UNL     1      -3.287  10.861  16.369  0.00  0.00    +0.000 A 
ATOM     16  C   UNL     1      -3.575  11.631  17.488  0.00  0.00    +0.000 A 
ATOM     17  C   UNL     1      -2.840  11.465  18.664  0.00  0.00    +0.000 A 
BRANCH  15  18
ATOM     18  O   UNL     1      -3.937  10.943  15.170  0.00  0.00    +0.000 OA
ATOM     19  C   UNL     1      -3.423  10.100  14.143  0.00  0.00    +0.000 C 
ENDBRANCH  15  18
ENDBRANCH  10  12
BRANCH   2  20
ATOM     20  O   UNL     1       0.937  16.038  19.848  0.00  0.00    +0.000 OA
ATOM     21  H   UNL     1       1.456  16.265  20.638  0.00  0.00    +0.000 HD
ENDBRANCH   2  20
BRANCH   6  22
ATOM     22  O   UNL     1       2.905  12.408  17.367  0.00  0.00    +0.000 OA
ATOM     23  H   UNL     1       2.780  11.437  17.270  0.00  0.00    +0.000 HD
ENDBRANCH   6  22
BRANCH   1  24
ATOM     24  C   UNL     1       2.918  15.178  17.809  0.00  0.00    +0.000 C 
BRANCH  24  26
ATOM     25  C   UNL     1       4.464  16.623  19.183  0.00  0.00    +0.000 C 
ATOM     26  C   UNL     1       4.202  15.483  18.528  0.00  0.00    +0.000 C 
ENDBRANCH  24  26
ENDBRANCH   1  24
TORSDOF 6
ENDMDL
