MODEL 1
REMARK VINA RESULT:      -6.6      0.000      0.000
REMARK  Name = 
REMARK  11 active torsions:
REMARK  status: ('A' for Active; 'I' for Inactive)
REMARK    1  A    between atoms: C_1  and  C_2
REMARK    2  A    between atoms: C_2  and  O_3
REMARK    3  A    between atoms: O_3  and  C_4
REMARK    4  A    between atoms: C_4  and  C_6
REMARK    5  A    between atoms: C_6  and  C_7
REMARK    6  A    between atoms: C_7  and  C_8
REMARK    7  A    between atoms: C_8  and  O_10
REMARK    8  A    between atoms: O_10  and  C_11
REMARK    9  A    between atoms: C_11  and  C_12
REMARK   10  A    between atoms: C_14  and  C_15
REMARK   11  A    between atoms: C_29  and  C_30
REMARK                            x       y       z     vdW  Elec       q    Type
REMARK                         _______ _______ _______ _____ _____    ______ ____
ROOT
ATOM      1  C   UNL     1      -1.351  13.631  21.126  0.00  0.00    +0.000 C 
ATOM      2  N   UNL     1      -2.799  13.468  20.864  0.00  0.00    +0.000 NA
ATOM      3  C   UNL     1      -3.273  12.645  19.987  0.00  0.00    +0.000 C 
ATOM      4  C   UNL     1      -2.464  11.728  19.114  0.00  0.00    +0.000 A 
ATOM      5  C   UNL     1      -2.859  11.580  17.771  0.00  0.00    +0.000 A 
ATOM      6  C   UNL     1      -2.215  10.661  16.939  0.00  0.00    +0.000 A 
ATOM      7 CL   UNL     1      -2.716  10.486  15.305  0.00  0.00    +0.000 Cl
ATOM      8  C   UNL     1      -1.156   9.900  17.418  0.00  0.00    +0.000 A 
ATOM      9  C   UNL     1      -0.735  10.054  18.739  0.00  0.00    +0.000 A 
ATOM     10  C   UNL     1      -1.391  10.957  19.596  0.00  0.00    +0.000 A 
ATOM     11  N   UNL     1      -0.898  11.123  20.908  0.00  0.00    +0.000 N 
ATOM     12  C   UNL     1      -0.364  10.173  21.770  0.00  0.00    +0.000 A 
ATOM     13  C   UNL     1      -0.342   8.702  21.584  0.00  0.00    +0.000 C 
ATOM     14  N   UNL     1       0.032  10.764  22.877  0.00  0.00    +0.000 NA
ATOM     15  N   UNL     1      -0.263  12.087  22.782  0.00  0.00    +0.000 NA
ATOM     16  C   UNL     1      -0.819  12.313  21.608  0.00  0.00    +0.000 A 
ENDROOT
BRANCH   3  17
ATOM     17  C   UNL     1      -4.766  12.597  19.860  0.00  0.00    +0.000 A 
ATOM     18  C   UNL     1      -5.553  12.672  21.015  0.00  0.00    +0.000 A 
ATOM     19  C   UNL     1      -6.942  12.556  20.922  0.00  0.00    +0.000 A 
ATOM     20  C   UNL     1      -7.545  12.368  19.679  0.00  0.00    +0.000 A 
ATOM     21  C   UNL     1      -6.765  12.305  18.524  0.00  0.00    +0.000 A 
ATOM     22  C   UNL     1      -5.377  12.416  18.612  0.00  0.00    +0.000 A 
ENDBRANCH   3  17
BRANCH   1  23
ATOM     23  C   UNL     1      -0.701  14.226  19.860  0.00  0.00    +0.000 C 
ATOM     24  O   UNL     1       0.229  13.676  19.269  0.00  0.00    +0.000 OA
BRANCH  23  25
ATOM     25  O   UNL     1      -1.218  15.431  19.485  0.00  0.00    +0.000 OA
BRANCH  25  26
ATOM     26  C   UNL     1      -0.317  16.281  18.757  0.00  0.00    +0.000 C 
ATOM     27  C   UNL     1      -1.029  17.525  18.258  0.00  0.00    +0.000 C 
ENDBRANCH  25  26
ENDBRANCH  23  25
ENDBRANCH   1  23
BRANCH   1  28
ATOM     28  C   UNL     1      -1.202  14.701  22.239  0.00  0.00    +0.000 C 
BRANCH  28  29
ATOM     29  C   UNL     1      -2.532  14.959  22.921  0.00  0.00    +0.000 C 
ATOM     30  O   UNL     1      -3.427  15.648  22.448  0.00  0.00    +0.000 OA
BRANCH  29  31
ATOM     31  O   UNL     1      -2.585  14.345  24.136  0.00  0.00    +0.000 OA
BRANCH  31  33
ATOM     32  C   UNL     1      -3.794  12.224  24.104  0.00  0.00    +0.000 C 
ATOM     33  C   UNL     1      -3.832  13.701  24.446  0.00  0.00    +0.000 C 
ENDBRANCH  31  33
ENDBRANCH  29  31
ENDBRANCH  28  29
ENDBRANCH   1  28
TORSDOF 8
ENDMDL
MODEL 2
REMARK VINA RESULT:      -6.6      0.988      1.416
REMARK  Name = 
REMARK  11 active torsions:
REMARK  status: ('A' for Active; 'I' for Inactive)
REMARK    1  A    between atoms: C_1  and  C_2
REMARK    2  A    between atoms: C_2  and  O_3
REMARK    3  A    between atoms: O_3  and  C_4
REMARK    4  A    between atoms: C_4  and  C_6
REMARK    5  A    between atoms: C_6  and  C_7
REMARK    6  A    between atoms: C_7  and  C_8
REMARK    7  A    between atoms: C_8  and  O_10
REMARK    8  A    between atoms: O_10  and  C_11
REMARK    9  A    between atoms: C_11  and  C_12
REMARK   10  A    between atoms: C_14  and  C_15
REMARK   11  A    between atoms: C_29  and  C_30
REMARK                            x       y       z     vdW  Elec       q    Type
REMARK                         _______ _______ _______ _____ _____    ______ ____
ROOT
ATOM      1  C   UNL     1      -1.238  13.593  21.408  0.00  0.00    +0.000 C 
ATOM      2  N   UNL     1      -2.689  13.533  21.122  0.00  0.00    +0.000 NA
ATOM      3  C   UNL     1      -3.200  12.783  20.201  0.00  0.00    +0.000 C 
ATOM      4  C   UNL     1      -2.437  11.862  19.292  0.00  0.00    +0.000 A 
ATOM      5  C   UNL     1      -2.821  11.804  17.939  0.00  0.00    +0.000 A 
ATOM      6  C   UNL     1      -2.224  10.889  17.070  0.00  0.00    +0.000 A 
ATOM      7 CL   UNL     1      -2.712  10.825  15.424  0.00  0.00    +0.000 Cl
ATOM      8  C   UNL     1      -1.220  10.042  17.522  0.00  0.00    +0.000 A 
ATOM      9  C   UNL     1      -0.808  10.106  18.853  0.00  0.00    +0.000 A 
ATOM     10  C   UNL     1      -1.419  11.004  19.747  0.00  0.00    +0.000 A 
ATOM     11  N   UNL     1      -0.935  11.076  21.071  0.00  0.00    +0.000 N 
ATOM     12  C   UNL     1      -0.472  10.053  21.890  0.00  0.00    +0.000 A 
ATOM     13  C   UNL     1      -0.537   8.594  21.632  0.00  0.00    +0.000 C 
ATOM     14  N   UNL     1      -0.055  10.564  23.029  0.00  0.00    +0.000 NA
ATOM     15  N   UNL     1      -0.268  11.906  22.997  0.00  0.00    +0.000 NA
ATOM     16  C   UNL     1      -0.793  12.223  21.830  0.00  0.00    +0.000 A 
ENDROOT
BRANCH   3  17
ATOM     17  C   UNL     1      -4.692  12.834  20.056  0.00  0.00    +0.000 A 
ATOM     18  C   UNL     1      -5.390  11.657  19.760  0.00  0.00    +0.000 A 
ATOM     19  C   UNL     1      -6.770  11.699  19.549  0.00  0.00    +0.000 A 
ATOM     20  C   UNL     1      -7.453  12.912  19.635  0.00  0.00    +0.000 A 
ATOM     21  C   UNL     1      -6.762  14.084  19.940  0.00  0.00    +0.000 A 
ATOM     22  C   UNL     1      -5.383  14.049  20.148  0.00  0.00    +0.000 A 
ENDBRANCH   3  17
BRANCH   1  23
ATOM     23  C   UNL     1      -0.536  14.208  20.180  0.00  0.00    +0.000 C 
ATOM     24  O   UNL     1      -1.013  15.148  19.542  0.00  0.00    +0.000 OA
BRANCH  23  25
ATOM     25  O   UNL     1       0.632  13.590  19.841  0.00  0.00    +0.000 OA
BRANCH  25  26
ATOM     26  C   UNL     1       1.357  14.205  18.764  0.00  0.00    +0.000 C 
ATOM     27  C   UNL     1       2.254  13.196  18.069  0.00  0.00    +0.000 C 
ENDBRANCH  25  26
ENDBRANCH  23  25
ENDBRANCH   1  23
BRANCH   1  28
ATOM     28  C   UNL     1      -1.039  14.596  22.574  0.00  0.00    +0.000 C 
BRANCH  28  29
ATOM     29  C   UNL     1      -2.371  14.987  23.183  0.00  0.00    +0.000 C 
ATOM     30  O   UNL     1      -3.014  15.978  22.859  0.00  0.00    +0.000 OA
BRANCH  29  31
ATOM     31  O   UNL     1      -2.744  14.104  24.152  0.00  0.00    +0.000 OA
BRANCH  31  33
ATOM     32  C   UNL     1      -4.419  12.415  24.697  0.00  0.00    +0.000 C 
ATOM     33  C   UNL     1      -4.152  13.832  24.228  0.00  0.00    +0.000 C 
ENDBRANCH  31  33
ENDBRANCH  29  31
ENDBRANCH  28  29
ENDBRANCH   1  28
TORSDOF 8
ENDMDL
MODEL 3
REMARK VINA RESULT:      -6.5      2.570      5.793
REMARK  Name = 
REMARK  11 active torsions:
REMARK  status: ('A' for Active; 'I' for Inactive)
REMARK    1  A    between atoms: C_1  and  C_2
REMARK    2  A    between atoms: C_2  and  O_3
REMARK    3  A    between atoms: O_3  and  C_4
REMARK    4  A    between atoms: C_4  and  C_6
REMARK    5  A    between atoms: C_6  and  C_7
REMARK    6  A    between atoms: C_7  and  C_8
REMARK    7  A    between atoms: C_8  and  O_10
REMARK    8  A    between atoms: O_10  and  C_11
REMARK    9  A    between atoms: C_11  and  C_12
REMARK   10  A    between atoms: C_14  and  C_15
REMARK   11  A    between atoms: C_29  and  C_30
REMARK                            x       y       z     vdW  Elec       q    Type
REMARK                         _______ _______ _______ _____ _____    ______ ____
ROOT
ATOM      1  C   UNL     1      -0.070  12.601  20.673  0.00  0.00    +0.000 C 
ATOM      2  N   UNL     1      -0.831  11.987  19.561  0.00  0.00    +0.000 NA
ATOM      3  C   UNL     1      -2.109  12.117  19.421  0.00  0.00    +0.000 C 
ATOM      4  C   UNL     1      -3.020  12.897  20.327  0.00  0.00    +0.000 A 
ATOM      5  C   UNL     1      -4.273  12.337  20.641  0.00  0.00    +0.000 A 
ATOM      6  C   UNL     1      -5.205  13.060  21.388  0.00  0.00    +0.000 A 
ATOM      7 CL   UNL     1      -6.733  12.367  21.754  0.00  0.00    +0.000 Cl
ATOM      8  C   UNL     1      -4.898  14.332  21.857  0.00  0.00    +0.000 A 
ATOM      9  C   UNL     1      -3.650  14.889  21.578  0.00  0.00    +0.000 A 
ATOM     10  C   UNL     1      -2.710  14.183  20.804  0.00  0.00    +0.000 A 
ATOM     11  N   UNL     1      -1.439  14.760  20.592  0.00  0.00    +0.000 N 
ATOM     12  C   UNL     1      -1.106  16.093  20.386  0.00  0.00    +0.000 A 
ATOM     13  C   UNL     1      -2.034  17.228  20.164  0.00  0.00    +0.000 C 
ATOM     14  N   UNL     1       0.202  16.205  20.293  0.00  0.00    +0.000 NA
ATOM     15  N   UNL     1       0.743  14.962  20.395  0.00  0.00    +0.000 NA
ATOM     16  C   UNL     1      -0.230  14.091  20.575  0.00  0.00    +0.000 A 
ENDROOT
BRANCH   3  17
ATOM     17  C   UNL     1      -2.718  11.439  18.230  0.00  0.00    +0.000 A 
ATOM     18  C   UNL     1      -1.991  10.446  17.563  0.00  0.00    +0.000 A 
ATOM     19  C   UNL     1      -2.512   9.856  16.410  0.00  0.00    +0.000 A 
ATOM     20  C   UNL     1      -3.756  10.255  15.922  0.00  0.00    +0.000 A 
ATOM     21  C   UNL     1      -4.488  11.236  16.590  0.00  0.00    +0.000 A 
ATOM     22  C   UNL     1      -3.971  11.832  17.741  0.00  0.00    +0.000 A 
ENDBRANCH   3  17
BRANCH   1  23
ATOM     23  C   UNL     1      -0.525  11.935  21.987  0.00  0.00    +0.000 C 
ATOM     24  O   UNL     1      -0.635  12.557  23.045  0.00  0.00    +0.000 OA
BRANCH  23  25
ATOM     25  O   UNL     1      -0.748  10.594  21.881  0.00  0.00    +0.000 OA
BRANCH  25  26
ATOM     26  C   UNL     1      -0.061   9.783  22.848  0.00  0.00    +0.000 C 
ATOM     27  C   UNL     1       1.054   8.987  22.193  0.00  0.00    +0.000 C 
ENDBRANCH  25  26
ENDBRANCH  23  25
ENDBRANCH   1  23
BRANCH   1  28
ATOM     28  C   UNL     1       1.420  12.216  20.479  0.00  0.00    +0.000 C 
BRANCH  28  29
ATOM     29  C   UNL     1       1.672  11.724  19.066  0.00  0.00    +0.000 C 
ATOM     30  O   UNL     1       2.112  12.422  18.161  0.00  0.00    +0.000 OA
BRANCH  29  31
ATOM     31  O   UNL     1       1.319  10.415  18.935  0.00  0.00    +0.000 OA
BRANCH  31  33
ATOM     32  C   UNL     1       2.213   8.242  18.271  0.00  0.00    +0.000 C 
ATOM     33  C   UNL     1       2.000   9.696  17.894  0.00  0.00    +0.000 C 
ENDBRANCH  31  33
ENDBRANCH  29  31
ENDBRANCH  28  29
ENDBRANCH   1  28
TORSDOF 8
ENDMDL
MODEL 4
REMARK VINA RESULT:      -6.5      1.198      1.556
REMARK  Name = 
REMARK  11 active torsions:
REMARK  status: ('A' for Active; 'I' for Inactive)
REMARK    1  A    between atoms: C_1  and  C_2
REMARK    2  A    between atoms: C_2  and  O_3
REMARK    3  A    between atoms: O_3  and  C_4
REMARK    4  A    between atoms: C_4  and  C_6
REMARK    5  A    between atoms: C_6  and  C_7
REMARK    6  A    between atoms: C_7  and  C_8
REMARK    7  A    between atoms: C_8  and  O_10
REMARK    8  A    between atoms: O_10  and  C_11
REMARK    9  A    between atoms: C_11  and  C_12
REMARK   10  A    between atoms: C_14  and  C_15
REMARK   11  A    between atoms: C_29  and  C_30
REMARK                            x       y       z     vdW  Elec       q    Type
REMARK                         _______ _______ _______ _____ _____    ______ ____
ROOT
ATOM      1  C   UNL     1      -1.299  13.632  21.493  0.00  0.00    +0.000 C 
ATOM      2  N   UNL     1      -2.749  13.569  21.203  0.00  0.00    +0.000 NA
ATOM      3  C   UNL     1      -3.255  12.826  20.274  0.00  0.00    +0.000 C 
ATOM      4  C   UNL     1      -2.486  11.915  19.360  0.00  0.00    +0.000 A 
ATOM      5  C   UNL     1      -2.866  11.868  18.005  0.00  0.00    +0.000 A 
ATOM      6  C   UNL     1      -2.263  10.962  17.130  0.00  0.00    +0.000 A 
ATOM      7 CL   UNL     1      -2.745  10.911  15.482  0.00  0.00    +0.000 Cl
ATOM      8  C   UNL     1      -1.257  10.114  17.577  0.00  0.00    +0.000 A 
ATOM      9  C   UNL     1      -0.849  10.168  18.910  0.00  0.00    +0.000 A 
ATOM     10  C   UNL     1      -1.466  11.057  19.810  0.00  0.00    +0.000 A 
ATOM     11  N   UNL     1      -0.986  11.118  21.136  0.00  0.00    +0.000 N 
ATOM     12  C   UNL     1      -0.522  10.090  21.948  0.00  0.00    +0.000 A 
ATOM     13  C   UNL     1      -0.582   8.633  21.677  0.00  0.00    +0.000 C 
ATOM     14  N   UNL     1      -0.111  10.593  23.093  0.00  0.00    +0.000 NA
ATOM     15  N   UNL     1      -0.328  11.934  23.071  0.00  0.00    +0.000 NA
ATOM     16  C   UNL     1      -0.851  12.259  21.905  0.00  0.00    +0.000 A 
ENDROOT
BRANCH   3  17
ATOM     17  C   UNL     1      -4.746  12.873  20.125  0.00  0.00    +0.000 A 
ATOM     18  C   UNL     1      -5.386  14.115  20.045  0.00  0.00    +0.000 A 
ATOM     19  C   UNL     1      -6.779  14.179  19.978  0.00  0.00    +0.000 A 
ATOM     20  C   UNL     1      -7.534  13.007  19.990  0.00  0.00    +0.000 A 
ATOM     21  C   UNL     1      -6.899  11.766  20.059  0.00  0.00    +0.000 A 
ATOM     22  C   UNL     1      -5.507  11.696  20.128  0.00  0.00    +0.000 A 
ENDBRANCH   3  17
BRANCH   1  23
ATOM     23  C   UNL     1      -0.595  14.259  20.273  0.00  0.00    +0.000 C 
ATOM     24  O   UNL     1      -1.086  15.187  19.627  0.00  0.00    +0.000 OA
BRANCH  23  25
ATOM     25  O   UNL     1       0.590  13.667  19.951  0.00  0.00    +0.000 OA
BRANCH  25  26
ATOM     26  C   UNL     1       0.836  13.523  18.543  0.00  0.00    +0.000 C 
ATOM     27  C   UNL     1       2.243  13.010  18.288  0.00  0.00    +0.000 C 
ENDBRANCH  25  26
ENDBRANCH  23  25
ENDBRANCH   1  23
BRANCH   1  28
ATOM     28  C   UNL     1      -1.107  14.625  22.669  0.00  0.00    +0.000 C 
BRANCH  28  29
ATOM     29  C   UNL     1      -2.350  15.470  22.870  0.00  0.00    +0.000 C 
ATOM     30  O   UNL     1      -2.501  16.595  22.410  0.00  0.00    +0.000 OA
BRANCH  29  31
ATOM     31  O   UNL     1      -3.261  14.822  23.649  0.00  0.00    +0.000 OA
BRANCH  31  33
ATOM     32  C   UNL     1      -5.617  14.188  23.721  0.00  0.00    +0.000 C 
ATOM     33  C   UNL     1      -4.610  15.309  23.553  0.00  0.00    +0.000 C 
ENDBRANCH  31  33
ENDBRANCH  29  31
ENDBRANCH  28  29
ENDBRANCH   1  28
TORSDOF 8
ENDMDL
MODEL 5
REMARK VINA RESULT:      -6.4      2.707      5.981
REMARK  Name = 
REMARK  11 active torsions:
REMARK  status: ('A' for Active; 'I' for Inactive)
REMARK    1  A    between atoms: C_1  and  C_2
REMARK    2  A    between atoms: C_2  and  O_3
REMARK    3  A    between atoms: O_3  and  C_4
REMARK    4  A    between atoms: C_4  and  C_6
REMARK    5  A    between atoms: C_6  and  C_7
REMARK    6  A    between atoms: C_7  and  C_8
REMARK    7  A    between atoms: C_8  and  O_10
REMARK    8  A    between atoms: O_10  and  C_11
REMARK    9  A    between atoms: C_11  and  C_12
REMARK   10  A    between atoms: C_14  and  C_15
REMARK   11  A    between atoms: C_29  and  C_30
REMARK                            x       y       z     vdW  Elec       q    Type
REMARK                         _______ _______ _______ _____ _____    ______ ____
ROOT
ATOM      1  C   UNL     1       0.264  13.611  20.476  0.00  0.00    +0.000 C 
ATOM      2  N   UNL     1      -0.463  12.714  19.551  0.00  0.00    +0.000 NA
ATOM      3  C   UNL     1      -1.752  12.623  19.517  0.00  0.00    +0.000 C 
ATOM      4  C   UNL     1      -2.711  13.395  20.378  0.00  0.00    +0.000 A 
ATOM      5  C   UNL     1      -3.829  12.712  20.894  0.00  0.00    +0.000 A 
ATOM      6  C   UNL     1      -4.812  13.400  21.609  0.00  0.00    +0.000 A 
ATOM      7 CL   UNL     1      -6.175  12.553  22.223  0.00  0.00    +0.000 Cl
ATOM      8  C   UNL     1      -4.686  14.763  21.846  0.00  0.00    +0.000 A 
ATOM      9  C   UNL     1      -3.571  15.448  21.365  0.00  0.00    +0.000 A 
ATOM     10  C   UNL     1      -2.585  14.775  20.621  0.00  0.00    +0.000 A 
ATOM     11  N   UNL     1      -1.445  15.494  20.201  0.00  0.00    +0.000 N 
ATOM     12  C   UNL     1      -1.352  16.810  19.763  0.00  0.00    +0.000 A 
ATOM     13  C   UNL     1      -2.469  17.738  19.462  0.00  0.00    +0.000 C 
ATOM     14  N   UNL     1      -0.091  17.101  19.527  0.00  0.00    +0.000 NA
ATOM     15  N   UNL     1       0.654  15.989  19.765  0.00  0.00    +0.000 NA
ATOM     16  C   UNL     1      -0.146  15.022  20.168  0.00  0.00    +0.000 A 
ENDROOT
BRANCH   3  17
ATOM     17  C   UNL     1      -2.324  11.672  18.508  0.00  0.00    +0.000 A 
ATOM     18  C   UNL     1      -1.518  10.645  18.003  0.00  0.00    +0.000 A 
ATOM     19  C   UNL     1      -2.011   9.796  17.010  0.00  0.00    +0.000 A 
ATOM     20  C   UNL     1      -3.306   9.971  16.521  0.00  0.00    +0.000 A 
ATOM     21  C   UNL     1      -4.115  10.987  17.030  0.00  0.00    +0.000 A 
ATOM     22  C   UNL     1      -3.627  11.840  18.020  0.00  0.00    +0.000 A 
ENDBRANCH   3  17
BRANCH   1  23
ATOM     23  C   UNL     1       0.021  13.111  21.915  0.00  0.00    +0.000 C 
ATOM     24  O   UNL     1      -0.251  13.871  22.846  0.00  0.00    +0.000 OA
BRANCH  23  25
ATOM     25  O   UNL     1       0.177  11.765  22.069  0.00  0.00    +0.000 OA
BRANCH  25  26
ATOM     26  C   UNL     1      -0.862  11.112  22.815  0.00  0.00    +0.000 C 
ATOM     27  C   UNL     1      -0.447   9.704  23.204  0.00  0.00    +0.000 C 
ENDBRANCH  25  26
ENDBRANCH  23  25
ENDBRANCH   1  23
BRANCH   1  28
ATOM     28  C   UNL     1       1.780  13.429  20.200  0.00  0.00    +0.000 C 
BRANCH  28  29
ATOM     29  C   UNL     1       2.006  12.724  18.876  0.00  0.00    +0.000 C 
ATOM     30  O   UNL     1       1.903  11.514  18.713  0.00  0.00    +0.000 OA
BRANCH  29  31
ATOM     31  O   UNL     1       2.362  13.610  17.905  0.00  0.00    +0.000 OA
BRANCH  31  33
ATOM     32  C   UNL     1       3.495  15.711  17.394  0.00  0.00    +0.000 C 
ATOM     33  C   UNL     1       3.500  14.432  18.209  0.00  0.00    +0.000 C 
ENDBRANCH  31  33
ENDBRANCH  29  31
ENDBRANCH  28  29
ENDBRANCH   1  28
TORSDOF 8
ENDMDL
MODEL 6
REMARK VINA RESULT:      -6.3      2.571      4.757
REMARK  Name = 
REMARK  11 active torsions:
REMARK  status: ('A' for Active; 'I' for Inactive)
REMARK    1  A    between atoms: C_1  and  C_2
REMARK    2  A    between atoms: C_2  and  O_3
REMARK    3  A    between atoms: O_3  and  C_4
REMARK    4  A    between atoms: C_4  and  C_6
REMARK    5  A    between atoms: C_6  and  C_7
REMARK    6  A    between atoms: C_7  and  C_8
REMARK    7  A    between atoms: C_8  and  O_10
REMARK    8  A    between atoms: O_10  and  C_11
REMARK    9  A    between atoms: C_11  and  C_12
REMARK   10  A    between atoms: C_14  and  C_15
REMARK   11  A    between atoms: C_29  and  C_30
REMARK                            x       y       z     vdW  Elec       q    Type
REMARK                         _______ _______ _______ _____ _____    ______ ____
ROOT
ATOM      1  C   UNL     1      -1.019  14.355  20.489  0.00  0.00    +0.000 C 
ATOM      2  N   UNL     1      -1.550  13.443  19.451  0.00  0.00    +0.000 NA
ATOM      3  C   UNL     1      -1.607  12.160  19.596  0.00  0.00    +0.000 C 
ATOM      4  C   UNL     1      -1.169  11.391  20.810  0.00  0.00    +0.000 A 
ATOM      5  C   UNL     1      -0.480  10.180  20.609  0.00  0.00    +0.000 A 
ATOM      6  C   UNL     1      -0.143   9.368  21.694  0.00  0.00    +0.000 A 
ATOM      7 CL   UNL     1       0.688   7.888  21.430  0.00  0.00    +0.000 Cl
ATOM      8  C   UNL     1      -0.457   9.757  22.990  0.00  0.00    +0.000 A 
ATOM      9  C   UNL     1      -1.114  10.968  23.208  0.00  0.00    +0.000 A 
ATOM     10  C   UNL     1      -1.484  11.785  22.123  0.00  0.00    +0.000 A 
ATOM     11  N   UNL     1      -2.098  13.028  22.391  0.00  0.00    +0.000 N 
ATOM     12  C   UNL     1      -3.014  13.356  23.383  0.00  0.00    +0.000 A 
ATOM     13  C   UNL     1      -3.711  12.429  24.306  0.00  0.00    +0.000 C 
ATOM     14  N   UNL     1      -3.284  14.642  23.316  0.00  0.00    +0.000 NA
ATOM     15  N   UNL     1      -2.592  15.169  22.272  0.00  0.00    +0.000 NA
ATOM     16  C   UNL     1      -1.879  14.212  21.712  0.00  0.00    +0.000 A 
ENDROOT
BRANCH   3  17
ATOM     17  C   UNL     1      -2.187  11.387  18.448  0.00  0.00    +0.000 A 
ATOM     18  C   UNL     1      -1.378  10.473  17.763  0.00  0.00    +0.000 A 
ATOM     19  C   UNL     1      -1.878   9.799  16.647  0.00  0.00    +0.000 A 
ATOM     20  C   UNL     1      -3.183  10.034  16.216  0.00  0.00    +0.000 A 
ATOM     21  C   UNL     1      -3.996  10.936  16.903  0.00  0.00    +0.000 A 
ATOM     22  C   UNL     1      -3.500  11.616  18.017  0.00  0.00    +0.000 A 
ENDBRANCH   3  17
BRANCH   1  23
ATOM     23  C   UNL     1       0.486  14.064  20.655  0.00  0.00    +0.000 C 
ATOM     24  O   UNL     1       1.013  13.893  21.756  0.00  0.00    +0.000 OA
BRANCH  23  25
ATOM     25  O   UNL     1       1.183  14.059  19.483  0.00  0.00    +0.000 OA
BRANCH  25  26
ATOM     26  C   UNL     1       2.276  13.129  19.428  0.00  0.00    +0.000 C 
ATOM     27  C   UNL     1       1.978  11.998  18.459  0.00  0.00    +0.000 C 
ENDBRANCH  25  26
ENDBRANCH  23  25
ENDBRANCH   1  23
BRANCH   1  28
ATOM     28  C   UNL     1      -1.128  15.799  19.933  0.00  0.00    +0.000 C 
BRANCH  28  29
ATOM     29  C   UNL     1      -0.064  16.693  20.540  0.00  0.00    +0.000 C 
ATOM     30  O   UNL     1      -0.002  16.982  21.729  0.00  0.00    +0.000 OA
BRANCH  29  31
ATOM     31  O   UNL     1       0.794  17.149  19.586  0.00  0.00    +0.000 OA
BRANCH  31  33
ATOM     32  C   UNL     1       1.149  18.016  17.331  0.00  0.00    +0.000 C 
ATOM     33  C   UNL     1       0.180  17.837  18.484  0.00  0.00    +0.000 C 
ENDBRANCH  31  33
ENDBRANCH  29  31
ENDBRANCH  28  29
ENDBRANCH   1  28
TORSDOF 8
ENDMDL
MODEL 7
REMARK VINA RESULT:      -6.3      0.931      1.287
REMARK  Name = 
REMARK  11 active torsions:
REMARK  status: ('A' for Active; 'I' for Inactive)
REMARK    1  A    between atoms: C_1  and  C_2
REMARK    2  A    between atoms: C_2  and  O_3
REMARK    3  A    between atoms: O_3  and  C_4
REMARK    4  A    between atoms: C_4  and  C_6
REMARK    5  A    between atoms: C_6  and  C_7
REMARK    6  A    between atoms: C_7  and  C_8
REMARK    7  A    between atoms: C_8  and  O_10
REMARK    8  A    between atoms: O_10  and  C_11
REMARK    9  A    between atoms: C_11  and  C_12
REMARK   10  A    between atoms: C_14  and  C_15
REMARK   11  A    between atoms: C_29  and  C_30
REMARK                            x       y       z     vdW  Elec       q    Type
REMARK                         _______ _______ _______ _____ _____    ______ ____
ROOT
ATOM      1  C   UNL     1      -1.382  13.629  21.376  0.00  0.00    +0.000 C 
ATOM      2  N   UNL     1      -2.831  13.514  21.097  0.00  0.00    +0.000 NA
ATOM      3  C   UNL     1      -3.317  12.748  20.176  0.00  0.00    +0.000 C 
ATOM      4  C   UNL     1      -2.523  11.859  19.261  0.00  0.00    +0.000 A 
ATOM      5  C   UNL     1      -2.912  11.791  17.910  0.00  0.00    +0.000 A 
ATOM      6  C   UNL     1      -2.284  10.902  17.035  0.00  0.00    +0.000 A 
ATOM      7 CL   UNL     1      -2.777  10.824  15.391  0.00  0.00    +0.000 Cl
ATOM      8  C   UNL     1      -1.246  10.092  17.479  0.00  0.00    +0.000 A 
ATOM      9  C   UNL     1      -0.830  10.168  18.809  0.00  0.00    +0.000 A 
ATOM     10  C   UNL     1      -1.471  11.040  19.708  0.00  0.00    +0.000 A 
ATOM     11  N   UNL     1      -0.984  11.126  21.030  0.00  0.00    +0.000 N 
ATOM     12  C   UNL     1      -0.478  10.120  21.844  0.00  0.00    +0.000 A 
ATOM     13  C   UNL     1      -0.489   8.660  21.582  0.00  0.00    +0.000 C 
ATOM     14  N   UNL     1      -0.076  10.643  22.983  0.00  0.00    +0.000 NA
ATOM     15  N   UNL     1      -0.340  11.976  22.956  0.00  0.00    +0.000 NA
ATOM     16  C   UNL     1      -0.883  12.275  21.792  0.00  0.00    +0.000 A 
ENDROOT
BRANCH   3  17
ATOM     17  C   UNL     1      -4.810  12.742  20.038  0.00  0.00    +0.000 A 
ATOM     18  C   UNL     1      -5.478  11.520  19.889  0.00  0.00    +0.000 A 
ATOM     19  C   UNL     1      -6.859  11.501  19.686  0.00  0.00    +0.000 A 
ATOM     20  C   UNL     1      -7.575  12.696  19.633  0.00  0.00    +0.000 A 
ATOM     21  C   UNL     1      -6.914  13.915  19.792  0.00  0.00    +0.000 A 
ATOM     22  C   UNL     1      -5.533  13.941  19.992  0.00  0.00    +0.000 A 
ENDBRANCH   3  17
BRANCH   1  23
ATOM     23  C   UNL     1      -0.709  14.274  20.147  0.00  0.00    +0.000 C 
ATOM     24  O   UNL     1       0.291  13.796  19.608  0.00  0.00    +0.000 OA
BRANCH  23  25
ATOM     25  O   UNL     1      -1.294  15.438  19.741  0.00  0.00    +0.000 OA
BRANCH  25  26
ATOM     26  C   UNL     1      -0.409  16.374  19.105  0.00  0.00    +0.000 C 
ATOM     27  C   UNL     1       0.243  17.285  20.130  0.00  0.00    +0.000 C 
ENDBRANCH  25  26
ENDBRANCH  23  25
ENDBRANCH   1  23
BRANCH   1  28
ATOM     28  C   UNL     1      -1.216  14.635  22.545  0.00  0.00    +0.000 C 
BRANCH  28  29
ATOM     29  C   UNL     1      -2.494  14.739  23.354  0.00  0.00    +0.000 C 
ATOM     30  O   UNL     1      -2.858  13.909  24.178  0.00  0.00    +0.000 OA
BRANCH  29  31
ATOM     31  O   UNL     1      -3.191  15.862  23.024  0.00  0.00    +0.000 OA
BRANCH  31  33
ATOM     32  C   UNL     1      -5.628  15.831  23.173  0.00  0.00    +0.000 C 
ATOM     33  C   UNL     1      -4.318  16.156  23.865  0.00  0.00    +0.000 C 
ENDBRANCH  31  33
ENDBRANCH  29  31
ENDBRANCH  28  29
ENDBRANCH   1  28
TORSDOF 8
ENDMDL
MODEL 8
REMARK VINA RESULT:      -6.2      2.542      5.754
REMARK  Name = 
REMARK  11 active torsions:
REMARK  status: ('A' for Active; 'I' for Inactive)
REMARK    1  A    between atoms: C_1  and  C_2
REMARK    2  A    between atoms: C_2  and  O_3
REMARK    3  A    between atoms: O_3  and  C_4
REMARK    4  A    between atoms: C_4  and  C_6
REMARK    5  A    between atoms: C_6  and  C_7
REMARK    6  A    between atoms: C_7  and  C_8
REMARK    7  A    between atoms: C_8  and  O_10
REMARK    8  A    between atoms: O_10  and  C_11
REMARK    9  A    between atoms: C_11  and  C_12
REMARK   10  A    between atoms: C_14  and  C_15
REMARK   11  A    between atoms: C_29  and  C_30
REMARK                            x       y       z     vdW  Elec       q    Type
REMARK                         _______ _______ _______ _____ _____    ______ ____
ROOT
ATOM      1  C   UNL     1      -0.550  13.074  21.031  0.00  0.00    +0.000 C 
ATOM      2  N   UNL     1      -1.132  12.341  19.884  0.00  0.00    +0.000 NA
ATOM      3  C   UNL     1      -2.400  12.307  19.635  0.00  0.00    +0.000 C 
ATOM      4  C   UNL     1      -3.473  12.991  20.434  0.00  0.00    +0.000 A 
ATOM      5  C   UNL     1      -4.671  12.289  20.664  0.00  0.00    +0.000 A 
ATOM      6  C   UNL     1      -5.745  12.910  21.305  0.00  0.00    +0.000 A 
ATOM      7 CL   UNL     1      -7.204  12.042  21.569  0.00  0.00    +0.000 Cl
ATOM      8  C   UNL     1      -5.637  14.221  21.750  0.00  0.00    +0.000 A 
ATOM      9  C   UNL     1      -4.446  14.922  21.554  0.00  0.00    +0.000 A 
ATOM     10  C   UNL     1      -3.364  14.318  20.887  0.00  0.00    +0.000 A 
ATOM     11  N   UNL     1      -2.160  15.042  20.758  0.00  0.00    +0.000 N 
ATOM     12  C   UNL     1      -1.975  16.401  20.532  0.00  0.00    +0.000 A 
ATOM     13  C   UNL     1      -3.011  17.406  20.193  0.00  0.00    +0.000 C 
ATOM     14  N   UNL     1      -0.687  16.672  20.543  0.00  0.00    +0.000 NA
ATOM     15  N   UNL     1      -0.009  15.509  20.735  0.00  0.00    +0.000 NA
ATOM     16  C   UNL     1      -0.881  14.529  20.865  0.00  0.00    +0.000 A 
ENDROOT
BRANCH   3  17
ATOM     17  C   UNL     1      -2.817  11.527  18.423  0.00  0.00    +0.000 A 
ATOM     18  C   UNL     1      -1.976  10.521  17.935  0.00  0.00    +0.000 A 
ATOM     19  C   UNL     1      -2.314   9.835  16.766  0.00  0.00    +0.000 A 
ATOM     20  C   UNL     1      -3.489  10.151  16.086  0.00  0.00    +0.000 A 
ATOM     21  C   UNL     1      -4.336  11.146  16.576  0.00  0.00    +0.000 A 
ATOM     22  C   UNL     1      -4.002  11.837  17.742  0.00  0.00    +0.000 A 
ENDBRANCH   3  17
BRANCH   1  23
ATOM     23  C   UNL     1      -1.032  12.391  22.328  0.00  0.00    +0.000 C 
ATOM     24  O   UNL     1      -1.124  12.990  23.400  0.00  0.00    +0.000 OA
BRANCH  23  25
ATOM     25  O   UNL     1      -1.301  11.061  22.187  0.00  0.00    +0.000 OA
BRANCH  25  26
ATOM     26  C   UNL     1      -0.503  10.189  23.003  0.00  0.00    +0.000 C 
ATOM     27  C   UNL     1      -0.018   8.993  22.203  0.00  0.00    +0.000 C 
ENDBRANCH  25  26
ENDBRANCH  23  25
ENDBRANCH   1  23
BRANCH   1  28
ATOM     28  C   UNL     1       0.987  12.871  20.975  0.00  0.00    +0.000 C 
BRANCH  28  29
ATOM     29  C   UNL     1       1.392  12.165  19.695  0.00  0.00    +0.000 C 
ATOM     30  O   UNL     1       1.333  10.954  19.527  0.00  0.00    +0.000 OA
BRANCH  29  31
ATOM     31  O   UNL     1       1.852  13.055  18.771  0.00  0.00    +0.000 OA
BRANCH  31  33
ATOM     32  C   UNL     1       3.543  14.667  18.065  0.00  0.00    +0.000 C 
ATOM     33  C   UNL     1       2.909  13.917  19.221  0.00  0.00    +0.000 C 
ENDBRANCH  31  33
ENDBRANCH  29  31
ENDBRANCH  28  29
ENDBRANCH   1  28
TORSDOF 8
ENDMDL
MODEL 9
REMARK VINA RESULT:      -6.2      1.251      2.077
REMARK  Name = 
REMARK  11 active torsions:
REMARK  status: ('A' for Active; 'I' for Inactive)
REMARK    1  A    between atoms: C_1  and  C_2
REMARK    2  A    between atoms: C_2  and  O_3
REMARK    3  A    between atoms: O_3  and  C_4
REMARK    4  A    between atoms: C_4  and  C_6
REMARK    5  A    between atoms: C_6  and  C_7
REMARK    6  A    between atoms: C_7  and  C_8
REMARK    7  A    between atoms: C_8  and  O_10
REMARK    8  A    between atoms: O_10  and  C_11
REMARK    9  A    between atoms: C_11  and  C_12
REMARK   10  A    between atoms: C_14  and  C_15
REMARK   11  A    between atoms: C_29  and  C_30
REMARK                            x       y       z     vdW  Elec       q    Type
REMARK                         _______ _______ _______ _____ _____    ______ ____
ROOT
ATOM      1  C   UNL     1      -1.269  13.615  21.512  0.00  0.00    +0.000 C 
ATOM      2  N   UNL     1      -2.717  13.558  21.210  0.00  0.00    +0.000 NA
ATOM      3  C   UNL     1      -3.218  12.819  20.275  0.00  0.00    +0.000 C 
ATOM      4  C   UNL     1      -2.444  11.909  19.364  0.00  0.00    +0.000 A 
ATOM      5  C   UNL     1      -2.814  11.867  18.006  0.00  0.00    +0.000 A 
ATOM      6  C   UNL     1      -2.207  10.962  17.133  0.00  0.00    +0.000 A 
ATOM      7 CL   UNL     1      -2.677  10.918  15.481  0.00  0.00    +0.000 Cl
ATOM      8  C   UNL     1      -1.207  10.110  17.585  0.00  0.00    +0.000 A 
ATOM      9  C   UNL     1      -0.810  10.158  18.922  0.00  0.00    +0.000 A 
ATOM     10  C   UNL     1      -1.432  11.046  19.819  0.00  0.00    +0.000 A 
ATOM     11  N   UNL     1      -0.962  11.102  21.149  0.00  0.00    +0.000 N 
ATOM     12  C   UNL     1      -0.508  10.070  21.962  0.00  0.00    +0.000 A 
ATOM     13  C   UNL     1      -0.570   8.614  21.686  0.00  0.00    +0.000 C 
ATOM     14  N   UNL     1      -0.104  10.567  23.111  0.00  0.00    +0.000 NA
ATOM     15  N   UNL     1      -0.316  11.909  23.092  0.00  0.00    +0.000 NA
ATOM     16  C   UNL     1      -0.829  12.240  21.923  0.00  0.00    +0.000 A 
ENDROOT
BRANCH   3  17
ATOM     17  C   UNL     1      -4.708  12.872  20.113  0.00  0.00    +0.000 A 
ATOM     18  C   UNL     1      -5.386  14.061  20.409  0.00  0.00    +0.000 A 
ATOM     19  C   UNL     1      -6.779  14.106  20.334  0.00  0.00    +0.000 A 
ATOM     20  C   UNL     1      -7.496  12.969  19.965  0.00  0.00    +0.000 A 
ATOM     21  C   UNL     1      -6.824  11.786  19.659  0.00  0.00    +0.000 A 
ATOM     22  C   UNL     1      -5.431  11.733  19.735  0.00  0.00    +0.000 A 
ENDBRANCH   3  17
BRANCH   1  23
ATOM     23  C   UNL     1      -0.554  14.244  20.299  0.00  0.00    +0.000 C 
ATOM     24  O   UNL     1      -1.090  15.080  19.571  0.00  0.00    +0.000 OA
BRANCH  23  25
ATOM     25  O   UNL     1       0.703  13.759  20.084  0.00  0.00    +0.000 OA
BRANCH  25  26
ATOM     26  C   UNL     1       1.130  13.763  18.712  0.00  0.00    +0.000 C 
ATOM     27  C   UNL     1       1.954  12.527  18.398  0.00  0.00    +0.000 C 
ENDBRANCH  25  26
ENDBRANCH  23  25
ENDBRANCH   1  23
BRANCH   1  28
ATOM     28  C   UNL     1      -1.083  14.604  22.693  0.00  0.00    +0.000 C 
BRANCH  28  29
ATOM     29  C   UNL     1      -2.412  15.208  23.105  0.00  0.00    +0.000 C 
ATOM     30  O   UNL     1      -3.212  14.667  23.857  0.00  0.00    +0.000 OA
BRANCH  29  31
ATOM     31  O   UNL     1      -2.604  16.418  22.509  0.00  0.00    +0.000 OA
BRANCH  31  33
ATOM     32  C   UNL     1      -1.620  18.556  23.159  0.00  0.00    +0.000 C 
ATOM     33  C   UNL     1      -1.436  17.249  22.412  0.00  0.00    +0.000 C 
ENDBRANCH  31  33
ENDBRANCH  29  31
ENDBRANCH  28  29
ENDBRANCH   1  28
TORSDOF 8
ENDMDL
