MODEL 1
REMARK VINA RESULT:      -7.0      0.000      0.000
REMARK  Name = 
REMARK  2 active torsions:
REMARK  status: ('A' for Active; 'I' for Inactive)
REMARK    1  A    between atoms: C_1  and  O_2
REMARK    2  A    between atoms: O_2  and  C_3
REMARK                            x       y       z     vdW  Elec       q    Type
REMARK                         _______ _______ _______ _____ _____    ______ ____
ROOT
ATOM      1  C   UNL     1       2.591   5.484  18.605  0.00  0.00    +0.000 A 
ATOM      2  C   UNL     1       1.598   4.508  18.753  0.00  0.00    +0.000 A 
ATOM      3  C   UNL     1       1.739   3.263  18.162  0.00  0.00    +0.000 A 
ATOM      4  C   UNL     1       2.878   2.975  17.413  0.00  0.00    +0.000 A 
ATOM      5  C   UNL     1       3.876   3.935  17.262  0.00  0.00    +0.000 A 
ATOM      6  C   UNL     1       3.741   5.201  17.843  0.00  0.00    +0.000 A 
ATOM      7  C   UNL     1       4.822   6.220  17.620  0.00  0.00    +0.000 C 
ATOM      8  C   UNL     1       6.193   5.526  17.494  0.00  0.00    +0.000 C 
ATOM      9  C   UNL     1       7.286   6.535  17.109  0.00  0.00    +0.000 C 
ATOM     10  C   UNL     1       7.876   6.956  18.439  0.00  0.00    +0.000 C 
ATOM     11  C   UNL     1       7.852   5.666  19.226  0.00  0.00    +0.000 C 
ATOM     12  N   UNL     1       6.640   4.964  18.803  0.00  0.00    +0.000 NA
ATOM     13  C   UNL     1       6.070   4.422  16.425  0.00  0.00    +0.000 C 
ATOM     14  O   UNL     1       4.964   3.523  16.549  0.00  0.00    +0.000 OA
ATOM     15  H   UNL     1       5.901   5.096  19.497  0.00  0.00    +0.000 HD
ENDROOT
BRANCH   1  17
ATOM     16  C   UNL     1       1.858   6.784  20.430  0.00  0.00    +0.000 C 
ATOM     17  O   UNL     1       2.492   6.739  19.152  0.00  0.00    +0.000 OA
ENDBRANCH   1  17
TORSDOF 1
ENDMDL
MODEL 2
REMARK VINA RESULT:      -7.0      1.180      1.351
REMARK  Name = 
REMARK  2 active torsions:
REMARK  status: ('A' for Active; 'I' for Inactive)
REMARK    1  A    between atoms: C_1  and  O_2
REMARK    2  A    between atoms: O_2  and  C_3
REMARK                            x       y       z     vdW  Elec       q    Type
REMARK                         _______ _______ _______ _____ _____    ______ ____
ROOT
ATOM      1  C   UNL     1       2.346   5.882  19.844  0.00  0.00    +0.000 A 
ATOM      2  C   UNL     1       1.416   5.087  20.525  0.00  0.00    +0.000 A 
ATOM      3  C   UNL     1       1.371   3.718  20.318  0.00  0.00    +0.000 A 
ATOM      4  C   UNL     1       2.258   3.124  19.423  0.00  0.00    +0.000 A 
ATOM      5  C   UNL     1       3.191   3.902  18.742  0.00  0.00    +0.000 A 
ATOM      6  C   UNL     1       3.240   5.287  18.933  0.00  0.00    +0.000 A 
ATOM      7  C   UNL     1       4.234   6.094  18.147  0.00  0.00    +0.000 C 
ATOM      8  C   UNL     1       5.507   5.266  17.887  0.00  0.00    +0.000 C 
ATOM      9  C   UNL     1       6.469   6.016  16.952  0.00  0.00    +0.000 C 
ATOM     10  C   UNL     1       7.406   6.738  17.898  0.00  0.00    +0.000 C 
ATOM     11  C   UNL     1       7.578   5.731  19.013  0.00  0.00    +0.000 C 
ATOM     12  N   UNL     1       6.287   5.057  19.144  0.00  0.00    +0.000 NA
ATOM     13  C   UNL     1       5.081   3.922  17.264  0.00  0.00    +0.000 C 
ATOM     14  O   UNL     1       4.037   3.204  17.930  0.00  0.00    +0.000 OA
ATOM     15  H   UNL     1       5.767   5.449  19.932  0.00  0.00    +0.000 HD
ENDROOT
BRANCH   1  17
ATOM     16  C   UNL     1       1.424   7.801  20.859  0.00  0.00    +0.000 C 
ATOM     17  O   UNL     1       2.418   7.244  19.999  0.00  0.00    +0.000 OA
ENDBRANCH   1  17
TORSDOF 1
ENDMDL
MODEL 3
REMARK VINA RESULT:      -7.0      1.723      5.308
REMARK  Name = 
REMARK  2 active torsions:
REMARK  status: ('A' for Active; 'I' for Inactive)
REMARK    1  A    between atoms: C_1  and  O_2
REMARK    2  A    between atoms: O_2  and  C_3
REMARK                            x       y       z     vdW  Elec       q    Type
REMARK                         _______ _______ _______ _____ _____    ______ ____
ROOT
ATOM      1  C   UNL     1       6.041   4.247  16.748  0.00  0.00    +0.000 A 
ATOM      2  C   UNL     1       7.385   4.548  17.003  0.00  0.00    +0.000 A 
ATOM      3  C   UNL     1       7.754   5.196  18.171  0.00  0.00    +0.000 A 
ATOM      4  C   UNL     1       6.782   5.553  19.103  0.00  0.00    +0.000 A 
ATOM      5  C   UNL     1       5.442   5.255  18.864  0.00  0.00    +0.000 A 
ATOM      6  C   UNL     1       5.054   4.613  17.684  0.00  0.00    +0.000 A 
ATOM      7  C   UNL     1       3.594   4.348  17.449  0.00  0.00    +0.000 C 
ATOM      8  C   UNL     1       2.875   4.090  18.788  0.00  0.00    +0.000 C 
ATOM      9  C   UNL     1       1.357   3.974  18.582  0.00  0.00    +0.000 C 
ATOM     10  C   UNL     1       1.123   2.486  18.431  0.00  0.00    +0.000 C 
ATOM     11  C   UNL     1       2.109   1.902  19.418  0.00  0.00    +0.000 C 
ATOM     12  N   UNL     1       3.279   2.779  19.378  0.00  0.00    +0.000 NA
ATOM     13  C   UNL     1       3.208   5.257  19.738  0.00  0.00    +0.000 C 
ATOM     14  O   UNL     1       4.589   5.609  19.869  0.00  0.00    +0.000 OA
ATOM     15  H   UNL     1       4.009   2.359  18.799  0.00  0.00    +0.000 HD
ENDROOT
BRANCH   1  17
ATOM     16  C   UNL     1       6.310   4.029  14.416  0.00  0.00    +0.000 C 
ATOM     17  O   UNL     1       5.621   3.626  15.599  0.00  0.00    +0.000 OA
ENDBRANCH   1  17
TORSDOF 1
ENDMDL
MODEL 4
REMARK VINA RESULT:      -6.9      2.033      4.757
REMARK  Name = 
REMARK  2 active torsions:
REMARK  status: ('A' for Active; 'I' for Inactive)
REMARK    1  A    between atoms: C_1  and  O_2
REMARK    2  A    between atoms: O_2  and  C_3
REMARK                            x       y       z     vdW  Elec       q    Type
REMARK                         _______ _______ _______ _____ _____    ______ ____
ROOT
ATOM      1  C   UNL     1       6.311   4.678  18.090  0.00  0.00    +0.000 A 
ATOM      2  C   UNL     1       6.849   5.186  16.902  0.00  0.00    +0.000 A 
ATOM      3  C   UNL     1       6.161   5.065  15.706  0.00  0.00    +0.000 A 
ATOM      4  C   UNL     1       4.919   4.432  15.681  0.00  0.00    +0.000 A 
ATOM      5  C   UNL     1       4.370   3.926  16.857  0.00  0.00    +0.000 A 
ATOM      6  C   UNL     1       5.060   4.030  18.070  0.00  0.00    +0.000 A 
ATOM      7  C   UNL     1       4.449   3.434  19.305  0.00  0.00    +0.000 C 
ATOM      8  C   UNL     1       2.912   3.519  19.237  0.00  0.00    +0.000 C 
ATOM      9  C   UNL     1       2.267   2.775  20.416  0.00  0.00    +0.000 C 
ATOM     10  C   UNL     1       2.054   3.855  21.455  0.00  0.00    +0.000 C 
ATOM     11  C   UNL     1       1.662   5.045  20.609  0.00  0.00    +0.000 C 
ATOM     12  N   UNL     1       2.439   4.930  19.375  0.00  0.00    +0.000 NA
ATOM     13  C   UNL     1       2.461   2.908  17.895  0.00  0.00    +0.000 C 
ATOM     14  O   UNL     1       3.130   3.371  16.718  0.00  0.00    +0.000 OA
ATOM     15  H   UNL     1       3.247   5.554  19.413  0.00  0.00    +0.000 HD
ENDROOT
BRANCH   1  17
ATOM     16  C   UNL     1       7.955   5.774  19.375  0.00  0.00    +0.000 C 
ATOM     17  O   UNL     1       6.960   4.753  19.297  0.00  0.00    +0.000 OA
ENDBRANCH   1  17
TORSDOF 1
ENDMDL
MODEL 5
REMARK VINA RESULT:      -6.8      1.630      2.428
REMARK  Name = 
REMARK  2 active torsions:
REMARK  status: ('A' for Active; 'I' for Inactive)
REMARK    1  A    between atoms: C_1  and  O_2
REMARK    2  A    between atoms: O_2  and  C_3
REMARK                            x       y       z     vdW  Elec       q    Type
REMARK                         _______ _______ _______ _____ _____    ______ ____
ROOT
ATOM      1  C   UNL     1       2.831   6.649  18.877  0.00  0.00    +0.000 A 
ATOM      2  C   UNL     1       2.048   6.682  20.037  0.00  0.00    +0.000 A 
ATOM      3  C   UNL     1       1.719   5.511  20.701  0.00  0.00    +0.000 A 
ATOM      4  C   UNL     1       2.172   4.287  20.212  0.00  0.00    +0.000 A 
ATOM      5  C   UNL     1       2.956   4.240  19.062  0.00  0.00    +0.000 A 
ATOM      6  C   UNL     1       3.285   5.413  18.375  0.00  0.00    +0.000 A 
ATOM      7  C   UNL     1       4.098   5.313  17.116  0.00  0.00    +0.000 C 
ATOM      8  C   UNL     1       5.074   4.123  17.203  0.00  0.00    +0.000 C 
ATOM      9  C   UNL     1       5.800   3.910  15.866  0.00  0.00    +0.000 C 
ATOM     10  C   UNL     1       7.091   4.686  16.026  0.00  0.00    +0.000 C 
ATOM     11  C   UNL     1       7.440   4.438  17.476  0.00  0.00    +0.000 C 
ATOM     12  N   UNL     1       6.165   4.386  18.189  0.00  0.00    +0.000 NA
ATOM     13  C   UNL     1       4.262   2.870  17.588  0.00  0.00    +0.000 C 
ATOM     14  O   UNL     1       3.379   2.991  18.707  0.00  0.00    +0.000 OA
ATOM     15  H   UNL     1       5.990   5.278  18.656  0.00  0.00    +0.000 HD
ENDROOT
BRANCH   1  17
ATOM     16  C   UNL     1       2.065   8.615  17.825  0.00  0.00    +0.000 C 
ATOM     17  O   UNL     1       3.168   7.777  18.171  0.00  0.00    +0.000 OA
ENDBRANCH   1  17
TORSDOF 1
ENDMDL
MODEL 6
REMARK VINA RESULT:      -6.6      2.285      4.529
REMARK  Name = 
REMARK  2 active torsions:
REMARK  status: ('A' for Active; 'I' for Inactive)
REMARK    1  A    between atoms: C_1  and  O_2
REMARK    2  A    between atoms: O_2  and  C_3
REMARK                            x       y       z     vdW  Elec       q    Type
REMARK                         _______ _______ _______ _____ _____    ______ ____
ROOT
ATOM      1  C   UNL     1       3.610   6.748  18.024  0.00  0.00    +0.000 A 
ATOM      2  C   UNL     1       4.373   7.135  16.917  0.00  0.00    +0.000 A 
ATOM      3  C   UNL     1       5.424   6.348  16.474  0.00  0.00    +0.000 A 
ATOM      4  C   UNL     1       5.726   5.159  17.134  0.00  0.00    +0.000 A 
ATOM      5  C   UNL     1       4.971   4.760  18.234  0.00  0.00    +0.000 A 
ATOM      6  C   UNL     1       3.916   5.551  18.700  0.00  0.00    +0.000 A 
ATOM      7  C   UNL     1       3.155   5.102  19.915  0.00  0.00    +0.000 C 
ATOM      8  C   UNL     1       3.104   3.563  19.976  0.00  0.00    +0.000 C 
ATOM      9  C   UNL     1       2.467   3.086  21.291  0.00  0.00    +0.000 C 
ATOM     10  C   UNL     1       1.007   2.894  20.939  0.00  0.00    +0.000 C 
ATOM     11  C   UNL     1       1.083   2.340  19.534  0.00  0.00    +0.000 C 
ATOM     12  N   UNL     1       2.224   3.005  18.905  0.00  0.00    +0.000 NA
ATOM     13  C   UNL     1       4.546   3.034  19.846  0.00  0.00    +0.000 C 
ATOM     14  O   UNL     1       5.330   3.556  18.769  0.00  0.00    +0.000 OA
ATOM     15  H   UNL     1       1.897   3.767  18.307  0.00  0.00    +0.000 HD
ENDROOT
BRANCH   1  17
ATOM     16  C   UNL     1       2.273   8.671  17.756  0.00  0.00    +0.000 C 
ATOM     17  O   UNL     1       2.572   7.500  18.516  0.00  0.00    +0.000 OA
ENDBRANCH   1  17
TORSDOF 1
ENDMDL
MODEL 7
REMARK VINA RESULT:      -6.4      1.564      5.255
REMARK  Name = 
REMARK  2 active torsions:
REMARK  status: ('A' for Active; 'I' for Inactive)
REMARK    1  A    between atoms: C_1  and  O_2
REMARK    2  A    between atoms: O_2  and  C_3
REMARK                            x       y       z     vdW  Elec       q    Type
REMARK                         _______ _______ _______ _____ _____    ______ ____
ROOT
ATOM      1  C   UNL     1       6.035   4.669  16.206  0.00  0.00    +0.000 A 
ATOM      2  C   UNL     1       7.165   5.492  16.279  0.00  0.00    +0.000 A 
ATOM      3  C   UNL     1       7.143   6.658  17.028  0.00  0.00    +0.000 A 
ATOM      4  C   UNL     1       5.986   7.018  17.715  0.00  0.00    +0.000 A 
ATOM      5  C   UNL     1       4.855   6.206  17.654  0.00  0.00    +0.000 A 
ATOM      6  C   UNL     1       4.860   5.033  16.893  0.00  0.00    +0.000 A 
ATOM      7  C   UNL     1       3.606   4.209  16.822  0.00  0.00    +0.000 C 
ATOM      8  C   UNL     1       2.821   4.315  18.144  0.00  0.00    +0.000 C 
ATOM      9  C   UNL     1       1.462   3.609  18.034  0.00  0.00    +0.000 C 
ATOM     10  C   UNL     1       1.731   2.218  18.569  0.00  0.00    +0.000 C 
ATOM     11  C   UNL     1       2.699   2.488  19.699  0.00  0.00    +0.000 C 
ATOM     12  N   UNL     1       3.527   3.608  19.254  0.00  0.00    +0.000 NA
ATOM     13  C   UNL     1       2.633   5.811  18.466  0.00  0.00    +0.000 C 
ATOM     14  O   UNL     1       3.800   6.637  18.406  0.00  0.00    +0.000 OA
ATOM     15  H   UNL     1       4.427   3.262  18.914  0.00  0.00    +0.000 HD
ENDROOT
BRANCH   1  17
ATOM     16  C   UNL     1       6.168   3.704  14.059  0.00  0.00    +0.000 C 
ATOM     17  O   UNL     1       5.998   3.516  15.463  0.00  0.00    +0.000 OA
ENDBRANCH   1  17
TORSDOF 1
ENDMDL
MODEL 8
REMARK VINA RESULT:      -6.3      2.429      4.436
REMARK  Name = 
REMARK  2 active torsions:
REMARK  status: ('A' for Active; 'I' for Inactive)
REMARK    1  A    between atoms: C_1  and  O_2
REMARK    2  A    between atoms: O_2  and  C_3
REMARK                            x       y       z     vdW  Elec       q    Type
REMARK                         _______ _______ _______ _____ _____    ______ ____
ROOT
ATOM      1  C   UNL     1       4.258   6.444  17.389  0.00  0.00    +0.000 A 
ATOM      2  C   UNL     1       4.832   6.703  16.139  0.00  0.00    +0.000 A 
ATOM      3  C   UNL     1       5.322   5.668  15.358  0.00  0.00    +0.000 A 
ATOM      4  C   UNL     1       5.243   4.355  15.819  0.00  0.00    +0.000 A 
ATOM      5  C   UNL     1       4.669   4.083  17.059  0.00  0.00    +0.000 A 
ATOM      6  C   UNL     1       4.183   5.119  17.863  0.00  0.00    +0.000 A 
ATOM      7  C   UNL     1       3.610   4.785  19.210  0.00  0.00    +0.000 C 
ATOM      8  C   UNL     1       2.935   3.399  19.175  0.00  0.00    +0.000 C 
ATOM      9  C   UNL     1       2.484   2.973  20.581  0.00  0.00    +0.000 C 
ATOM     10  C   UNL     1       1.039   3.423  20.651  0.00  0.00    +0.000 C 
ATOM     11  C   UNL     1       0.546   3.148  19.248  0.00  0.00    +0.000 C 
ATOM     12  N   UNL     1       1.680   3.427  18.366  0.00  0.00    +0.000 NA
ATOM     13  C   UNL     1       3.949   2.391  18.600  0.00  0.00    +0.000 C 
ATOM     14  O   UNL     1       4.604   2.758  17.382  0.00  0.00    +0.000 OA
ATOM     15  H   UNL     1       1.572   4.350  17.942  0.00  0.00    +0.000 HD
ENDROOT
BRANCH   1  17
ATOM     16  C   UNL     1       2.604   8.089  17.729  0.00  0.00    +0.000 C 
ATOM     17  O   UNL     1       3.777   7.434  18.209  0.00  0.00    +0.000 OA
ENDBRANCH   1  17
TORSDOF 1
ENDMDL
MODEL 9
REMARK VINA RESULT:      -6.3      2.982      4.808
REMARK  Name = 
REMARK  2 active torsions:
REMARK  status: ('A' for Active; 'I' for Inactive)
REMARK    1  A    between atoms: C_1  and  O_2
REMARK    2  A    between atoms: O_2  and  C_3
REMARK                            x       y       z     vdW  Elec       q    Type
REMARK                         _______ _______ _______ _____ _____    ______ ____
ROOT
ATOM      1  C   UNL     1       1.648   7.953  20.014  0.00  0.00    +0.000 A 
ATOM      2  C   UNL     1       1.567   9.053  19.153  0.00  0.00    +0.000 A 
ATOM      3  C   UNL     1       2.181   9.024  17.911  0.00  0.00    +0.000 A 
ATOM      4  C   UNL     1       2.887   7.891  17.513  0.00  0.00    +0.000 A 
ATOM      5  C   UNL     1       2.972   6.788  18.359  0.00  0.00    +0.000 A 
ATOM      6  C   UNL     1       2.367   6.808  19.620  0.00  0.00    +0.000 A 
ATOM      7  C   UNL     1       2.519   5.612  20.516  0.00  0.00    +0.000 C 
ATOM      8  C   UNL     1       2.603   4.322  19.677  0.00  0.00    +0.000 C 
ATOM      9  C   UNL     1       2.916   3.108  20.565  0.00  0.00    +0.000 C 
ATOM     10  C   UNL     1       1.552   2.536  20.892  0.00  0.00    +0.000 C 
ATOM     11  C   UNL     1       0.798   2.738  19.597  0.00  0.00    +0.000 C 
ATOM     12  N   UNL     1       1.289   3.999  19.043  0.00  0.00    +0.000 NA
ATOM     13  C   UNL     1       3.703   4.517  18.614  0.00  0.00    +0.000 C 
ATOM     14  O   UNL     1       3.648   5.720  17.842  0.00  0.00    +0.000 OA
ATOM     15  H   UNL     1       0.625   4.750  19.243  0.00  0.00    +0.000 HD
ENDROOT
BRANCH   1  17
ATOM     16  C   UNL     1       1.189   9.163  21.985  0.00  0.00    +0.000 C 
ATOM     17  O   UNL     1       1.076   7.938  21.262  0.00  0.00    +0.000 OA
ENDBRANCH   1  17
TORSDOF 1
ENDMDL
