MODEL 1
REMARK VINA RESULT:      -7.8      0.000      0.000
REMARK  Name = 
REMARK  2 active torsions:
REMARK  status: ('A' for Active; 'I' for Inactive)
REMARK    1  A    between atoms: S_2  and  C_3
REMARK    2  A    between atoms: C_6  and  C_7
REMARK                            x       y       z     vdW  Elec       q    Type
REMARK                         _______ _______ _______ _____ _____    ______ ____
ROOT
ATOM      1  C   UNL     1       4.719   4.278  18.093  0.00  0.00    +0.000 A 
ATOM      2  C   UNL     1       4.742   3.485  19.243  0.00  0.00    +0.000 A 
ATOM      3  C   UNL     1       3.545   3.173  19.892  0.00  0.00    +0.000 A 
ATOM      4  C   UNL     1       2.321   3.657  19.402  0.00  0.00    +0.000 A 
ATOM      5  C   UNL     1       2.318   4.465  18.253  0.00  0.00    +0.000 A 
ATOM      6  C   UNL     1       3.510   4.776  17.596  0.00  0.00    +0.000 A 
ENDROOT
BRANCH   1   8
ATOM      7  O   UNL     1       6.227   3.812  16.033  0.00  0.00    +0.000 OA
ATOM      8  S   UNL     1       6.252   4.632  17.232  0.00  0.00    +0.000 S 
ATOM      9  N   UNL     1       7.351   4.533  18.286  0.00  0.00    +0.000 NA
ATOM     10  C   UNL     1       8.057   5.609  18.925  0.00  0.00    +0.000 C 
ATOM     11  C   UNL     1       7.878   7.017  18.396  0.00  0.00    +0.000 C 
ATOM     12  C   UNL     1       6.836   7.363  17.346  0.00  0.00    +0.000 C 
ATOM     13  C   UNL     1       6.020   6.282  16.677  0.00  0.00    +0.000 C 
ENDBRANCH   1   8
BRANCH   4  14
ATOM     14  C   UNL     1       1.019   3.327  20.093  0.00  0.00    +0.000 C 
ATOM     15  F   UNL     1       0.181   2.556  19.345  0.00  0.00    +0.000 F 
ATOM     16  F   UNL     1       1.206   2.652  21.261  0.00  0.00    +0.000 F 
ATOM     17  F   UNL     1       0.309   4.443  20.416  0.00  0.00    +0.000 F 
ENDBRANCH   4  14
TORSDOF 2
ENDMDL
MODEL 2
REMARK VINA RESULT:      -7.8      0.309      1.506
REMARK  Name = 
REMARK  2 active torsions:
REMARK  status: ('A' for Active; 'I' for Inactive)
REMARK    1  A    between atoms: S_2  and  C_3
REMARK    2  A    between atoms: C_6  and  C_7
REMARK                            x       y       z     vdW  Elec       q    Type
REMARK                         _______ _______ _______ _____ _____    ______ ____
ROOT
ATOM      1  C   UNL     1       4.703   4.112  17.879  0.00  0.00    +0.000 A 
ATOM      2  C   UNL     1       3.490   4.223  17.196  0.00  0.00    +0.000 A 
ATOM      3  C   UNL     1       2.295   3.926  17.857  0.00  0.00    +0.000 A 
ATOM      4  C   UNL     1       2.306   3.509  19.198  0.00  0.00    +0.000 A 
ATOM      5  C   UNL     1       3.536   3.388  19.865  0.00  0.00    +0.000 A 
ATOM      6  C   UNL     1       4.734   3.690  19.212  0.00  0.00    +0.000 A 
ENDROOT
BRANCH   1   8
ATOM      7  O   UNL     1       6.240   3.773  15.815  0.00  0.00    +0.000 OA
ATOM      8  S   UNL     1       6.231   4.546  17.045  0.00  0.00    +0.000 S 
ATOM      9  N   UNL     1       7.324   4.438  18.104  0.00  0.00    +0.000 NA
ATOM     10  C   UNL     1       7.993   5.509  18.791  0.00  0.00    +0.000 C 
ATOM     11  C   UNL     1       7.776   6.931  18.316  0.00  0.00    +0.000 C 
ATOM     12  C   UNL     1       6.731   7.286  17.272  0.00  0.00    +0.000 C 
ATOM     13  C   UNL     1       5.953   6.209  16.553  0.00  0.00    +0.000 C 
ENDBRANCH   1   8
BRANCH   4  14
ATOM     14  C   UNL     1       1.022   3.186  19.924  0.00  0.00    +0.000 C 
ATOM     15  F   UNL     1       0.350   4.285  20.368  0.00  0.00    +0.000 F 
ATOM     16  F   UNL     1       0.142   2.499  19.146  0.00  0.00    +0.000 F 
ATOM     17  F   UNL     1       1.233   2.410  21.024  0.00  0.00    +0.000 F 
ENDBRANCH   4  14
TORSDOF 2
ENDMDL
MODEL 3
REMARK VINA RESULT:      -7.7      0.685      1.201
REMARK  Name = 
REMARK  2 active torsions:
REMARK  status: ('A' for Active; 'I' for Inactive)
REMARK    1  A    between atoms: S_2  and  C_3
REMARK    2  A    between atoms: C_6  and  C_7
REMARK                            x       y       z     vdW  Elec       q    Type
REMARK                         _______ _______ _______ _____ _____    ______ ____
ROOT
ATOM      1  C   UNL     1       4.735   4.249  18.002  0.00  0.00    +0.000 A 
ATOM      2  C   UNL     1       4.313   5.050  19.066  0.00  0.00    +0.000 A 
ATOM      3  C   UNL     1       3.128   4.740  19.736  0.00  0.00    +0.000 A 
ATOM      4  C   UNL     1       2.353   3.636  19.344  0.00  0.00    +0.000 A 
ATOM      5  C   UNL     1       2.785   2.850  18.263  0.00  0.00    +0.000 A 
ATOM      6  C   UNL     1       3.973   3.150  17.592  0.00  0.00    +0.000 A 
ENDROOT
BRANCH   1   8
ATOM      7  O   UNL     1       6.296   3.797  15.978  0.00  0.00    +0.000 OA
ATOM      8  S   UNL     1       6.285   4.617  17.177  0.00  0.00    +0.000 S 
ATOM      9  N   UNL     1       7.359   4.527  18.258  0.00  0.00    +0.000 NA
ATOM     10  C   UNL     1       8.040   5.610  18.913  0.00  0.00    +0.000 C 
ATOM     11  C   UNL     1       7.861   7.017  18.380  0.00  0.00    +0.000 C 
ATOM     12  C   UNL     1       6.841   7.354  17.305  0.00  0.00    +0.000 C 
ATOM     13  C   UNL     1       6.051   6.265  16.617  0.00  0.00    +0.000 C 
ENDBRANCH   1   8
BRANCH   4  14
ATOM     14  C   UNL     1       1.071   3.288  20.061  0.00  0.00    +0.000 C 
ATOM     15  F   UNL     1       1.252   2.512  21.166  0.00  0.00    +0.000 F 
ATOM     16  F   UNL     1       0.396   4.392  20.486  0.00  0.00    +0.000 F 
ATOM     17  F   UNL     1       0.203   2.605  19.264  0.00  0.00    +0.000 F 
ENDBRANCH   4  14
TORSDOF 2
ENDMDL
MODEL 4
REMARK VINA RESULT:      -7.2      4.239      6.180
REMARK  Name = 
REMARK  2 active torsions:
REMARK  status: ('A' for Active; 'I' for Inactive)
REMARK    1  A    between atoms: S_2  and  C_3
REMARK    2  A    between atoms: C_6  and  C_7
REMARK                            x       y       z     vdW  Elec       q    Type
REMARK                         _______ _______ _______ _____ _____    ______ ____
ROOT
ATOM      1  C   UNL     1       4.410   4.186  18.386  0.00  0.00    +0.000 A 
ATOM      2  C   UNL     1       4.362   4.908  17.192  0.00  0.00    +0.000 A 
ATOM      3  C   UNL     1       5.326   5.886  16.935  0.00  0.00    +0.000 A 
ATOM      4  C   UNL     1       6.338   6.153  17.872  0.00  0.00    +0.000 A 
ATOM      5  C   UNL     1       6.362   5.428  19.075  0.00  0.00    +0.000 A 
ATOM      6  C   UNL     1       5.405   4.444  19.335  0.00  0.00    +0.000 A 
ENDROOT
BRANCH   1   8
ATOM      7  O   UNL     1       3.572   1.797  17.812  0.00  0.00    +0.000 OA
ATOM      8  S   UNL     1       3.203   2.895  18.689  0.00  0.00    +0.000 S 
ATOM      9  N   UNL     1       1.841   3.582  18.635  0.00  0.00    +0.000 NA
ATOM     10  C   UNL     1       0.987   3.931  19.737  0.00  0.00    +0.000 C 
ATOM     11  C   UNL     1       1.326   3.411  21.119  0.00  0.00    +0.000 C 
ATOM     12  C   UNL     1       2.635   2.700  21.419  0.00  0.00    +0.000 C 
ATOM     13  C   UNL     1       3.602   2.354  20.312  0.00  0.00    +0.000 C 
ENDBRANCH   1   8
BRANCH   4  14
ATOM     14  C   UNL     1       7.387   7.206  17.607  0.00  0.00    +0.000 C 
ATOM     15  F   UNL     1       6.898   8.477  17.585  0.00  0.00    +0.000 F 
ATOM     16  F   UNL     1       8.376   7.203  18.544  0.00  0.00    +0.000 F 
ATOM     17  F   UNL     1       8.009   7.025  16.409  0.00  0.00    +0.000 F 
ENDBRANCH   4  14
TORSDOF 2
ENDMDL
MODEL 5
REMARK VINA RESULT:      -7.2      4.346      6.101
REMARK  Name = 
REMARK  2 active torsions:
REMARK  status: ('A' for Active; 'I' for Inactive)
REMARK    1  A    between atoms: S_2  and  C_3
REMARK    2  A    between atoms: C_6  and  C_7
REMARK                            x       y       z     vdW  Elec       q    Type
REMARK                         _______ _______ _______ _____ _____    ______ ____
ROOT
ATOM      1  C   UNL     1       4.075   4.735  18.210  0.00  0.00    +0.000 A 
ATOM      2  C   UNL     1       5.223   4.524  18.977  0.00  0.00    +0.000 A 
ATOM      3  C   UNL     1       6.328   5.362  18.813  0.00  0.00    +0.000 A 
ATOM      4  C   UNL     1       6.296   6.410  17.878  0.00  0.00    +0.000 A 
ATOM      5  C   UNL     1       5.139   6.598  17.104  0.00  0.00    +0.000 A 
ATOM      6  C   UNL     1       4.028   5.768  17.268  0.00  0.00    +0.000 A 
ENDROOT
BRANCH   1   8
ATOM      7  O   UNL     1       2.393   3.047  17.182  0.00  0.00    +0.000 OA
ATOM      8  S   UNL     1       2.639   3.691  18.461  0.00  0.00    +0.000 S 
ATOM      9  N   UNL     1       1.607   4.569  19.163  0.00  0.00    +0.000 NA
ATOM     10  C   UNL     1       1.229   4.546  20.549  0.00  0.00    +0.000 C 
ATOM     11  C   UNL     1       1.730   3.417  21.426  0.00  0.00    +0.000 C 
ATOM     12  C   UNL     1       2.769   2.417  20.946  0.00  0.00    +0.000 C 
ATOM     13  C   UNL     1       3.250   2.424  19.514  0.00  0.00    +0.000 C 
ENDBRANCH   1   8
BRANCH   4  14
ATOM     14  C   UNL     1       7.483   7.325  17.692  0.00  0.00    +0.000 C 
ATOM     15  F   UNL     1       8.443   7.182  18.647  0.00  0.00    +0.000 F 
ATOM     16  F   UNL     1       8.110   7.128  16.499  0.00  0.00    +0.000 F 
ATOM     17  F   UNL     1       7.128   8.640  17.714  0.00  0.00    +0.000 F 
ENDBRANCH   4  14
TORSDOF 2
ENDMDL
MODEL 6
REMARK VINA RESULT:      -7.1      4.190      6.075
REMARK  Name = 
REMARK  2 active torsions:
REMARK  status: ('A' for Active; 'I' for Inactive)
REMARK    1  A    between atoms: S_2  and  C_3
REMARK    2  A    between atoms: C_6  and  C_7
REMARK                            x       y       z     vdW  Elec       q    Type
REMARK                         _______ _______ _______ _____ _____    ______ ____
ROOT
ATOM      1  C   UNL     1       4.468   3.735  18.468  0.00  0.00    +0.000 A 
ATOM      2  C   UNL     1       5.154   4.381  19.500  0.00  0.00    +0.000 A 
ATOM      3  C   UNL     1       6.061   5.399  19.196  0.00  0.00    +0.000 A 
ATOM      4  C   UNL     1       6.295   5.772  17.862  0.00  0.00    +0.000 A 
ATOM      5  C   UNL     1       5.608   5.101  16.836  0.00  0.00    +0.000 A 
ATOM      6  C   UNL     1       4.695   4.087  17.133  0.00  0.00    +0.000 A 
ENDROOT
BRANCH   1   8
ATOM      7  O   UNL     1       3.773   1.243  18.268  0.00  0.00    +0.000 OA
ATOM      8  S   UNL     1       3.265   2.466  18.864  0.00  0.00    +0.000 S 
ATOM      9  N   UNL     1       1.905   3.062  18.512  0.00  0.00    +0.000 NA
ATOM     10  C   UNL     1       0.907   3.570  19.414  0.00  0.00    +0.000 C 
ATOM     11  C   UNL     1       1.077   3.337  20.900  0.00  0.00    +0.000 C 
ATOM     12  C   UNL     1       2.353   2.760  21.490  0.00  0.00    +0.000 C 
ATOM     13  C   UNL     1       3.465   2.260  20.598  0.00  0.00    +0.000 C 
ENDBRANCH   1   8
BRANCH   4  14
ATOM     14  C   UNL     1       7.271   6.871  17.519  0.00  0.00    +0.000 C 
ATOM     15  F   UNL     1       8.288   7.003  18.416  0.00  0.00    +0.000 F 
ATOM     16  F   UNL     1       7.864   6.683  16.308  0.00  0.00    +0.000 F 
ATOM     17  F   UNL     1       6.671   8.093  17.454  0.00  0.00    +0.000 F 
ENDBRANCH   4  14
TORSDOF 2
ENDMDL
MODEL 7
REMARK VINA RESULT:      -7.0      4.302      6.216
REMARK  Name = 
REMARK  2 active torsions:
REMARK  status: ('A' for Active; 'I' for Inactive)
REMARK    1  A    between atoms: S_2  and  C_3
REMARK    2  A    between atoms: C_6  and  C_7
REMARK                            x       y       z     vdW  Elec       q    Type
REMARK                         _______ _______ _______ _____ _____    ______ ____
ROOT
ATOM      1  C   UNL     1       4.362   4.545  18.385  0.00  0.00    +0.000 A 
ATOM      2  C   UNL     1       4.195   5.553  17.433  0.00  0.00    +0.000 A 
ATOM      3  C   UNL     1       5.216   6.482  17.223  0.00  0.00    +0.000 A 
ATOM      4  C   UNL     1       6.406   6.416  17.967  0.00  0.00    +0.000 A 
ATOM      5  C   UNL     1       6.552   5.404  18.930  0.00  0.00    +0.000 A 
ATOM      6  C   UNL     1       5.537   4.467  19.141  0.00  0.00    +0.000 A 
ENDROOT
BRANCH   1   8
ATOM      7  O   UNL     1       3.206   2.394  17.504  0.00  0.00    +0.000 OA
ATOM      8  S   UNL     1       3.072   3.321  18.615  0.00  0.00    +0.000 S 
ATOM      9  N   UNL     1       1.796   4.113  18.888  0.00  0.00    +0.000 NA
ATOM     10  C   UNL     1       1.132   4.303  20.149  0.00  0.00    +0.000 C 
ATOM     11  C   UNL     1       1.587   3.493  21.345  0.00  0.00    +0.000 C 
ATOM     12  C   UNL     1       2.839   2.632  21.314  0.00  0.00    +0.000 C 
ATOM     13  C   UNL     1       3.614   2.437  20.032  0.00  0.00    +0.000 C 
ENDBRANCH   1   8
BRANCH   4  14
ATOM     14  C   UNL     1       7.519   7.412  17.749  0.00  0.00    +0.000 C 
ATOM     15  F   UNL     1       8.497   7.359  18.695  0.00  0.00    +0.000 F 
ATOM     16  F   UNL     1       8.147   7.239  16.553  0.00  0.00    +0.000 F 
ATOM     17  F   UNL     1       7.068   8.698  17.751  0.00  0.00    +0.000 F 
ENDBRANCH   4  14
TORSDOF 2
ENDMDL
MODEL 8
REMARK VINA RESULT:      -6.9      3.472      4.294
REMARK  Name = 
REMARK  2 active torsions:
REMARK  status: ('A' for Active; 'I' for Inactive)
REMARK    1  A    between atoms: S_2  and  C_3
REMARK    2  A    between atoms: C_6  and  C_7
REMARK                            x       y       z     vdW  Elec       q    Type
REMARK                         _______ _______ _______ _____ _____    ______ ____
ROOT
ATOM      1  C   UNL     1       3.922   5.823  18.528  0.00  0.00    +0.000 A 
ATOM      2  C   UNL     1       3.008   6.011  19.567  0.00  0.00    +0.000 A 
ATOM      3  C   UNL     1       2.201   7.151  19.580  0.00  0.00    +0.000 A 
ATOM      4  C   UNL     1       2.308   8.114  18.562  0.00  0.00    +0.000 A 
ATOM      5  C   UNL     1       3.243   7.916  17.533  0.00  0.00    +0.000 A 
ATOM      6  C   UNL     1       4.049   6.775  17.510  0.00  0.00    +0.000 A 
ENDROOT
BRANCH   1   8
ATOM      7  O   UNL     1       4.187   3.348  19.263  0.00  0.00    +0.000 OA
ATOM      8  S   UNL     1       4.918   4.333  18.485  0.00  0.00    +0.000 S 
ATOM      9  N   UNL     1       6.339   4.775  18.825  0.00  0.00    +0.000 NA
ATOM     10  C   UNL     1       7.451   4.932  17.928  0.00  0.00    +0.000 C 
ATOM     11  C   UNL     1       7.319   4.429  16.505  0.00  0.00    +0.000 C 
ATOM     12  C   UNL     1       5.997   3.944  15.935  0.00  0.00    +0.000 C 
ATOM     13  C   UNL     1       4.775   3.811  16.814  0.00  0.00    +0.000 C 
ENDBRANCH   1   8
BRANCH   4  14
ATOM     14  C   UNL     1       1.441   9.350  18.563  0.00  0.00    +0.000 C 
ATOM     15  F   UNL     1       2.102  10.485  18.204  0.00  0.00    +0.000 F 
ATOM     16  F   UNL     1       0.385   9.246  17.710  0.00  0.00    +0.000 F 
ATOM     17  F   UNL     1       0.906   9.603  19.790  0.00  0.00    +0.000 F 
ENDBRANCH   4  14
TORSDOF 2
ENDMDL
MODEL 9
REMARK VINA RESULT:      -6.9      3.447      4.344
REMARK  Name = 
REMARK  2 active torsions:
REMARK  status: ('A' for Active; 'I' for Inactive)
REMARK    1  A    between atoms: S_2  and  C_3
REMARK    2  A    between atoms: C_6  and  C_7
REMARK                            x       y       z     vdW  Elec       q    Type
REMARK                         _______ _______ _______ _____ _____    ______ ____
ROOT
ATOM      1  C   UNL     1       3.867   5.751  18.493  0.00  0.00    +0.000 A 
ATOM      2  C   UNL     1       3.962   6.669  17.445  0.00  0.00    +0.000 A 
ATOM      3  C   UNL     1       3.184   7.829  17.469  0.00  0.00    +0.000 A 
ATOM      4  C   UNL     1       2.302   8.075  18.535  0.00  0.00    +0.000 A 
ATOM      5  C   UNL     1       2.209   7.135  19.573  0.00  0.00    +0.000 A 
ATOM      6  C   UNL     1       2.989   5.976  19.559  0.00  0.00    +0.000 A 
ENDROOT
BRANCH   1   8
ATOM      7  O   UNL     1       4.145   3.263  19.178  0.00  0.00    +0.000 OA
ATOM      8  S   UNL     1       4.906   4.290  18.486  0.00  0.00    +0.000 S 
ATOM      9  N   UNL     1       6.283   4.759  18.949  0.00  0.00    +0.000 NA
ATOM     10  C   UNL     1       7.456   4.971  18.145  0.00  0.00    +0.000 C 
ATOM     11  C   UNL     1       7.449   4.508  16.703  0.00  0.00    +0.000 C 
ATOM     12  C   UNL     1       6.188   4.006  16.019  0.00  0.00    +0.000 C 
ATOM     13  C   UNL     1       4.907   3.814  16.795  0.00  0.00    +0.000 C 
ENDBRANCH   1   8
BRANCH   4  14
ATOM     14  C   UNL     1       1.457   9.326  18.575  0.00  0.00    +0.000 C 
ATOM     15  F   UNL     1       0.944   9.603  19.805  0.00  0.00    +0.000 F 
ATOM     16  F   UNL     1       2.151  10.436  18.201  0.00  0.00    +0.000 F 
ATOM     17  F   UNL     1       0.388   9.253  17.733  0.00  0.00    +0.000 F 
ENDBRANCH   4  14
TORSDOF 2
ENDMDL
