MODEL 1
REMARK VINA RESULT:      -8.9      0.000      0.000
REMARK  Name = 
REMARK  7 active torsions:
REMARK  status: ('A' for Active; 'I' for Inactive)
REMARK    1  A    between atoms: C_1  and  O_2
REMARK    2  A    between atoms: O_2  and  C_3
REMARK    3  A    between atoms: C_6  and  C_7
REMARK    4  A    between atoms: C_17  and  C_18
REMARK    5  A    between atoms: C_25  and  C_26
REMARK    6  A    between atoms: C_32  and  C_33
REMARK    7  A    between atoms: C_33  and  O_34
REMARK                            x       y       z     vdW  Elec       q    Type
REMARK                         _______ _______ _______ _____ _____    ______ ____
ROOT
ATOM      1  C   UNL     1       0.981   8.869  20.715  0.00  0.00    +0.000 A 
ATOM      2  C   UNL     1       0.168   8.863  21.827  0.00  0.00    +0.000 A 
ATOM      3  C   UNL     1      -0.396  10.059  22.214  0.00  0.00    +0.000 A 
ATOM      4  C   UNL     1      -0.187  11.247  21.471  0.00  0.00    +0.000 A 
ATOM      5  C   UNL     1      -0.730  12.521  21.719  0.00  0.00    +0.000 A 
ATOM      6  N   UNL     1      -1.641  12.849  22.714  0.00  0.00    +0.000 N 
ATOM      7  C   UNL     1      -2.573  11.854  23.260  0.00  0.00    +0.000 C 
ATOM      8  C   UNL     1      -3.840  12.523  23.791  0.00  0.00    +0.000 C 
ATOM      9  O   UNL     1      -3.513  13.490  24.797  0.00  0.00    +0.000 OA
ATOM     10  C   UNL     1      -2.675  14.511  24.233  0.00  0.00    +0.000 C 
ATOM     11  C   UNL     1      -1.336  13.946  23.686  0.00  0.00    +0.000 C 
ATOM     12  C   UNL     1      -0.513  15.124  23.165  0.00  0.00    +0.000 C 
ATOM     13  N   UNL     1      -0.417  13.536  20.904  0.00  0.00    +0.000 NA
ATOM     14  C   UNL     1       0.453  13.374  19.905  0.00  0.00    +0.000 A 
ATOM     15  N   UNL     1       0.831  14.491  19.198  0.00  0.00    +0.000 N 
ATOM     16  C   UNL     1      -0.111  15.591  19.065  0.00  0.00    +0.000 C 
ATOM     17  C   UNL     1       0.658  16.902  19.208  0.00  0.00    +0.000 C 
ATOM     18  C   UNL     1       1.825  16.968  18.221  0.00  0.00    +0.000 C 
ATOM     19  C   UNL     1       2.727  15.726  18.325  0.00  0.00    +0.000 C 
ATOM     20  C   UNL     1       3.829  15.768  17.271  0.00  0.00    +0.000 C 
ATOM     21  C   UNL     1       1.903  14.427  18.218  0.00  0.00    +0.000 C 
ATOM     22  N   UNL     1       1.007  12.197  19.633  0.00  0.00    +0.000 NA
ATOM     23  C   UNL     1       0.677  11.156  20.375  0.00  0.00    +0.000 A 
ATOM     24  N   UNL     1       1.241   9.999  20.023  0.00  0.00    +0.000 NA
ENDROOT
BRANCH   1  28
ATOM     25  C   UNL     1       2.945   5.318  19.343  0.00  0.00    +0.000 A 
ATOM     26  C   UNL     1       3.000   6.488  18.584  0.00  0.00    +0.000 A 
ATOM     27  C   UNL     1       2.363   7.647  19.022  0.00  0.00    +0.000 A 
ATOM     28  C   UNL     1       1.613   7.642  20.213  0.00  0.00    +0.000 A 
ATOM     29  C   UNL     1       1.484   6.433  20.911  0.00  0.00    +0.000 A 
ATOM     30  C   UNL     1       2.127   5.258  20.481  0.00  0.00    +0.000 A 
BRANCH  25  32
ATOM     31  C   UNL     1       5.091   4.393  19.090  0.00  0.00    +0.000 C 
ATOM     32  O   UNL     1       3.675   4.204  19.018  0.00  0.00    +0.000 OA
ENDBRANCH  25  32
BRANCH  30  33
ATOM     33  C   UNL     1       1.896   3.993  21.263  0.00  0.00    +0.000 C 
BRANCH  33  34
ATOM     34  O   UNL     1       0.746   3.305  20.786  0.00  0.00    +0.000 OA
ATOM     35  H   UNL     1       0.734   3.425  19.821  0.00  0.00    +0.000 HD
ENDBRANCH  33  34
ENDBRANCH  30  33
ENDBRANCH   1  28
TORSDOF 4
ENDMDL
MODEL 2
REMARK VINA RESULT:      -8.6      0.686      1.602
REMARK  Name = 
REMARK  7 active torsions:
REMARK  status: ('A' for Active; 'I' for Inactive)
REMARK    1  A    between atoms: C_1  and  O_2
REMARK    2  A    between atoms: O_2  and  C_3
REMARK    3  A    between atoms: C_6  and  C_7
REMARK    4  A    between atoms: C_17  and  C_18
REMARK    5  A    between atoms: C_25  and  C_26
REMARK    6  A    between atoms: C_32  and  C_33
REMARK    7  A    between atoms: C_33  and  O_34
REMARK                            x       y       z     vdW  Elec       q    Type
REMARK                         _______ _______ _______ _____ _____    ______ ____
ROOT
ATOM      1  C   UNL     1       0.953   8.851  20.855  0.00  0.00    +0.000 A 
ATOM      2  C   UNL     1       0.124   8.865  21.956  0.00  0.00    +0.000 A 
ATOM      3  C   UNL     1      -0.439  10.070  22.317  0.00  0.00    +0.000 A 
ATOM      4  C   UNL     1      -0.214  11.245  21.559  0.00  0.00    +0.000 A 
ATOM      5  C   UNL     1      -0.755  12.525  21.780  0.00  0.00    +0.000 A 
ATOM      6  N   UNL     1      -1.678  12.872  22.757  0.00  0.00    +0.000 N 
ATOM      7  C   UNL     1      -2.621  11.891  23.306  0.00  0.00    +0.000 C 
ATOM      8  C   UNL     1      -3.892  12.573  23.809  0.00  0.00    +0.000 C 
ATOM      9  O   UNL     1      -3.575  13.553  24.804  0.00  0.00    +0.000 OA
ATOM     10  C   UNL     1      -2.725  14.562  24.236  0.00  0.00    +0.000 C 
ATOM     11  C   UNL     1      -1.381  13.983  23.716  0.00  0.00    +0.000 C 
ATOM     12  C   UNL     1      -0.545  15.149  23.189  0.00  0.00    +0.000 C 
ATOM     13  N   UNL     1      -0.425  13.526  20.954  0.00  0.00    +0.000 NA
ATOM     14  C   UNL     1       0.457  13.345  19.969  0.00  0.00    +0.000 A 
ATOM     15  N   UNL     1       0.850  14.449  19.251  0.00  0.00    +0.000 N 
ATOM     16  C   UNL     1      -0.085  15.551  19.088  0.00  0.00    +0.000 C 
ATOM     17  C   UNL     1       0.688  16.861  19.221  0.00  0.00    +0.000 C 
ATOM     18  C   UNL     1       1.868  16.907  18.250  0.00  0.00    +0.000 C 
ATOM     19  C   UNL     1       2.763  15.662  18.386  0.00  0.00    +0.000 C 
ATOM     20  C   UNL     1       3.880  15.683  17.346  0.00  0.00    +0.000 C 
ATOM     21  C   UNL     1       1.935  14.365  18.286  0.00  0.00    +0.000 C 
ATOM     22  N   UNL     1       1.009  12.161  19.723  0.00  0.00    +0.000 NA
ATOM     23  C   UNL     1       0.664  11.133  20.476  0.00  0.00    +0.000 A 
ATOM     24  N   UNL     1       1.228   9.968  20.149  0.00  0.00    +0.000 NA
ENDROOT
BRANCH   1  28
ATOM     25  C   UNL     1       2.681   5.221  19.376  0.00  0.00    +0.000 A 
ATOM     26  C   UNL     1       1.959   5.219  20.571  0.00  0.00    +0.000 A 
ATOM     27  C   UNL     1       1.395   6.394  21.059  0.00  0.00    +0.000 A 
ATOM     28  C   UNL     1       1.586   7.613  20.381  0.00  0.00    +0.000 A 
ATOM     29  C   UNL     1       2.397   7.617  19.238  0.00  0.00    +0.000 A 
ATOM     30  C   UNL     1       2.967   6.434  18.731  0.00  0.00    +0.000 A 
BRANCH  25  32
ATOM     31  C   UNL     1       3.928   3.247  19.649  0.00  0.00    +0.000 C 
ATOM     32  O   UNL     1       3.126   4.063  18.791  0.00  0.00    +0.000 OA
ENDBRANCH  25  32
BRANCH  30  33
ATOM     33  C   UNL     1       3.864   6.535  17.527  0.00  0.00    +0.000 C 
BRANCH  33  34
ATOM     34  O   UNL     1       5.168   6.048  17.824  0.00  0.00    +0.000 OA
ATOM     35  H   UNL     1       5.793   6.662  17.401  0.00  0.00    +0.000 HD
ENDBRANCH  33  34
ENDBRANCH  30  33
ENDBRANCH   1  28
TORSDOF 4
ENDMDL
MODEL 3
REMARK VINA RESULT:      -7.7      2.175      5.092
REMARK  Name = 
REMARK  7 active torsions:
REMARK  status: ('A' for Active; 'I' for Inactive)
REMARK    1  A    between atoms: C_1  and  O_2
REMARK    2  A    between atoms: O_2  and  C_3
REMARK    3  A    between atoms: C_6  and  C_7
REMARK    4  A    between atoms: C_17  and  C_18
REMARK    5  A    between atoms: C_25  and  C_26
REMARK    6  A    between atoms: C_32  and  C_33
REMARK    7  A    between atoms: C_33  and  O_34
REMARK                            x       y       z     vdW  Elec       q    Type
REMARK                         _______ _______ _______ _____ _____    ______ ____
ROOT
ATOM      1  C   UNL     1       1.865  10.091  18.910  0.00  0.00    +0.000 A 
ATOM      2  C   UNL     1       2.399  10.988  18.011  0.00  0.00    +0.000 A 
ATOM      3  C   UNL     1       2.130  12.326  18.205  0.00  0.00    +0.000 A 
ATOM      4  C   UNL     1       1.371  12.771  19.314  0.00  0.00    +0.000 A 
ATOM      5  C   UNL     1       1.057  14.098  19.662  0.00  0.00    +0.000 A 
ATOM      6  N   UNL     1       1.494  15.245  19.014  0.00  0.00    +0.000 N 
ATOM      7  C   UNL     1       2.754  15.269  18.260  0.00  0.00    +0.000 C 
ATOM      8  C   UNL     1       3.341  16.678  18.217  0.00  0.00    +0.000 C 
ATOM      9  O   UNL     1       2.406  17.593  17.633  0.00  0.00    +0.000 OA
ATOM     10  C   UNL     1       1.210  17.635  18.426  0.00  0.00    +0.000 C 
ATOM     11  C   UNL     1       0.507  16.253  18.514  0.00  0.00    +0.000 C 
ATOM     12  C   UNL     1      -0.773  16.433  19.330  0.00  0.00    +0.000 C 
ATOM     13  N   UNL     1       0.320  14.332  20.755  0.00  0.00    +0.000 NA
ATOM     14  C   UNL     1      -0.177  13.326  21.478  0.00  0.00    +0.000 A 
ATOM     15  N   UNL     1      -1.038  13.640  22.504  0.00  0.00    +0.000 N 
ATOM     16  C   UNL     1      -0.882  14.914  23.187  0.00  0.00    +0.000 C 
ATOM     17  C   UNL     1      -2.271  15.485  23.460  0.00  0.00    +0.000 C 
ATOM     18  C   UNL     1      -3.142  14.482  24.219  0.00  0.00    +0.000 C 
ATOM     19  C   UNL     1      -3.180  13.116  23.512  0.00  0.00    +0.000 C 
ATOM     20  C   UNL     1      -3.976  12.105  24.332  0.00  0.00    +0.000 C 
ATOM     21  C   UNL     1      -1.757  12.598  23.219  0.00  0.00    +0.000 C 
ATOM     22  N   UNL     1       0.076  12.053  21.189  0.00  0.00    +0.000 NA
ATOM     23  C   UNL     1       0.849  11.781  20.154  0.00  0.00    +0.000 A 
ATOM     24  N   UNL     1       1.091  10.486  19.944  0.00  0.00    +0.000 NA
ENDROOT
BRANCH   1  28
ATOM     25  C   UNL     1       2.713   5.900  18.654  0.00  0.00    +0.000 A 
ATOM     26  C   UNL     1       2.924   6.728  17.549  0.00  0.00    +0.000 A 
ATOM     27  C   UNL     1       2.650   8.091  17.624  0.00  0.00    +0.000 A 
ATOM     28  C   UNL     1       2.109   8.647  18.799  0.00  0.00    +0.000 A 
ATOM     29  C   UNL     1       1.808   7.786  19.863  0.00  0.00    +0.000 A 
ATOM     30  C   UNL     1       2.086   6.408  19.801  0.00  0.00    +0.000 A 
BRANCH  25  32
ATOM     31  C   UNL     1       2.595   3.816  17.574  0.00  0.00    +0.000 C 
ATOM     32  O   UNL     1       3.105   4.586  18.665  0.00  0.00    +0.000 OA
ENDBRANCH  25  32
BRANCH  30  33
ATOM     33  C   UNL     1       1.687   5.548  20.970  0.00  0.00    +0.000 C 
BRANCH  33  34
ATOM     34  O   UNL     1       0.874   4.461  20.545  0.00  0.00    +0.000 OA
ATOM     35  H   UNL     1       1.479   3.786  20.194  0.00  0.00    +0.000 HD
ENDBRANCH  33  34
ENDBRANCH  30  33
ENDBRANCH   1  28
TORSDOF 4
ENDMDL
MODEL 4
REMARK VINA RESULT:      -7.5      2.070      5.216
REMARK  Name = 
REMARK  7 active torsions:
REMARK  status: ('A' for Active; 'I' for Inactive)
REMARK    1  A    between atoms: C_1  and  O_2
REMARK    2  A    between atoms: O_2  and  C_3
REMARK    3  A    between atoms: C_6  and  C_7
REMARK    4  A    between atoms: C_17  and  C_18
REMARK    5  A    between atoms: C_25  and  C_26
REMARK    6  A    between atoms: C_32  and  C_33
REMARK    7  A    between atoms: C_33  and  O_34
REMARK                            x       y       z     vdW  Elec       q    Type
REMARK                         _______ _______ _______ _____ _____    ______ ____
ROOT
ATOM      1  C   UNL     1       1.562   9.714  19.612  0.00  0.00    +0.000 A 
ATOM      2  C   UNL     1       2.124  10.499  18.629  0.00  0.00    +0.000 A 
ATOM      3  C   UNL     1       1.877  11.855  18.675  0.00  0.00    +0.000 A 
ATOM      4  C   UNL     1       1.112  12.430  19.719  0.00  0.00    +0.000 A 
ATOM      5  C   UNL     1       0.818  13.791  19.918  0.00  0.00    +0.000 A 
ATOM      6  N   UNL     1       1.284  14.854  19.158  0.00  0.00    +0.000 N 
ATOM      7  C   UNL     1       2.554  14.776  18.425  0.00  0.00    +0.000 C 
ATOM      8  C   UNL     1       3.166  16.163  18.240  0.00  0.00    +0.000 C 
ATOM      9  O   UNL     1       2.257  17.025  17.547  0.00  0.00    +0.000 OA
ATOM     10  C   UNL     1       1.050  17.172  18.313  0.00  0.00    +0.000 C 
ATOM     11  C   UNL     1       0.322  15.819  18.538  0.00  0.00    +0.000 C 
ATOM     12  C   UNL     1      -0.965  16.107  19.311  0.00  0.00    +0.000 C 
ATOM     13  N   UNL     1       0.071  14.153  20.969  0.00  0.00    +0.000 NA
ATOM     14  C   UNL     1      -0.454  13.239  21.788  0.00  0.00    +0.000 A 
ATOM     15  N   UNL     1      -1.322  13.675  22.761  0.00  0.00    +0.000 N 
ATOM     16  C   UNL     1      -1.152  15.012  23.306  0.00  0.00    +0.000 C 
ATOM     17  C   UNL     1      -2.534  15.632  23.496  0.00  0.00    +0.000 C 
ATOM     18  C   UNL     1      -3.433  14.732  24.345  0.00  0.00    +0.000 C 
ATOM     19  C   UNL     1      -3.486  13.298  23.787  0.00  0.00    +0.000 C 
ATOM     20  C   UNL     1      -4.312  12.394  24.699  0.00  0.00    +0.000 C 
ATOM     21  C   UNL     1      -2.070  12.728  23.573  0.00  0.00    +0.000 C 
ATOM     22  N   UNL     1      -0.220  11.939  21.640  0.00  0.00    +0.000 NA
ATOM     23  C   UNL     1       0.561  11.544  20.652  0.00  0.00    +0.000 A 
ATOM     24  N   UNL     1       0.782  10.230  20.585  0.00  0.00    +0.000 NA
ENDROOT
BRANCH   1  28
ATOM     25  C   UNL     1       2.076   5.461  19.665  0.00  0.00    +0.000 A 
ATOM     26  C   UNL     1       1.483   6.110  20.749  0.00  0.00    +0.000 A 
ATOM     27  C   UNL     1       1.313   7.492  20.740  0.00  0.00    +0.000 A 
ATOM     28  C   UNL     1       1.782   8.262  19.659  0.00  0.00    +0.000 A 
ATOM     29  C   UNL     1       2.465   7.608  18.625  0.00  0.00    +0.000 A 
ATOM     30  C   UNL     1       2.638   6.211  18.620  0.00  0.00    +0.000 A 
BRANCH  25  32
ATOM     31  C   UNL     1       1.157   3.417  20.375  0.00  0.00    +0.000 C 
ATOM     32  O   UNL     1       2.129   4.094  19.574  0.00  0.00    +0.000 OA
ENDBRANCH  25  32
BRANCH  30  33
ATOM     33  C   UNL     1       3.425   5.595  17.496  0.00  0.00    +0.000 C 
BRANCH  33  34
ATOM     34  O   UNL     1       4.444   4.739  17.999  0.00  0.00    +0.000 OA
ATOM     35  H   UNL     1       5.290   5.112  17.698  0.00  0.00    +0.000 HD
ENDBRANCH  33  34
ENDBRANCH  30  33
ENDBRANCH   1  28
TORSDOF 4
ENDMDL
MODEL 5
REMARK VINA RESULT:      -7.3      2.277      2.698
REMARK  Name = 
REMARK  7 active torsions:
REMARK  status: ('A' for Active; 'I' for Inactive)
REMARK    1  A    between atoms: C_1  and  O_2
REMARK    2  A    between atoms: O_2  and  C_3
REMARK    3  A    between atoms: C_6  and  C_7
REMARK    4  A    between atoms: C_17  and  C_18
REMARK    5  A    between atoms: C_25  and  C_26
REMARK    6  A    between atoms: C_32  and  C_33
REMARK    7  A    between atoms: C_33  and  O_34
REMARK                            x       y       z     vdW  Elec       q    Type
REMARK                         _______ _______ _______ _____ _____    ______ ____
ROOT
ATOM      1  C   UNL     1       1.848   8.879  18.443  0.00  0.00    +0.000 A 
ATOM      2  C   UNL     1       0.595   8.814  19.013  0.00  0.00    +0.000 A 
ATOM      3  C   UNL     1      -0.007  10.002  19.371  0.00  0.00    +0.000 A 
ATOM      4  C   UNL     1       0.617  11.248  19.121  0.00  0.00    +0.000 A 
ATOM      5  C   UNL     1       0.107  12.532  19.389  0.00  0.00    +0.000 A 
ATOM      6  N   UNL     1      -1.152  12.830  19.894  0.00  0.00    +0.000 N 
ATOM      7  C   UNL     1      -2.294  11.931  19.688  0.00  0.00    +0.000 C 
ATOM      8  C   UNL     1      -3.611  12.704  19.715  0.00  0.00    +0.000 C 
ATOM      9  O   UNL     1      -3.758  13.402  20.957  0.00  0.00    +0.000 OA
ATOM     10  C   UNL     1      -2.687  14.346  21.111  0.00  0.00    +0.000 C 
ATOM     11  C   UNL     1      -1.292  13.664  21.129  0.00  0.00    +0.000 C 
ATOM     12  C   UNL     1      -0.244  14.754  21.351  0.00  0.00    +0.000 C 
ATOM     13  N   UNL     1       0.845  13.607  19.085  0.00  0.00    +0.000 NA
ATOM     14  C   UNL     1       2.081  13.477  18.597  0.00  0.00    +0.000 A 
ATOM     15  N   UNL     1       2.829  14.620  18.439  0.00  0.00    +0.000 N 
ATOM     16  C   UNL     1       2.148  15.873  18.155  0.00  0.00    +0.000 C 
ATOM     17  C   UNL     1       2.831  16.983  18.949  0.00  0.00    +0.000 C 
ATOM     18  C   UNL     1       4.334  17.021  18.665  0.00  0.00    +0.000 C 
ATOM     19  C   UNL     1       4.985  15.642  18.872  0.00  0.00    +0.000 C 
ATOM     20  C   UNL     1       6.463  15.680  18.494  0.00  0.00    +0.000 C 
ATOM     21  C   UNL     1       4.238  14.547  18.084  0.00  0.00    +0.000 C 
ATOM     22  N   UNL     1       2.619  12.290  18.337  0.00  0.00    +0.000 NA
ATOM     23  C   UNL     1       1.900  11.206  18.565  0.00  0.00    +0.000 A 
ATOM     24  N   UNL     1       2.488  10.051  18.247  0.00  0.00    +0.000 NA
ENDROOT
BRANCH   1  28
ATOM     25  C   UNL     1       3.995   5.345  17.326  0.00  0.00    +0.000 A 
ATOM     26  C   UNL     1       4.493   6.605  16.988  0.00  0.00    +0.000 A 
ATOM     27  C   UNL     1       3.800   7.758  17.346  0.00  0.00    +0.000 A 
ATOM     28  C   UNL     1       2.563   7.671  18.012  0.00  0.00    +0.000 A 
ATOM     29  C   UNL     1       2.029   6.398  18.255  0.00  0.00    +0.000 A 
ATOM     30  C   UNL     1       2.722   5.225  17.903  0.00  0.00    +0.000 A 
BRANCH  25  32
ATOM     31  C   UNL     1       5.381   4.146  15.854  0.00  0.00    +0.000 C 
ATOM     32  O   UNL     1       4.716   4.197  17.119  0.00  0.00    +0.000 OA
ENDBRANCH  25  32
BRANCH  30  33
ATOM     33  C   UNL     1       2.054   3.900  18.156  0.00  0.00    +0.000 C 
BRANCH  33  34
ATOM     34  O   UNL     1       2.130   3.066  17.006  0.00  0.00    +0.000 OA
ATOM     35  H   UNL     1       1.581   2.286  17.195  0.00  0.00    +0.000 HD
ENDBRANCH  33  34
ENDBRANCH  30  33
ENDBRANCH   1  28
TORSDOF 4
ENDMDL
MODEL 6
REMARK VINA RESULT:      -7.0      2.555      5.195
REMARK  Name = 
REMARK  7 active torsions:
REMARK  status: ('A' for Active; 'I' for Inactive)
REMARK    1  A    between atoms: C_1  and  O_2
REMARK    2  A    between atoms: O_2  and  C_3
REMARK    3  A    between atoms: C_6  and  C_7
REMARK    4  A    between atoms: C_17  and  C_18
REMARK    5  A    between atoms: C_25  and  C_26
REMARK    6  A    between atoms: C_32  and  C_33
REMARK    7  A    between atoms: C_33  and  O_34
REMARK                            x       y       z     vdW  Elec       q    Type
REMARK                         _______ _______ _______ _____ _____    ______ ____
ROOT
ATOM      1  C   UNL     1       1.337  10.926  18.996  0.00  0.00    +0.000 A 
ATOM      2  C   UNL     1       2.180  11.939  18.593  0.00  0.00    +0.000 A 
ATOM      3  C   UNL     1       1.767  13.237  18.806  0.00  0.00    +0.000 A 
ATOM      4  C   UNL     1       0.542  13.523  19.456  0.00  0.00    +0.000 A 
ATOM      5  C   UNL     1       0.017  14.789  19.778  0.00  0.00    +0.000 A 
ATOM      6  N   UNL     1       0.638  16.014  19.579  0.00  0.00    +0.000 N 
ATOM      7  C   UNL     1       2.101  16.136  19.540  0.00  0.00    +0.000 C 
ATOM      8  C   UNL     1       2.546  17.532  19.971  0.00  0.00    +0.000 C 
ATOM      9  O   UNL     1       1.952  18.529  19.132  0.00  0.00    +0.000 OA
ATOM     10  C   UNL     1       0.521  18.465  19.244  0.00  0.00    +0.000 C 
ATOM     11  C   UNL     1      -0.049  17.091  18.799  0.00  0.00    +0.000 C 
ATOM     12  C   UNL     1      -1.572  17.162  18.910  0.00  0.00    +0.000 C 
ATOM     13  N   UNL     1      -1.168  14.867  20.397  0.00  0.00    +0.000 NA
ATOM     14  C   UNL     1      -1.886  13.772  20.651  0.00  0.00    +0.000 A 
ATOM     15  N   UNL     1      -3.152  13.941  21.163  0.00  0.00    +0.000 N 
ATOM     16  C   UNL     1      -3.424  15.102  21.995  0.00  0.00    +0.000 C 
ATOM     17  C   UNL     1      -4.806  15.639  21.633  0.00  0.00    +0.000 C 
ATOM     18  C   UNL     1      -5.869  14.544  21.737  0.00  0.00    +0.000 C 
ATOM     19  C   UNL     1      -5.477  13.294  20.929  0.00  0.00    +0.000 C 
ATOM     20  C   UNL     1      -6.504  12.182  21.121  0.00  0.00    +0.000 C 
ATOM     21  C   UNL     1      -4.059  12.813  21.297  0.00  0.00    +0.000 C 
ATOM     22  N   UNL     1      -1.446  12.553  20.357  0.00  0.00    +0.000 NA
ATOM     23  C   UNL     1      -0.256  12.427  19.801  0.00  0.00    +0.000 A 
ATOM     24  N   UNL     1       0.139  11.174  19.567  0.00  0.00    +0.000 NA
ENDROOT
BRANCH   1  28
ATOM     25  C   UNL     1       2.514   6.828  18.585  0.00  0.00    +0.000 A 
ATOM     26  C   UNL     1       2.694   7.720  17.525  0.00  0.00    +0.000 A 
ATOM     27  C   UNL     1       2.313   9.053  17.651  0.00  0.00    +0.000 A 
ATOM     28  C   UNL     1       1.695   9.511  18.830  0.00  0.00    +0.000 A 
ATOM     29  C   UNL     1       1.429   8.581  19.844  0.00  0.00    +0.000 A 
ATOM     30  C   UNL     1       1.815   7.233  19.732  0.00  0.00    +0.000 A 
BRANCH  25  32
ATOM     31  C   UNL     1       3.926   5.304  17.484  0.00  0.00    +0.000 C 
ATOM     32  O   UNL     1       3.005   5.548  18.551  0.00  0.00    +0.000 OA
ENDBRANCH  25  32
BRANCH  30  33
ATOM     33  C   UNL     1       1.448   6.292  20.847  0.00  0.00    +0.000 C 
BRANCH  33  34
ATOM     34  O   UNL     1       2.558   5.482  21.214  0.00  0.00    +0.000 OA
ATOM     35  H   UNL     1       3.297   6.090  21.385  0.00  0.00    +0.000 HD
ENDBRANCH  33  34
ENDBRANCH  30  33
ENDBRANCH   1  28
TORSDOF 4
ENDMDL
MODEL 7
REMARK VINA RESULT:      -7.0      2.650      3.358
REMARK  Name = 
REMARK  7 active torsions:
REMARK  status: ('A' for Active; 'I' for Inactive)
REMARK    1  A    between atoms: C_1  and  O_2
REMARK    2  A    between atoms: O_2  and  C_3
REMARK    3  A    between atoms: C_6  and  C_7
REMARK    4  A    between atoms: C_17  and  C_18
REMARK    5  A    between atoms: C_25  and  C_26
REMARK    6  A    between atoms: C_32  and  C_33
REMARK    7  A    between atoms: C_33  and  O_34
REMARK                            x       y       z     vdW  Elec       q    Type
REMARK                         _______ _______ _______ _____ _____    ______ ____
ROOT
ATOM      1  C   UNL     1       2.399   8.469  17.881  0.00  0.00    +0.000 A 
ATOM      2  C   UNL     1       1.091   8.250  18.253  0.00  0.00    +0.000 A 
ATOM      3  C   UNL     1       0.329   9.349  18.588  0.00  0.00    +0.000 A 
ATOM      4  C   UNL     1       0.854  10.662  18.508  0.00  0.00    +0.000 A 
ATOM      5  C   UNL     1       0.186  11.872  18.773  0.00  0.00    +0.000 A 
ATOM      6  N   UNL     1      -1.154  12.017  19.102  0.00  0.00    +0.000 N 
ATOM      7  C   UNL     1      -2.161  11.037  18.676  0.00  0.00    +0.000 C 
ATOM      8  C   UNL     1      -3.539  11.685  18.553  0.00  0.00    +0.000 C 
ATOM      9  O   UNL     1      -3.930  12.273  19.798  0.00  0.00    +0.000 OA
ATOM     10  C   UNL     1      -2.990  13.296  20.166  0.00  0.00    +0.000 C 
ATOM     11  C   UNL     1      -1.551  12.743  20.350  0.00  0.00    +0.000 C 
ATOM     12  C   UNL     1      -0.660  13.903  20.790  0.00  0.00    +0.000 C 
ATOM     13  N   UNL     1       0.850  13.028  18.647  0.00  0.00    +0.000 NA
ATOM     14  C   UNL     1       2.149  13.046  18.340  0.00  0.00    +0.000 A 
ATOM     15  N   UNL     1       2.795  14.260  18.364  0.00  0.00    +0.000 N 
ATOM     16  C   UNL     1       2.039  15.464  18.057  0.00  0.00    +0.000 C 
ATOM     17  C   UNL     1       2.489  16.569  19.009  0.00  0.00    +0.000 C 
ATOM     18  C   UNL     1       4.005  16.763  18.953  0.00  0.00    +0.000 C 
ATOM     19  C   UNL     1       4.754  15.437  19.172  0.00  0.00    +0.000 C 
ATOM     20  C   UNL     1       6.260  15.635  19.021  0.00  0.00    +0.000 C 
ATOM     21  C   UNL     1       4.239  14.340  18.219  0.00  0.00    +0.000 C 
ATOM     22  N   UNL     1       2.834  11.934  18.093  0.00  0.00    +0.000 NA
ATOM     23  C   UNL     1       2.201  10.776  18.147  0.00  0.00    +0.000 A 
ATOM     24  N   UNL     1       2.940   9.705  17.852  0.00  0.00    +0.000 NA
ENDROOT
BRANCH   1  28
ATOM     25  C   UNL     1       5.081   5.291  16.851  0.00  0.00    +0.000 A 
ATOM     26  C   UNL     1       5.086   6.479  16.118  0.00  0.00    +0.000 A 
ATOM     27  C   UNL     1       4.217   7.517  16.446  0.00  0.00    +0.000 A 
ATOM     28  C   UNL     1       3.285   7.365  17.490  0.00  0.00    +0.000 A 
ATOM     29  C   UNL     1       3.223   6.129  18.149  0.00  0.00    +0.000 A 
ATOM     30  C   UNL     1       4.100   5.076  17.831  0.00  0.00    +0.000 A 
BRANCH  25  32
ATOM     31  C   UNL     1       6.176   3.925  15.282  0.00  0.00    +0.000 C 
ATOM     32  O   UNL     1       6.015   4.308  16.651  0.00  0.00    +0.000 OA
ENDBRANCH  25  32
BRANCH  30  33
ATOM     33  C   UNL     1       3.934   3.767  18.555  0.00  0.00    +0.000 C 
BRANCH  33  34
ATOM     34  O   UNL     1       5.186   3.285  19.027  0.00  0.00    +0.000 OA
ATOM     35  H   UNL     1       5.829   4.000  18.881  0.00  0.00    +0.000 HD
ENDBRANCH  33  34
ENDBRANCH  30  33
ENDBRANCH   1  28
TORSDOF 4
ENDMDL
MODEL 8
REMARK VINA RESULT:      -7.0      2.198      2.469
REMARK  Name = 
REMARK  7 active torsions:
REMARK  status: ('A' for Active; 'I' for Inactive)
REMARK    1  A    between atoms: C_1  and  O_2
REMARK    2  A    between atoms: O_2  and  C_3
REMARK    3  A    between atoms: C_6  and  C_7
REMARK    4  A    between atoms: C_17  and  C_18
REMARK    5  A    between atoms: C_25  and  C_26
REMARK    6  A    between atoms: C_32  and  C_33
REMARK    7  A    between atoms: C_33  and  O_34
REMARK                            x       y       z     vdW  Elec       q    Type
REMARK                         _______ _______ _______ _____ _____    ______ ____
ROOT
ATOM      1  C   UNL     1       0.754  10.053  20.284  0.00  0.00    +0.000 A 
ATOM      2  C   UNL     1      -0.523   9.878  20.770  0.00  0.00    +0.000 A 
ATOM      3  C   UNL     1      -1.112  10.942  21.420  0.00  0.00    +0.000 A 
ATOM      4  C   UNL     1      -0.449  12.187  21.546  0.00  0.00    +0.000 A 
ATOM      5  C   UNL     1      -0.939  13.365  22.140  0.00  0.00    +0.000 A 
ATOM      6  N   UNL     1      -2.211  13.555  22.663  0.00  0.00    +0.000 N 
ATOM      7  C   UNL     1      -3.364  12.788  22.177  0.00  0.00    +0.000 C 
ATOM      8  C   UNL     1      -4.663  13.569  22.370  0.00  0.00    +0.000 C 
ATOM      9  O   UNL     1      -4.847  13.903  23.750  0.00  0.00    +0.000 OA
ATOM     10  C   UNL     1      -3.761  14.731  24.197  0.00  0.00    +0.000 C 
ATOM     11  C   UNL     1      -2.385  14.023  24.074  0.00  0.00    +0.000 C 
ATOM     12  C   UNL     1      -1.322  14.973  24.626  0.00  0.00    +0.000 C 
ATOM     13  N   UNL     1      -0.163  14.455  22.170  0.00  0.00    +0.000 NA
ATOM     14  C   UNL     1       1.089  14.422  21.709  0.00  0.00    +0.000 A 
ATOM     15  N   UNL     1       1.870  15.538  21.899  0.00  0.00    +0.000 N 
ATOM     16  C   UNL     1       1.232  16.843  21.947  0.00  0.00    +0.000 C 
ATOM     17  C   UNL     1       1.906  17.667  23.041  0.00  0.00    +0.000 C 
ATOM     18  C   UNL     1       3.420  17.730  22.831  0.00  0.00    +0.000 C 
ATOM     19  C   UNL     1       4.029  16.326  22.672  0.00  0.00    +0.000 C 
ATOM     20  C   UNL     1       5.523  16.415  22.371  0.00  0.00    +0.000 C 
ATOM     21  C   UNL     1       3.291  15.516  21.587  0.00  0.00    +0.000 C 
ATOM     22  N   UNL     1       1.609  13.334  21.150  0.00  0.00    +0.000 NA
ATOM     23  C   UNL     1       0.856  12.255  21.046  0.00  0.00    +0.000 A 
ATOM     24  N   UNL     1       1.429  11.212  20.442  0.00  0.00    +0.000 NA
ENDROOT
BRANCH   1  28
ATOM     25  C   UNL     1       2.940   6.988  18.242  0.00  0.00    +0.000 A 
ATOM     26  C   UNL     1       2.612   8.174  17.583  0.00  0.00    +0.000 A 
ATOM     27  C   UNL     1       1.901   9.175  18.239  0.00  0.00    +0.000 A 
ATOM     28  C   UNL     1       1.458   8.986  19.562  0.00  0.00    +0.000 A 
ATOM     29  C   UNL     1       1.707   7.750  20.175  0.00  0.00    +0.000 A 
ATOM     30  C   UNL     1       2.430   6.734  19.524  0.00  0.00    +0.000 A 
BRANCH  25  32
ATOM     31  C   UNL     1       4.855   6.588  16.938  0.00  0.00    +0.000 C 
ATOM     32  O   UNL     1       3.759   6.043  17.678  0.00  0.00    +0.000 OA
ENDBRANCH  25  32
BRANCH  30  33
ATOM     33  C   UNL     1       2.611   5.420  20.236  0.00  0.00    +0.000 C 
BRANCH  33  34
ATOM     34  O   UNL     1       2.084   4.348  19.464  0.00  0.00    +0.000 OA
ATOM     35  H   UNL     1       2.112   3.560  20.033  0.00  0.00    +0.000 HD
ENDBRANCH  33  34
ENDBRANCH  30  33
ENDBRANCH   1  28
TORSDOF 4
ENDMDL
MODEL 9
REMARK VINA RESULT:      -7.0      2.313      3.096
REMARK  Name = 
REMARK  7 active torsions:
REMARK  status: ('A' for Active; 'I' for Inactive)
REMARK    1  A    between atoms: C_1  and  O_2
REMARK    2  A    between atoms: O_2  and  C_3
REMARK    3  A    between atoms: C_6  and  C_7
REMARK    4  A    between atoms: C_17  and  C_18
REMARK    5  A    between atoms: C_25  and  C_26
REMARK    6  A    between atoms: C_32  and  C_33
REMARK    7  A    between atoms: C_33  and  O_34
REMARK                            x       y       z     vdW  Elec       q    Type
REMARK                         _______ _______ _______ _____ _____    ______ ____
ROOT
ATOM      1  C   UNL     1       1.722   8.865  18.670  0.00  0.00    +0.000 A 
ATOM      2  C   UNL     1       0.473   8.850  19.250  0.00  0.00    +0.000 A 
ATOM      3  C   UNL     1      -0.102  10.063  19.563  0.00  0.00    +0.000 A 
ATOM      4  C   UNL     1       0.544  11.285  19.258  0.00  0.00    +0.000 A 
ATOM      5  C   UNL     1       0.062  12.589  19.476  0.00  0.00    +0.000 A 
ATOM      6  N   UNL     1      -1.186  12.933  19.977  0.00  0.00    +0.000 N 
ATOM      7  C   UNL     1      -2.348  12.050  19.817  0.00  0.00    +0.000 C 
ATOM      8  C   UNL     1      -3.649  12.850  19.821  0.00  0.00    +0.000 C 
ATOM      9  O   UNL     1      -3.772  13.601  21.034  0.00  0.00    +0.000 OA
ATOM     10  C   UNL     1      -2.680  14.529  21.142  0.00  0.00    +0.000 C 
ATOM     11  C   UNL     1      -1.299  13.820  21.178  0.00  0.00    +0.000 C 
ATOM     12  C   UNL     1      -0.228  14.897  21.348  0.00  0.00    +0.000 C 
ATOM     13  N   UNL     1       0.820  13.635  19.123  0.00  0.00    +0.000 NA
ATOM     14  C   UNL     1       2.049  13.460  18.631  0.00  0.00    +0.000 A 
ATOM     15  N   UNL     1       2.819  14.580  18.421  0.00  0.00    +0.000 N 
ATOM     16  C   UNL     1       2.160  15.834  18.090  0.00  0.00    +0.000 C 
ATOM     17  C   UNL     1       2.873  16.961  18.833  0.00  0.00    +0.000 C 
ATOM     18  C   UNL     1       4.373  16.957  18.537  0.00  0.00    +0.000 C 
ATOM     19  C   UNL     1       4.998  15.575  18.796  0.00  0.00    +0.000 C 
ATOM     20  C   UNL     1       6.474  15.567  18.406  0.00  0.00    +0.000 C 
ATOM     21  C   UNL     1       4.223  14.464  18.060  0.00  0.00    +0.000 C 
ATOM     22  N   UNL     1       2.560  12.253  18.417  0.00  0.00    +0.000 NA
ATOM     23  C   UNL     1       1.822  11.194  18.695  0.00  0.00    +0.000 A 
ATOM     24  N   UNL     1       2.383  10.015  18.420  0.00  0.00    +0.000 NA
ENDROOT
BRANCH   1  28
ATOM     25  C   UNL     1       3.662   5.262  17.404  0.00  0.00    +0.000 A 
ATOM     26  C   UNL     1       2.486   5.200  18.153  0.00  0.00    +0.000 A 
ATOM     27  C   UNL     1       1.849   6.366  18.569  0.00  0.00    +0.000 A 
ATOM     28  C   UNL     1       2.409   7.626  18.284  0.00  0.00    +0.000 A 
ATOM     29  C   UNL     1       3.643   7.668  17.619  0.00  0.00    +0.000 A 
ATOM     30  C   UNL     1       4.292   6.497  17.188  0.00  0.00    +0.000 A 
BRANCH  25  32
ATOM     31  C   UNL     1       3.922   2.929  17.542  0.00  0.00    +0.000 C 
ATOM     32  O   UNL     1       4.237   4.144  16.856  0.00  0.00    +0.000 OA
ENDBRANCH  25  32
BRANCH  30  33
ATOM     33  C   UNL     1       5.636   6.630  16.525  0.00  0.00    +0.000 C 
BRANCH  33  34
ATOM     34  O   UNL     1       5.565   6.257  15.154  0.00  0.00    +0.000 OA
ATOM     35  H   UNL     1       6.481   6.122  14.858  0.00  0.00    +0.000 HD
ENDBRANCH  33  34
ENDBRANCH  30  33
ENDBRANCH   1  28
TORSDOF 4
ENDMDL
