MODEL 1
REMARK VINA RESULT:      -8.2      0.000      0.000
REMARK  Name = 
REMARK  3 active torsions:
REMARK  status: ('A' for Active; 'I' for Inactive)
REMARK    1  A    between atoms: C_1  and  N_2
REMARK    2  A    between atoms: C_10  and  C_11
REMARK    3  A    between atoms: C_19  and  N_20
REMARK                            x       y       z     vdW  Elec       q    Type
REMARK                         _______ _______ _______ _____ _____    ______ ____
ROOT
ATOM      1  C   UNL     1       7.696   5.016  13.404  0.00  0.00    +0.000 C 
ATOM      2  N   UNL     1       7.458   5.184  14.813  0.00  0.00    +0.000 N 
ATOM      3  C   UNL     1       6.201   5.440  15.315  0.00  0.00    +0.000 C 
ATOM      4  O   UNL     1       5.239   5.600  14.560  0.00  0.00    +0.000 OA
ATOM      5  N   UNL     1       6.112   5.524  16.721  0.00  0.00    +0.000 N 
ATOM      6  C   UNL     1       7.034   4.861  17.538  0.00  0.00    +0.000 C 
ATOM      7  O   UNL     1       8.017   4.247  17.101  0.00  0.00    +0.000 OA
ATOM      8  C   UNL     1       6.852   4.984  19.036  0.00  0.00    +0.000 C 
ATOM      9  N   UNL     1       5.712   4.177  19.442  0.00  0.00    +0.000 NA
ATOM     10  C   UNL     1       4.523   4.576  19.142  0.00  0.00    +0.000 C 
ATOM     11  C   UNL     1       4.245   5.843  18.405  0.00  0.00    +0.000 A 
ATOM     12  C   UNL     1       3.186   6.641  18.892  0.00  0.00    +0.000 A 
ATOM     13  C   UNL     1       2.820   7.813  18.229  0.00  0.00    +0.000 A 
ATOM     14  C   UNL     1       3.522   8.227  17.098  0.00  0.00    +0.000 A 
ATOM     15  C   UNL     1       4.588   7.446  16.634  0.00  0.00    +0.000 A 
ATOM     16  C   UNL     1       4.977   6.241  17.267  0.00  0.00    +0.000 A 
ATOM     17  H   UNL     1       8.085   4.688  15.446  0.00  0.00    +0.000 HD
ENDROOT
BRANCH  10  18
ATOM     18  C   UNL     1       3.382   3.730  19.625  0.00  0.00    +0.000 A 
ATOM     19  C   UNL     1       3.068   3.761  20.992  0.00  0.00    +0.000 A 
ATOM     20  C   UNL     1       1.992   3.023  21.485  0.00  0.00    +0.000 A 
ATOM     21  C   UNL     1       1.224   2.251  20.616  0.00  0.00    +0.000 A 
ATOM     22  C   UNL     1       1.539   2.203  19.257  0.00  0.00    +0.000 A 
ATOM     23  C   UNL     1       2.624   2.932  18.761  0.00  0.00    +0.000 A 
ENDBRANCH  10  18
BRANCH  13  24
ATOM     24  N   UNL     1       1.681   8.603  18.717  0.00  0.00    +0.000 N 
ATOM     25  O   UNL     1       1.037   9.252  17.881  0.00  0.00    +0.000 OA
ATOM     26  O   UNL     1       1.436   8.577  19.931  0.00  0.00    +0.000 OA
ENDBRANCH  13  24
TORSDOF 2
ENDMDL
MODEL 2
REMARK VINA RESULT:      -7.1      0.675      1.008
REMARK  Name = 
REMARK  3 active torsions:
REMARK  status: ('A' for Active; 'I' for Inactive)
REMARK    1  A    between atoms: C_1  and  N_2
REMARK    2  A    between atoms: C_10  and  C_11
REMARK    3  A    between atoms: C_19  and  N_20
REMARK                            x       y       z     vdW  Elec       q    Type
REMARK                         _______ _______ _______ _____ _____    ______ ____
ROOT
ATOM      1  C   UNL     1       7.409   4.741  13.535  0.00  0.00    +0.000 C 
ATOM      2  N   UNL     1       7.226   5.057  14.927  0.00  0.00    +0.000 N 
ATOM      3  C   UNL     1       5.984   5.344  15.453  0.00  0.00    +0.000 C 
ATOM      4  O   UNL     1       4.989   5.402  14.728  0.00  0.00    +0.000 OA
ATOM      5  N   UNL     1       5.952   5.579  16.844  0.00  0.00    +0.000 N 
ATOM      6  C   UNL     1       6.922   5.025  17.687  0.00  0.00    +0.000 C 
ATOM      7  O   UNL     1       7.901   4.386  17.276  0.00  0.00    +0.000 OA
ATOM      8  C   UNL     1       6.800   5.307  19.170  0.00  0.00    +0.000 C 
ATOM      9  N   UNL     1       5.697   4.529  19.709  0.00  0.00    +0.000 NA
ATOM     10  C   UNL     1       4.487   4.871  19.421  0.00  0.00    +0.000 C 
ATOM     11  C   UNL     1       4.150   6.044  18.564  0.00  0.00    +0.000 A 
ATOM     12  C   UNL     1       3.093   6.871  19.007  0.00  0.00    +0.000 A 
ATOM     13  C   UNL     1       2.674   7.957  18.238  0.00  0.00    +0.000 A 
ATOM     14  C   UNL     1       3.319   8.258  17.040  0.00  0.00    +0.000 A 
ATOM     15  C   UNL     1       4.382   7.451  16.616  0.00  0.00    +0.000 A 
ATOM     16  C   UNL     1       4.825   6.329  17.358  0.00  0.00    +0.000 A 
ATOM     17  H   UNL     1       7.890   4.645  15.582  0.00  0.00    +0.000 HD
ENDROOT
BRANCH  10  18
ATOM     18  C   UNL     1       3.387   4.062  20.041  0.00  0.00    +0.000 A 
ATOM     19  C   UNL     1       2.099   4.616  20.080  0.00  0.00    +0.000 A 
ATOM     20  C   UNL     1       1.034   3.888  20.612  0.00  0.00    +0.000 A 
ATOM     21  C   UNL     1       1.250   2.604  21.107  0.00  0.00    +0.000 A 
ATOM     22  C   UNL     1       2.531   2.051  21.086  0.00  0.00    +0.000 A 
ATOM     23  C   UNL     1       3.603   2.782  20.565  0.00  0.00    +0.000 A 
ENDBRANCH  10  18
BRANCH  13  24
ATOM     24  N   UNL     1       1.538   8.775  18.687  0.00  0.00    +0.000 N 
ATOM     25  O   UNL     1       1.234   8.721  19.887  0.00  0.00    +0.000 OA
ATOM     26  O   UNL     1       0.951   9.463  17.840  0.00  0.00    +0.000 OA
ENDBRANCH  13  24
TORSDOF 2
ENDMDL
MODEL 3
REMARK VINA RESULT:      -6.6      6.039      9.725
REMARK  Name = 
REMARK  3 active torsions:
REMARK  status: ('A' for Active; 'I' for Inactive)
REMARK    1  A    between atoms: C_1  and  N_2
REMARK    2  A    between atoms: C_10  and  C_11
REMARK    3  A    between atoms: C_19  and  N_20
REMARK                            x       y       z     vdW  Elec       q    Type
REMARK                         _______ _______ _______ _____ _____    ______ ____
ROOT
ATOM      1  C   UNL     1      -5.383  12.942  22.189  0.00  0.00    +0.000 C 
ATOM      2  N   UNL     1      -4.434  12.824  21.114  0.00  0.00    +0.000 N 
ATOM      3  C   UNL     1      -3.090  12.632  21.346  0.00  0.00    +0.000 C 
ATOM      4  O   UNL     1      -2.641  12.618  22.494  0.00  0.00    +0.000 OA
ATOM      5  N   UNL     1      -2.289  12.478  20.193  0.00  0.00    +0.000 N 
ATOM      6  C   UNL     1      -2.837  11.994  19.000  0.00  0.00    +0.000 C 
ATOM      7  O   UNL     1      -4.044  11.761  18.847  0.00  0.00    +0.000 OA
ATOM      8  C   UNL     1      -1.903  11.837  17.818  0.00  0.00    +0.000 C 
ATOM      9  N   UNL     1      -1.044  10.686  18.045  0.00  0.00    +0.000 NA
ATOM     10  C   UNL     1      -0.108  10.766  18.928  0.00  0.00    +0.000 C 
ATOM     11  C   UNL     1       0.156  11.994  19.733  0.00  0.00    +0.000 A 
ATOM     12  C   UNL     1       1.508  12.373  19.889  0.00  0.00    +0.000 A 
ATOM     13  C   UNL     1       1.849  13.475  20.673  0.00  0.00    +0.000 A 
ATOM     14  C   UNL     1       0.853  14.236  21.284  0.00  0.00    +0.000 A 
ATOM     15  C   UNL     1      -0.488  13.872  21.107  0.00  0.00    +0.000 A 
ATOM     16  C   UNL     1      -0.873  12.749  20.334  0.00  0.00    +0.000 A 
ATOM     17  H   UNL     1      -4.782  12.442  20.235  0.00  0.00    +0.000 HD
ENDROOT
BRANCH  10  18
ATOM     18  C   UNL     1       0.778   9.567  19.088  0.00  0.00    +0.000 A 
ATOM     19  C   UNL     1       1.519   9.138  17.977  0.00  0.00    +0.000 A 
ATOM     20  C   UNL     1       2.387   8.052  18.085  0.00  0.00    +0.000 A 
ATOM     21  C   UNL     1       2.520   7.388  19.302  0.00  0.00    +0.000 A 
ATOM     22  C   UNL     1       1.776   7.798  20.409  0.00  0.00    +0.000 A 
ATOM     23  C   UNL     1       0.895   8.879  20.302  0.00  0.00    +0.000 A 
ENDBRANCH  10  18
BRANCH  13  24
ATOM     24  N   UNL     1       3.263  13.824  20.869  0.00  0.00    +0.000 N 
ATOM     25  O   UNL     1       3.764  13.580  21.975  0.00  0.00    +0.000 OA
ATOM     26  O   UNL     1       3.867  14.343  19.920  0.00  0.00    +0.000 OA
ENDBRANCH  13  24
TORSDOF 2
ENDMDL
MODEL 4
REMARK VINA RESULT:      -6.4      6.243      9.859
REMARK  Name = 
REMARK  3 active torsions:
REMARK  status: ('A' for Active; 'I' for Inactive)
REMARK    1  A    between atoms: C_1  and  N_2
REMARK    2  A    between atoms: C_10  and  C_11
REMARK    3  A    between atoms: C_19  and  N_20
REMARK                            x       y       z     vdW  Elec       q    Type
REMARK                         _______ _______ _______ _____ _____    ______ ____
ROOT
ATOM      1  C   UNL     1      -6.193  12.654  21.338  0.00  0.00    +0.000 C 
ATOM      2  N   UNL     1      -5.145  12.547  20.358  0.00  0.00    +0.000 N 
ATOM      3  C   UNL     1      -3.815  12.506  20.714  0.00  0.00    +0.000 C 
ATOM      4  O   UNL     1      -3.472  12.626  21.892  0.00  0.00    +0.000 OA
ATOM      5  N   UNL     1      -2.904  12.343  19.648  0.00  0.00    +0.000 N 
ATOM      6  C   UNL     1      -3.297  11.717  18.460  0.00  0.00    +0.000 C 
ATOM      7  O   UNL     1      -4.459  11.354  18.229  0.00  0.00    +0.000 OA
ATOM      8  C   UNL     1      -2.250  11.562  17.376  0.00  0.00    +0.000 C 
ATOM      9  N   UNL     1      -1.313  10.522  17.770  0.00  0.00    +0.000 NA
ATOM     10  C   UNL     1      -0.471  10.762  18.717  0.00  0.00    +0.000 C 
ATOM     11  C   UNL     1      -0.394  12.069  19.432  0.00  0.00    +0.000 A 
ATOM     12  C   UNL     1       0.899  12.591  19.664  0.00  0.00    +0.000 A 
ATOM     13  C   UNL     1       1.065  13.778  20.376  0.00  0.00    +0.000 A 
ATOM     14  C   UNL     1      -0.047  14.482  20.836  0.00  0.00    +0.000 A 
ATOM     15  C   UNL     1      -1.327  13.975  20.582  0.00  0.00    +0.000 A 
ATOM     16  C   UNL     1      -1.537  12.763  19.880  0.00  0.00    +0.000 A 
ATOM     17  H   UNL     1      -5.377  12.065  19.490  0.00  0.00    +0.000 HD
ENDROOT
BRANCH  10  18
ATOM     18  C   UNL     1       0.504   9.673  19.051  0.00  0.00    +0.000 A 
ATOM     19  C   UNL     1       0.517   9.176  20.363  0.00  0.00    +0.000 A 
ATOM     20  C   UNL     1       1.378   8.136  20.714  0.00  0.00    +0.000 A 
ATOM     21  C   UNL     1       2.228   7.586  19.758  0.00  0.00    +0.000 A 
ATOM     22  C   UNL     1       2.231   8.084  18.454  0.00  0.00    +0.000 A 
ATOM     23  C   UNL     1       1.379   9.134  18.100  0.00  0.00    +0.000 A 
ENDBRANCH  10  18
BRANCH  13  24
ATOM     24  N   UNL     1       2.419  14.279  20.655  0.00  0.00    +0.000 N 
ATOM     25  O   UNL     1       3.054  13.731  21.567  0.00  0.00    +0.000 OA
ATOM     26  O   UNL     1       2.841  15.219  19.967  0.00  0.00    +0.000 OA
ENDBRANCH  13  24
TORSDOF 2
ENDMDL
MODEL 5
REMARK VINA RESULT:      -6.4      5.865      9.564
REMARK  Name = 
REMARK  3 active torsions:
REMARK  status: ('A' for Active; 'I' for Inactive)
REMARK    1  A    between atoms: C_1  and  N_2
REMARK    2  A    between atoms: C_10  and  C_11
REMARK    3  A    between atoms: C_19  and  N_20
REMARK                            x       y       z     vdW  Elec       q    Type
REMARK                         _______ _______ _______ _____ _____    ______ ____
ROOT
ATOM      1  C   UNL     1      -5.650  12.926  21.212  0.00  0.00    +0.000 C 
ATOM      2  N   UNL     1      -4.713  12.639  20.158  0.00  0.00    +0.000 N 
ATOM      3  C   UNL     1      -3.354  12.595  20.383  0.00  0.00    +0.000 C 
ATOM      4  O   UNL     1      -2.887  12.865  21.491  0.00  0.00    +0.000 OA
ATOM      5  N   UNL     1      -2.564  12.246  19.266  0.00  0.00    +0.000 N 
ATOM      6  C   UNL     1      -3.094  11.475  18.225  0.00  0.00    +0.000 C 
ATOM      7  O   UNL     1      -4.283  11.132  18.166  0.00  0.00    +0.000 OA
ATOM      8  C   UNL     1      -2.171  11.127  17.077  0.00  0.00    +0.000 C 
ATOM      9  N   UNL     1      -1.225  10.116  17.521  0.00  0.00    +0.000 NA
ATOM     10  C   UNL     1      -0.283  10.452  18.335  0.00  0.00    +0.000 C 
ATOM     11  C   UNL     1      -0.098  11.842  18.844  0.00  0.00    +0.000 A 
ATOM     12  C   UNL     1       1.225  12.338  18.868  0.00  0.00    +0.000 A 
ATOM     13  C   UNL     1       1.496  13.606  19.382  0.00  0.00    +0.000 A 
ATOM     14  C   UNL     1       0.457  14.412  19.844  0.00  0.00    +0.000 A 
ATOM     15  C   UNL     1      -0.856  13.927  19.795  0.00  0.00    +0.000 A 
ATOM     16  C   UNL     1      -1.170  12.639  19.299  0.00  0.00    +0.000 A 
ATOM     17  H   UNL     1      -5.047  12.050  19.396  0.00  0.00    +0.000 HD
ENDROOT
BRANCH  10  18
ATOM     18  C   UNL     1       0.691   9.381  18.724  0.00  0.00    +0.000 A 
ATOM     19  C   UNL     1       1.528   8.854  17.729  0.00  0.00    +0.000 A 
ATOM     20  C   UNL     1       2.478   7.884  18.047  0.00  0.00    +0.000 A 
ATOM     21  C   UNL     1       2.599   7.435  19.360  0.00  0.00    +0.000 A 
ATOM     22  C   UNL     1       1.761   7.943  20.354  0.00  0.00    +0.000 A 
ATOM     23  C   UNL     1       0.799   8.907  20.037  0.00  0.00    +0.000 A 
ENDBRANCH  10  18
BRANCH  13  24
ATOM     24  N   UNL     1       2.884  14.085  19.451  0.00  0.00    +0.000 N 
ATOM     25  O   UNL     1       3.258  14.600  20.513  0.00  0.00    +0.000 OA
ATOM     26  O   UNL     1       3.593  13.950  18.444  0.00  0.00    +0.000 OA
ENDBRANCH  13  24
TORSDOF 2
ENDMDL
MODEL 6
REMARK VINA RESULT:      -6.4      2.793      4.882
REMARK  Name = 
REMARK  3 active torsions:
REMARK  status: ('A' for Active; 'I' for Inactive)
REMARK    1  A    between atoms: C_1  and  N_2
REMARK    2  A    between atoms: C_10  and  C_11
REMARK    3  A    between atoms: C_19  and  N_20
REMARK                            x       y       z     vdW  Elec       q    Type
REMARK                         _______ _______ _______ _____ _____    ______ ____
ROOT
ATOM      1  C   UNL     1       9.234   5.116  19.675  0.00  0.00    +0.000 C 
ATOM      2  N   UNL     1       8.107   5.344  18.809  0.00  0.00    +0.000 N 
ATOM      3  C   UNL     1       6.809   5.202  19.248  0.00  0.00    +0.000 C 
ATOM      4  O   UNL     1       6.568   4.809  20.392  0.00  0.00    +0.000 OA
ATOM      5  N   UNL     1       5.809   5.514  18.303  0.00  0.00    +0.000 N 
ATOM      6  C   UNL     1       6.066   6.407  17.256  0.00  0.00    +0.000 C 
ATOM      7  O   UNL     1       7.180   6.901  17.037  0.00  0.00    +0.000 OA
ATOM      8  C   UNL     1       4.930   6.704  16.300  0.00  0.00    +0.000 C 
ATOM      9  N   UNL     1       3.961   7.558  16.967  0.00  0.00    +0.000 NA
ATOM     10  C   UNL     1       3.213   7.057  17.891  0.00  0.00    +0.000 C 
ATOM     11  C   UNL     1       3.277   5.626  18.309  0.00  0.00    +0.000 A 
ATOM     12  C   UNL     1       2.043   4.966  18.504  0.00  0.00    +0.000 A 
ATOM     13  C   UNL     1       2.009   3.646  18.951  0.00  0.00    +0.000 A 
ATOM     14  C   UNL     1       3.197   2.951  19.176  0.00  0.00    +0.000 A 
ATOM     15  C   UNL     1       4.419   3.601  18.959  0.00  0.00    +0.000 A 
ATOM     16  C   UNL     1       4.495   4.946  18.524  0.00  0.00    +0.000 A 
ATOM     17  H   UNL     1       8.239   6.015  18.053  0.00  0.00    +0.000 HD
ENDROOT
BRANCH  10  18
ATOM     18  C   UNL     1       2.200   7.970  18.514  0.00  0.00    +0.000 A 
ATOM     19  C   UNL     1       1.950   7.843  19.888  0.00  0.00    +0.000 A 
ATOM     20  C   UNL     1       1.046   8.694  20.522  0.00  0.00    +0.000 A 
ATOM     21  C   UNL     1       0.387   9.677  19.788  0.00  0.00    +0.000 A 
ATOM     22  C   UNL     1       0.618   9.802  18.418  0.00  0.00    +0.000 A 
ATOM     23  C   UNL     1       1.515   8.942  17.776  0.00  0.00    +0.000 A 
ENDBRANCH  10  18
BRANCH  13  24
ATOM     24  N   UNL     1       0.717   2.991  19.199  0.00  0.00    +0.000 N 
ATOM     25  O   UNL     1       0.207   3.140  20.318  0.00  0.00    +0.000 OA
ATOM     26  O   UNL     1       0.219   2.327  18.280  0.00  0.00    +0.000 OA
ENDBRANCH  13  24
TORSDOF 2
ENDMDL
MODEL 7
REMARK VINA RESULT:      -6.3      7.120      9.659
REMARK  Name = 
REMARK  3 active torsions:
REMARK  status: ('A' for Active; 'I' for Inactive)
REMARK    1  A    between atoms: C_1  and  N_2
REMARK    2  A    between atoms: C_10  and  C_11
REMARK    3  A    between atoms: C_19  and  N_20
REMARK                            x       y       z     vdW  Elec       q    Type
REMARK                         _______ _______ _______ _____ _____    ______ ____
ROOT
ATOM      1  C   UNL     1       1.776   8.693  17.829  0.00  0.00    +0.000 C 
ATOM      2  N   UNL     1       1.457   9.095  19.174  0.00  0.00    +0.000 N 
ATOM      3  C   UNL     1       0.946  10.342  19.461  0.00  0.00    +0.000 C 
ATOM      4  O   UNL     1       0.804  11.187  18.574  0.00  0.00    +0.000 OA
ATOM      5  N   UNL     1       0.629  10.573  20.816  0.00  0.00    +0.000 N 
ATOM      6  C   UNL     1       0.312   9.510  21.669  0.00  0.00    +0.000 C 
ATOM      7  O   UNL     1       0.375   8.320  21.331  0.00  0.00    +0.000 OA
ATOM      8  C   UNL     1      -0.039   9.848  23.103  0.00  0.00    +0.000 C 
ATOM      9  N   UNL     1      -1.365  10.444  23.137  0.00  0.00    +0.000 NA
ATOM     10  C   UNL     1      -1.526  11.642  22.687  0.00  0.00    +0.000 C 
ATOM     11  C   UNL     1      -0.411  12.468  22.139  0.00  0.00    +0.000 A 
ATOM     12  C   UNL     1      -0.367  13.821  22.542  0.00  0.00    +0.000 A 
ATOM     13  C   UNL     1       0.607  14.680  22.033  0.00  0.00    +0.000 A 
ATOM     14  C   UNL     1       1.571  14.200  21.147  0.00  0.00    +0.000 A 
ATOM     15  C   UNL     1       1.539  12.852  20.769  0.00  0.00    +0.000 A 
ATOM     16  C   UNL     1       0.555  11.954  21.249  0.00  0.00    +0.000 A 
ATOM     17  H   UNL     1       1.185   8.355  19.821  0.00  0.00    +0.000 HD
ENDROOT
BRANCH  10  18
ATOM     18  C   UNL     1      -2.904  12.224  22.789  0.00  0.00    +0.000 A 
ATOM     19  C   UNL     1      -3.552  12.603  21.603  0.00  0.00    +0.000 A 
ATOM     20  C   UNL     1      -4.849  13.114  21.641  0.00  0.00    +0.000 A 
ATOM     21  C   UNL     1      -5.507  13.249  22.861  0.00  0.00    +0.000 A 
ATOM     22  C   UNL     1      -4.864  12.888  24.047  0.00  0.00    +0.000 A 
ATOM     23  C   UNL     1      -3.560  12.387  24.015  0.00  0.00    +0.000 A 
ENDBRANCH  10  18
BRANCH  13  24
ATOM     24  N   UNL     1       0.607  16.098  22.421  0.00  0.00    +0.000 N 
ATOM     25  O   UNL     1       0.058  16.900  21.653  0.00  0.00    +0.000 OA
ATOM     26  O   UNL     1       1.158  16.406  23.487  0.00  0.00    +0.000 OA
ENDBRANCH  13  24
TORSDOF 2
ENDMDL
MODEL 8
REMARK VINA RESULT:      -6.3      2.792      4.923
REMARK  Name = 
REMARK  3 active torsions:
REMARK  status: ('A' for Active; 'I' for Inactive)
REMARK    1  A    between atoms: C_1  and  N_2
REMARK    2  A    between atoms: C_10  and  C_11
REMARK    3  A    between atoms: C_19  and  N_20
REMARK                            x       y       z     vdW  Elec       q    Type
REMARK                         _______ _______ _______ _____ _____    ______ ____
ROOT
ATOM      1  C   UNL     1       9.248   5.083  19.648  0.00  0.00    +0.000 C 
ATOM      2  N   UNL     1       8.113   5.327  18.797  0.00  0.00    +0.000 N 
ATOM      3  C   UNL     1       6.819   5.190  19.249  0.00  0.00    +0.000 C 
ATOM      4  O   UNL     1       6.588   4.788  20.391  0.00  0.00    +0.000 OA
ATOM      5  N   UNL     1       5.811   5.517  18.317  0.00  0.00    +0.000 N 
ATOM      6  C   UNL     1       6.062   6.418  17.276  0.00  0.00    +0.000 C 
ATOM      7  O   UNL     1       7.178   6.907  17.050  0.00  0.00    +0.000 OA
ATOM      8  C   UNL     1       4.918   6.732  16.335  0.00  0.00    +0.000 C 
ATOM      9  N   UNL     1       3.963   7.586  17.022  0.00  0.00    +0.000 NA
ATOM     10  C   UNL     1       3.221   7.081  17.949  0.00  0.00    +0.000 C 
ATOM     11  C   UNL     1       3.280   5.647  18.353  0.00  0.00    +0.000 A 
ATOM     12  C   UNL     1       2.044   4.993  18.555  0.00  0.00    +0.000 A 
ATOM     13  C   UNL     1       2.006   3.669  18.990  0.00  0.00    +0.000 A 
ATOM     14  C   UNL     1       3.191   2.964  19.196  0.00  0.00    +0.000 A 
ATOM     15  C   UNL     1       4.415   3.608  18.971  0.00  0.00    +0.000 A 
ATOM     16  C   UNL     1       4.495   4.957  18.548  0.00  0.00    +0.000 A 
ATOM     17  H   UNL     1       8.241   6.005  18.046  0.00  0.00    +0.000 HD
ENDROOT
BRANCH  10  18
ATOM     18  C   UNL     1       2.221   7.996  18.591  0.00  0.00    +0.000 A 
ATOM     19  C   UNL     1       1.575   8.943  17.782  0.00  0.00    +0.000 A 
ATOM     20  C   UNL     1       0.609   9.790  18.324  0.00  0.00    +0.000 A 
ATOM     21  C   UNL     1       0.282   9.697  19.675  0.00  0.00    +0.000 A 
ATOM     22  C   UNL     1       0.930   8.768  20.490  0.00  0.00    +0.000 A 
ATOM     23  C   UNL     1       1.909   7.924  19.953  0.00  0.00    +0.000 A 
ENDBRANCH  10  18
BRANCH  13  24
ATOM     24  N   UNL     1       0.712   3.020  19.247  0.00  0.00    +0.000 N 
ATOM     25  O   UNL     1       0.211   2.360  18.326  0.00  0.00    +0.000 OA
ATOM     26  O   UNL     1       0.199   3.175  20.364  0.00  0.00    +0.000 OA
ENDBRANCH  13  24
TORSDOF 2
ENDMDL
MODEL 9
REMARK VINA RESULT:      -6.3      7.351      9.844
REMARK  Name = 
REMARK  3 active torsions:
REMARK  status: ('A' for Active; 'I' for Inactive)
REMARK    1  A    between atoms: C_1  and  N_2
REMARK    2  A    between atoms: C_10  and  C_11
REMARK    3  A    between atoms: C_19  and  N_20
REMARK                            x       y       z     vdW  Elec       q    Type
REMARK                         _______ _______ _______ _____ _____    ______ ____
ROOT
ATOM      1  C   UNL     1       1.663   9.030  17.818  0.00  0.00    +0.000 C 
ATOM      2  N   UNL     1       1.333   9.374  19.176  0.00  0.00    +0.000 N 
ATOM      3  C   UNL     1       0.797  10.599  19.508  0.00  0.00    +0.000 C 
ATOM      4  O   UNL     1       0.640  11.474  18.654  0.00  0.00    +0.000 OA
ATOM      5  N   UNL     1       0.473  10.772  20.871  0.00  0.00    +0.000 N 
ATOM      6  C   UNL     1       0.176   9.671  21.682  0.00  0.00    +0.000 C 
ATOM      7  O   UNL     1       0.263   8.497  21.299  0.00  0.00    +0.000 OA
ATOM      8  C   UNL     1      -0.185   9.948  23.127  0.00  0.00    +0.000 C 
ATOM      9  N   UNL     1      -1.523  10.515  23.179  0.00  0.00    +0.000 NA
ATOM     10  C   UNL     1      -1.707  11.726  22.775  0.00  0.00    +0.000 C 
ATOM     11  C   UNL     1      -0.608  12.594  22.262  0.00  0.00    +0.000 A 
ATOM     12  C   UNL     1      -0.592  13.932  22.716  0.00  0.00    +0.000 A 
ATOM     13  C   UNL     1       0.366  14.829  22.242  0.00  0.00    +0.000 A 
ATOM     14  C   UNL     1       1.340  14.403  21.341  0.00  0.00    +0.000 A 
ATOM     15  C   UNL     1       1.336  13.069  20.912  0.00  0.00    +0.000 A 
ATOM     16  C   UNL     1       0.370  12.134  21.355  0.00  0.00    +0.000 A 
ATOM     17  H   UNL     1       1.075   8.605  19.794  0.00  0.00    +0.000 HD
ENDROOT
BRANCH  10  18
ATOM     18  C   UNL     1      -3.097  12.277  22.895  0.00  0.00    +0.000 A 
ATOM     19  C   UNL     1      -3.673  12.347  24.172  0.00  0.00    +0.000 A 
ATOM     20  C   UNL     1      -4.948  12.887  24.341  0.00  0.00    +0.000 A 
ATOM     21  C   UNL     1      -5.654  13.360  23.237  0.00  0.00    +0.000 A 
ATOM     22  C   UNL     1      -5.094  13.280  21.961  0.00  0.00    +0.000 A 
ATOM     23  C   UNL     1      -3.821  12.728  21.786  0.00  0.00    +0.000 A 
ENDBRANCH  10  18
BRANCH  13  24
ATOM     24  N   UNL     1       0.336  16.231  22.683  0.00  0.00    +0.000 N 
ATOM     25  O   UNL     1       0.092  17.093  21.828  0.00  0.00    +0.000 OA
ATOM     26  O   UNL     1       0.561  16.466  23.879  0.00  0.00    +0.000 OA
ENDBRANCH  13  24
TORSDOF 2
ENDMDL
