MODEL 1
REMARK VINA RESULT:      -7.4      0.000      0.000
REMARK  Name = 
REMARK  9 active torsions:
REMARK  status: ('A' for Active; 'I' for Inactive)
REMARK    1  A    between atoms: O_1  and  C_2
REMARK    2  A    between atoms: C_2  and  C_3
REMARK    3  A    between atoms: C_2  and  C_12
REMARK    4  A    between atoms: C_3  and  O_4
REMARK    5  A    between atoms: O_4  and  C_5
REMARK    6  A    between atoms: C_5  and  C_6
REMARK    7  A    between atoms: C_12  and  N_13
REMARK    8  A    between atoms: C_16  and  C_17
REMARK    9  A    between atoms: C_17  and  N_18
REMARK                            x       y       z     vdW  Elec       q    Type
REMARK                         _______ _______ _______ _____ _____    ______ ____
ROOT
ATOM      1  C   UNL     1       6.752   5.907  18.335  0.00  0.00    +0.000 C 
ENDROOT
BRANCH   1   2
ATOM      2  N   UNL     1       5.463   5.551  17.683  0.00  0.00    +0.000 NA
ATOM      3  C   UNL     1       5.565   4.295  16.925  0.00  0.00    +0.000 C 
ATOM      4  C   UNL     1       4.216   3.880  16.334  0.00  0.00    +0.000 C 
ATOM      5  C   UNL     1       3.144   3.712  17.417  0.00  0.00    +0.000 C 
ATOM      6  C   UNL     1       3.052   5.043  18.177  0.00  0.00    +0.000 C 
ATOM      7  C   UNL     1       4.413   5.499  18.716  0.00  0.00    +0.000 C 
BRANCH   5   8
ATOM      8  C   UNL     1       3.411   2.542  18.387  0.00  0.00    +0.000 C 
BRANCH   8   9
ATOM      9  N   UNL     1       2.671   2.621  19.635  0.00  0.00    +0.000 N 
ATOM     10  C   UNL     1       1.318   2.729  19.782  0.00  0.00    +0.000 A 
ATOM     11  C   UNL     1       1.090   2.830  21.134  0.00  0.00    +0.000 A 
ATOM     12  C   UNL     1       2.369   2.780  21.718  0.00  0.00    +0.000 A 
ATOM     13  N   UNL     1       3.338   2.667  20.807  0.00  0.00    +0.000 NA
ENDBRANCH   8   9
ENDBRANCH   5   8
ENDBRANCH   1   2
BRANCH   1  14
ATOM     14  C   UNL     1       7.751   6.745  17.493  0.00  0.00    +0.000 C 
BRANCH  14  15
ATOM     15  O   UNL     1       7.631   6.429  16.103  0.00  0.00    +0.000 OA
ATOM     16  H   UNL     1       6.751   6.039  15.965  0.00  0.00    +0.000 HD
ENDBRANCH  14  15
BRANCH  14  17
ATOM     17  C   UNL     1       7.482   8.250  17.686  0.00  0.00    +0.000 C 
BRANCH  17  18
ATOM     18  O   UNL     1       8.556   8.961  18.300  0.00  0.00    +0.000 OA
BRANCH  18  19
ATOM     19  C   UNL     1       8.775  10.255  17.737  0.00  0.00    +0.000 C 
BRANCH  19  20
ATOM     20  C   UNL     1       9.732  11.046  18.590  0.00  0.00    +0.000 A 
ATOM     21  C   UNL     1       9.554  11.075  19.982  0.00  0.00    +0.000 A 
ATOM     22  C   UNL     1      10.440  11.778  20.798  0.00  0.00    +0.000 A 
ATOM     23  C   UNL     1      11.521  12.452  20.234  0.00  0.00    +0.000 A 
ATOM     24  C   UNL     1      11.716  12.420  18.854  0.00  0.00    +0.000 A 
ATOM     25  C   UNL     1      10.830  11.715  18.035  0.00  0.00    +0.000 A 
ENDBRANCH  19  20
ENDBRANCH  18  19
ENDBRANCH  17  18
ENDBRANCH  14  17
ENDBRANCH   1  14
TORSDOF 9
ENDMDL
MODEL 2
REMARK VINA RESULT:      -7.3      1.440      2.208
REMARK  Name = 
REMARK  9 active torsions:
REMARK  status: ('A' for Active; 'I' for Inactive)
REMARK    1  A    between atoms: O_1  and  C_2
REMARK    2  A    between atoms: C_2  and  C_3
REMARK    3  A    between atoms: C_2  and  C_12
REMARK    4  A    between atoms: C_3  and  O_4
REMARK    5  A    between atoms: O_4  and  C_5
REMARK    6  A    between atoms: C_5  and  C_6
REMARK    7  A    between atoms: C_12  and  N_13
REMARK    8  A    between atoms: C_16  and  C_17
REMARK    9  A    between atoms: C_17  and  N_18
REMARK                            x       y       z     vdW  Elec       q    Type
REMARK                         _______ _______ _______ _____ _____    ______ ____
ROOT
ATOM      1  C   UNL     1       7.628   5.056  17.547  0.00  0.00    +0.000 C 
ENDROOT
BRANCH   1   2
ATOM      2  N   UNL     1       6.449   4.183  17.305  0.00  0.00    +0.000 NA
ATOM      3  C   UNL     1       5.652   3.993  18.525  0.00  0.00    +0.000 C 
ATOM      4  C   UNL     1       4.388   3.173  18.255  0.00  0.00    +0.000 C 
ATOM      5  C   UNL     1       3.501   3.824  17.187  0.00  0.00    +0.000 C 
ATOM      6  C   UNL     1       4.358   3.992  15.923  0.00  0.00    +0.000 C 
ATOM      7  C   UNL     1       5.658   4.756  16.201  0.00  0.00    +0.000 C 
BRANCH   5   8
ATOM      8  C   UNL     1       2.888   5.173  17.619  0.00  0.00    +0.000 C 
BRANCH   8   9
ATOM      9  N   UNL     1       2.214   5.138  18.905  0.00  0.00    +0.000 N 
ATOM     10  C   UNL     1       2.353   6.029  19.930  0.00  0.00    +0.000 A 
ATOM     11  C   UNL     1       1.569   5.556  20.955  0.00  0.00    +0.000 A 
ATOM     12  C   UNL     1       1.003   4.370  20.454  0.00  0.00    +0.000 A 
ATOM     13  N   UNL     1       1.404   4.102  19.209  0.00  0.00    +0.000 NA
ENDBRANCH   8   9
ENDBRANCH   5   8
ENDBRANCH   1   2
BRANCH   1  14
ATOM     14  C   UNL     1       7.421   6.258  18.506  0.00  0.00    +0.000 C 
BRANCH  14  15
ATOM     15  O   UNL     1       8.251   6.132  19.664  0.00  0.00    +0.000 OA
ATOM     16  H   UNL     1       8.105   5.246  20.034  0.00  0.00    +0.000 HD
ENDBRANCH  14  15
BRANCH  14  17
ATOM     17  C   UNL     1       7.764   7.579  17.789  0.00  0.00    +0.000 C 
BRANCH  17  18
ATOM     18  O   UNL     1       8.506   8.501  18.587  0.00  0.00    +0.000 OA
BRANCH  18  19
ATOM     19  C   UNL     1       8.432   9.846  18.115  0.00  0.00    +0.000 C 
BRANCH  19  20
ATOM     20  C   UNL     1       9.528  10.680  18.729  0.00  0.00    +0.000 A 
ATOM     21  C   UNL     1      10.521  11.230  17.904  0.00  0.00    +0.000 A 
ATOM     22  C   UNL     1      11.532  12.026  18.443  0.00  0.00    +0.000 A 
ATOM     23  C   UNL     1      11.555  12.292  19.810  0.00  0.00    +0.000 A 
ATOM     24  C   UNL     1      10.566  11.761  20.637  0.00  0.00    +0.000 A 
ATOM     25  C   UNL     1       9.553  10.964  20.099  0.00  0.00    +0.000 A 
ENDBRANCH  19  20
ENDBRANCH  18  19
ENDBRANCH  17  18
ENDBRANCH  14  17
ENDBRANCH   1  14
TORSDOF 9
ENDMDL
MODEL 3
REMARK VINA RESULT:      -7.2      4.997      7.555
REMARK  Name = 
REMARK  9 active torsions:
REMARK  status: ('A' for Active; 'I' for Inactive)
REMARK    1  A    between atoms: O_1  and  C_2
REMARK    2  A    between atoms: C_2  and  C_3
REMARK    3  A    between atoms: C_2  and  C_12
REMARK    4  A    between atoms: C_3  and  O_4
REMARK    5  A    between atoms: O_4  and  C_5
REMARK    6  A    between atoms: C_5  and  C_6
REMARK    7  A    between atoms: C_12  and  N_13
REMARK    8  A    between atoms: C_16  and  C_17
REMARK    9  A    between atoms: C_17  and  N_18
REMARK                            x       y       z     vdW  Elec       q    Type
REMARK                         _______ _______ _______ _____ _____    ______ ____
ROOT
ATOM      1  C   UNL     1       3.333   2.674  18.691  0.00  0.00    +0.000 C 
ENDROOT
BRANCH   1   2
ATOM      2  N   UNL     1       4.004   3.974  18.423  0.00  0.00    +0.000 NA
ATOM      3  C   UNL     1       5.358   4.016  18.995  0.00  0.00    +0.000 C 
ATOM      4  C   UNL     1       6.083   5.315  18.639  0.00  0.00    +0.000 C 
ATOM      5  C   UNL     1       6.186   5.516  17.123  0.00  0.00    +0.000 C 
ATOM      6  C   UNL     1       4.757   5.484  16.561  0.00  0.00    +0.000 C 
ATOM      7  C   UNL     1       4.002   4.214  16.969  0.00  0.00    +0.000 C 
BRANCH   5   8
ATOM      8  C   UNL     1       7.081   4.479  16.412  0.00  0.00    +0.000 C 
BRANCH   8   9
ATOM      9  N   UNL     1       7.021   4.534  14.962  0.00  0.00    +0.000 N 
ATOM     10  C   UNL     1       6.186   3.826  14.146  0.00  0.00    +0.000 A 
ATOM     11  C   UNL     1       6.535   4.162  12.860  0.00  0.00    +0.000 A 
ATOM     12  C   UNL     1       7.596   5.075  13.004  0.00  0.00    +0.000 A 
ATOM     13  N   UNL     1       7.907   5.293  14.283  0.00  0.00    +0.000 NA
ENDBRANCH   8   9
ENDBRANCH   5   8
ENDBRANCH   1   2
BRANCH   1  14
ATOM     14  C   UNL     1       2.227   2.670  19.779  0.00  0.00    +0.000 C 
BRANCH  14  15
ATOM     15  O   UNL     1       2.803   2.747  21.086  0.00  0.00    +0.000 OA
ATOM     16  H   UNL     1       2.083   2.933  21.713  0.00  0.00    +0.000 HD
ENDBRANCH  14  15
BRANCH  14  17
ATOM     17  C   UNL     1       1.279   3.869  19.581  0.00  0.00    +0.000 C 
BRANCH  17  18
ATOM     18  O   UNL     1       1.309   4.819  20.646  0.00  0.00    +0.000 OA
BRANCH  18  19
ATOM     19  C   UNL     1       2.445   5.681  20.604  0.00  0.00    +0.000 C 
BRANCH  19  20
ATOM     20  C   UNL     1       2.091   6.988  19.941  0.00  0.00    +0.000 A 
ATOM     21  C   UNL     1       2.429   7.192  18.595  0.00  0.00    +0.000 A 
ATOM     22  C   UNL     1       2.091   8.382  17.949  0.00  0.00    +0.000 A 
ATOM     23  C   UNL     1       1.402   9.377  18.639  0.00  0.00    +0.000 A 
ATOM     24  C   UNL     1       1.050   9.180  19.974  0.00  0.00    +0.000 A 
ATOM     25  C   UNL     1       1.387   7.989  20.621  0.00  0.00    +0.000 A 
ENDBRANCH  19  20
ENDBRANCH  18  19
ENDBRANCH  17  18
ENDBRANCH  14  17
ENDBRANCH   1  14
TORSDOF 9
ENDMDL
MODEL 4
REMARK VINA RESULT:      -7.2      1.182      1.230
REMARK  Name = 
REMARK  9 active torsions:
REMARK  status: ('A' for Active; 'I' for Inactive)
REMARK    1  A    between atoms: O_1  and  C_2
REMARK    2  A    between atoms: C_2  and  C_3
REMARK    3  A    between atoms: C_2  and  C_12
REMARK    4  A    between atoms: C_3  and  O_4
REMARK    5  A    between atoms: O_4  and  C_5
REMARK    6  A    between atoms: C_5  and  C_6
REMARK    7  A    between atoms: C_12  and  N_13
REMARK    8  A    between atoms: C_16  and  C_17
REMARK    9  A    between atoms: C_17  and  N_18
REMARK                            x       y       z     vdW  Elec       q    Type
REMARK                         _______ _______ _______ _____ _____    ______ ____
ROOT
ATOM      1  C   UNL     1       7.438   6.584  17.035  0.00  0.00    +0.000 C 
ENDROOT
BRANCH   1   2
ATOM      2  N   UNL     1       6.164   5.911  16.666  0.00  0.00    +0.000 NA
ATOM      3  C   UNL     1       6.320   4.450  16.601  0.00  0.00    +0.000 C 
ATOM      4  C   UNL     1       4.989   3.751  16.315  0.00  0.00    +0.000 C 
ATOM      5  C   UNL     1       3.928   4.085  17.370  0.00  0.00    +0.000 C 
ATOM      6  C   UNL     1       3.780   5.614  17.399  0.00  0.00    +0.000 C 
ATOM      7  C   UNL     1       5.120   6.323  17.621  0.00  0.00    +0.000 C 
BRANCH   5   8
ATOM      8  C   UNL     1       4.249   3.537  18.777  0.00  0.00    +0.000 C 
BRANCH   8   9
ATOM      9  N   UNL     1       3.097   3.435  19.655  0.00  0.00    +0.000 N 
ATOM     10  C   UNL     1       2.155   2.446  19.665  0.00  0.00    +0.000 A 
ATOM     11  C   UNL     1       1.234   2.806  20.620  0.00  0.00    +0.000 A 
ATOM     12  C   UNL     1       1.704   4.032  21.126  0.00  0.00    +0.000 A 
ATOM     13  N   UNL     1       2.832   4.428  20.531  0.00  0.00    +0.000 NA
ENDBRANCH   8   9
ENDBRANCH   5   8
ENDBRANCH   1   2
BRANCH   1  14
ATOM     14  C   UNL     1       7.649   6.901  18.539  0.00  0.00    +0.000 C 
BRANCH  14  15
ATOM     15  O   UNL     1       8.275   5.800  19.206  0.00  0.00    +0.000 OA
ATOM     16  H   UNL     1       7.608   5.100  19.306  0.00  0.00    +0.000 HD
ENDBRANCH  14  15
BRANCH  14  17
ATOM     17  C   UNL     1       8.536   8.151  18.703  0.00  0.00    +0.000 C 
BRANCH  17  18
ATOM     18  O   UNL     1       8.397   9.108  17.654  0.00  0.00    +0.000 OA
BRANCH  18  19
ATOM     19  C   UNL     1       8.187  10.439  18.125  0.00  0.00    +0.000 C 
BRANCH  19  20
ATOM     20  C   UNL     1       9.475  11.019  18.653  0.00  0.00    +0.000 A 
ATOM     21  C   UNL     1       9.608  11.266  20.028  0.00  0.00    +0.000 A 
ATOM     22  C   UNL     1      10.797  11.779  20.547  0.00  0.00    +0.000 A 
ATOM     23  C   UNL     1      11.871  12.040  19.699  0.00  0.00    +0.000 A 
ATOM     24  C   UNL     1      11.755  11.787  18.333  0.00  0.00    +0.000 A 
ATOM     25  C   UNL     1      10.565  11.273  17.812  0.00  0.00    +0.000 A 
ENDBRANCH  19  20
ENDBRANCH  18  19
ENDBRANCH  17  18
ENDBRANCH  14  17
ENDBRANCH   1  14
TORSDOF 9
ENDMDL
MODEL 5
REMARK VINA RESULT:      -7.1      1.451      1.912
REMARK  Name = 
REMARK  9 active torsions:
REMARK  status: ('A' for Active; 'I' for Inactive)
REMARK    1  A    between atoms: O_1  and  C_2
REMARK    2  A    between atoms: C_2  and  C_3
REMARK    3  A    between atoms: C_2  and  C_12
REMARK    4  A    between atoms: C_3  and  O_4
REMARK    5  A    between atoms: O_4  and  C_5
REMARK    6  A    between atoms: C_5  and  C_6
REMARK    7  A    between atoms: C_12  and  N_13
REMARK    8  A    between atoms: C_16  and  C_17
REMARK    9  A    between atoms: C_17  and  N_18
REMARK                            x       y       z     vdW  Elec       q    Type
REMARK                         _______ _______ _______ _____ _____    ______ ____
ROOT
ATOM      1  C   UNL     1       7.509   6.855  16.824  0.00  0.00    +0.000 C 
ENDROOT
BRANCH   1   2
ATOM      2  N   UNL     1       6.225   6.167  16.524  0.00  0.00    +0.000 NA
ATOM      3  C   UNL     1       6.382   4.705  16.503  0.00  0.00    +0.000 C 
ATOM      4  C   UNL     1       5.044   3.995  16.289  0.00  0.00    +0.000 C 
ATOM      5  C   UNL     1       4.021   4.362  17.370  0.00  0.00    +0.000 C 
ATOM      6  C   UNL     1       3.869   5.891  17.352  0.00  0.00    +0.000 C 
ATOM      7  C   UNL     1       5.215   6.610  17.501  0.00  0.00    +0.000 C 
BRANCH   5   8
ATOM      8  C   UNL     1       4.394   3.863  18.782  0.00  0.00    +0.000 C 
BRANCH   8   9
ATOM      9  N   UNL     1       3.254   3.595  19.640  0.00  0.00    +0.000 N 
ATOM     10  C   UNL     1       2.444   2.496  19.611  0.00  0.00    +0.000 A 
ATOM     11  C   UNL     1       1.474   2.713  20.562  0.00  0.00    +0.000 A 
ATOM     12  C   UNL     1       1.781   3.973  21.105  0.00  0.00    +0.000 A 
ATOM     13  N   UNL     1       2.857   4.523  20.536  0.00  0.00    +0.000 NA
ENDBRANCH   8   9
ENDBRANCH   5   8
ENDBRANCH   1   2
BRANCH   1  14
ATOM     14  C   UNL     1       7.599   7.604  18.180  0.00  0.00    +0.000 C 
BRANCH  14  15
ATOM     15  O   UNL     1       8.479   6.921  19.078  0.00  0.00    +0.000 OA
ATOM     16  H   UNL     1       9.363   6.913  18.674  0.00  0.00    +0.000 HD
ENDBRANCH  14  15
BRANCH  14  17
ATOM     17  C   UNL     1       8.123   9.038  17.966  0.00  0.00    +0.000 C 
BRANCH  17  18
ATOM     18  O   UNL     1       9.255   9.372  18.766  0.00  0.00    +0.000 OA
BRANCH  18  19
ATOM     19  C   UNL     1       9.095  10.589  19.495  0.00  0.00    +0.000 C 
BRANCH  19  20
ATOM     20  C   UNL     1       9.695  11.742  18.732  0.00  0.00    +0.000 A 
ATOM     21  C   UNL     1      10.829  11.527  17.934  0.00  0.00    +0.000 A 
ATOM     22  C   UNL     1      11.389  12.570  17.197  0.00  0.00    +0.000 A 
ATOM     23  C   UNL     1      10.816  13.839  17.240  0.00  0.00    +0.000 A 
ATOM     24  C   UNL     1       9.681  14.062  18.019  0.00  0.00    +0.000 A 
ATOM     25  C   UNL     1       9.119  13.018  18.757  0.00  0.00    +0.000 A 
ENDBRANCH  19  20
ENDBRANCH  18  19
ENDBRANCH  17  18
ENDBRANCH  14  17
ENDBRANCH   1  14
TORSDOF 9
ENDMDL
MODEL 6
REMARK VINA RESULT:      -7.1      4.559      7.907
REMARK  Name = 
REMARK  9 active torsions:
REMARK  status: ('A' for Active; 'I' for Inactive)
REMARK    1  A    between atoms: O_1  and  C_2
REMARK    2  A    between atoms: C_2  and  C_3
REMARK    3  A    between atoms: C_2  and  C_12
REMARK    4  A    between atoms: C_3  and  O_4
REMARK    5  A    between atoms: O_4  and  C_5
REMARK    6  A    between atoms: C_5  and  C_6
REMARK    7  A    between atoms: C_12  and  N_13
REMARK    8  A    between atoms: C_16  and  C_17
REMARK    9  A    between atoms: C_17  and  N_18
REMARK                            x       y       z     vdW  Elec       q    Type
REMARK                         _______ _______ _______ _____ _____    ______ ____
ROOT
ATOM      1  C   UNL     1       4.662   3.462  19.512  0.00  0.00    +0.000 C 
ENDROOT
BRANCH   1   2
ATOM      2  N   UNL     1       4.859   4.663  18.658  0.00  0.00    +0.000 NA
ATOM      3  C   UNL     1       6.223   5.201  18.782  0.00  0.00    +0.000 C 
ATOM      4  C   UNL     1       6.455   6.378  17.833  0.00  0.00    +0.000 C 
ATOM      5  C   UNL     1       6.212   5.991  16.369  0.00  0.00    +0.000 C 
ATOM      6  C   UNL     1       4.777   5.451  16.273  0.00  0.00    +0.000 C 
ATOM      7  C   UNL     1       4.518   4.314  17.267  0.00  0.00    +0.000 C 
BRANCH   5   8
ATOM      8  C   UNL     1       7.224   4.966  15.816  0.00  0.00    +0.000 C 
BRANCH   8   9
ATOM      9  N   UNL     1       7.177   4.800  14.374  0.00  0.00    +0.000 N 
ATOM     10  C   UNL     1       6.467   3.865  13.676  0.00  0.00    +0.000 A 
ATOM     11  C   UNL     1       6.780   4.059  12.352  0.00  0.00    +0.000 A 
ATOM     12  C   UNL     1       7.692   5.130  12.353  0.00  0.00    +0.000 A 
ATOM     13  N   UNL     1       7.949   5.576  13.584  0.00  0.00    +0.000 NA
ENDBRANCH   8   9
ENDBRANCH   5   8
ENDBRANCH   1   2
BRANCH   1  14
ATOM     14  C   UNL     1       3.806   2.314  18.913  0.00  0.00    +0.000 C 
BRANCH  14  15
ATOM     15  O   UNL     1       4.505   1.068  18.991  0.00  0.00    +0.000 OA
ATOM     16  H   UNL     1       3.887   0.406  19.346  0.00  0.00    +0.000 HD
ENDBRANCH  14  15
BRANCH  14  17
ATOM     17  C   UNL     1       2.474   2.185  19.678  0.00  0.00    +0.000 C 
BRANCH  17  18
ATOM     18  O   UNL     1       2.275   3.183  20.677  0.00  0.00    +0.000 OA
BRANCH  18  19
ATOM     19  C   UNL     1       1.112   3.981  20.458  0.00  0.00    +0.000 C 
BRANCH  19  20
ATOM     20  C   UNL     1       1.498   5.350  19.960  0.00  0.00    +0.000 A 
ATOM     21  C   UNL     1       1.693   5.555  18.585  0.00  0.00    +0.000 A 
ATOM     22  C   UNL     1       2.026   6.817  18.094  0.00  0.00    +0.000 A 
ATOM     23  C   UNL     1       2.158   7.893  18.970  0.00  0.00    +0.000 A 
ATOM     24  C   UNL     1       1.955   7.704  20.336  0.00  0.00    +0.000 A 
ATOM     25  C   UNL     1       1.620   6.440  20.830  0.00  0.00    +0.000 A 
ENDBRANCH  19  20
ENDBRANCH  18  19
ENDBRANCH  17  18
ENDBRANCH  14  17
ENDBRANCH   1  14
TORSDOF 9
ENDMDL
MODEL 7
REMARK VINA RESULT:      -7.1      1.216      1.547
REMARK  Name = 
REMARK  9 active torsions:
REMARK  status: ('A' for Active; 'I' for Inactive)
REMARK    1  A    between atoms: O_1  and  C_2
REMARK    2  A    between atoms: C_2  and  C_3
REMARK    3  A    between atoms: C_2  and  C_12
REMARK    4  A    between atoms: C_3  and  O_4
REMARK    5  A    between atoms: O_4  and  C_5
REMARK    6  A    between atoms: C_5  and  C_6
REMARK    7  A    between atoms: C_12  and  N_13
REMARK    8  A    between atoms: C_16  and  C_17
REMARK    9  A    between atoms: C_17  and  N_18
REMARK                            x       y       z     vdW  Elec       q    Type
REMARK                         _______ _______ _______ _____ _____    ______ ____
ROOT
ATOM      1  C   UNL     1       7.436   6.237  17.006  0.00  0.00    +0.000 C 
ENDROOT
BRANCH   1   2
ATOM      2  N   UNL     1       6.071   5.767  16.651  0.00  0.00    +0.000 NA
ATOM      3  C   UNL     1       6.045   4.321  16.386  0.00  0.00    +0.000 C 
ATOM      4  C   UNL     1       4.624   3.820  16.114  0.00  0.00    +0.000 C 
ATOM      5  C   UNL     1       3.678   4.122  17.282  0.00  0.00    +0.000 C 
ATOM      6  C   UNL     1       3.716   5.639  17.519  0.00  0.00    +0.000 C 
ATOM      7  C   UNL     1       5.144   6.158  17.728  0.00  0.00    +0.000 C 
BRANCH   5   8
ATOM      8  C   UNL     1       4.015   3.353  18.577  0.00  0.00    +0.000 C 
BRANCH   8   9
ATOM      9  N   UNL     1       2.913   3.256  19.517  0.00  0.00    +0.000 N 
ATOM     10  C   UNL     1       1.617   2.930  19.234  0.00  0.00    +0.000 A 
ATOM     11  C   UNL     1       0.932   3.023  20.422  0.00  0.00    +0.000 A 
ATOM     12  C   UNL     1       1.900   3.418  21.363  0.00  0.00    +0.000 A 
ATOM     13  N   UNL     1       3.107   3.576  20.814  0.00  0.00    +0.000 NA
ENDBRANCH   8   9
ENDBRANCH   5   8
ENDBRANCH   1   2
BRANCH   1  14
ATOM     14  C   UNL     1       7.542   7.260  18.168  0.00  0.00    +0.000 C 
BRANCH  14  15
ATOM     15  O   UNL     1       8.510   6.834  19.131  0.00  0.00    +0.000 OA
ATOM     16  H   UNL     1       8.147   6.056  19.587  0.00  0.00    +0.000 HD
ENDBRANCH  14  15
BRANCH  14  17
ATOM     17  C   UNL     1       7.954   8.644  17.627  0.00  0.00    +0.000 C 
BRANCH  17  18
ATOM     18  O   UNL     1       8.456   9.534  18.623  0.00  0.00    +0.000 OA
BRANCH  18  19
ATOM     19  C   UNL     1       9.382  10.492  18.111  0.00  0.00    +0.000 C 
BRANCH  19  20
ATOM     20  C   UNL     1       9.683  11.541  19.151  0.00  0.00    +0.000 A 
ATOM     21  C   UNL     1      10.021  12.841  18.743  0.00  0.00    +0.000 A 
ATOM     22  C   UNL     1      10.280  13.837  19.683  0.00  0.00    +0.000 A 
ATOM     23  C   UNL     1      10.192  13.550  21.044  0.00  0.00    +0.000 A 
ATOM     24  C   UNL     1       9.845  12.266  21.461  0.00  0.00    +0.000 A 
ATOM     25  C   UNL     1       9.585  11.267  20.520  0.00  0.00    +0.000 A 
ENDBRANCH  19  20
ENDBRANCH  18  19
ENDBRANCH  17  18
ENDBRANCH  14  17
ENDBRANCH   1  14
TORSDOF 9
ENDMDL
MODEL 8
REMARK VINA RESULT:      -7.0      1.056      1.139
REMARK  Name = 
REMARK  9 active torsions:
REMARK  status: ('A' for Active; 'I' for Inactive)
REMARK    1  A    between atoms: O_1  and  C_2
REMARK    2  A    between atoms: C_2  and  C_3
REMARK    3  A    between atoms: C_2  and  C_12
REMARK    4  A    between atoms: C_3  and  O_4
REMARK    5  A    between atoms: O_4  and  C_5
REMARK    6  A    between atoms: C_5  and  C_6
REMARK    7  A    between atoms: C_12  and  N_13
REMARK    8  A    between atoms: C_16  and  C_17
REMARK    9  A    between atoms: C_17  and  N_18
REMARK                            x       y       z     vdW  Elec       q    Type
REMARK                         _______ _______ _______ _____ _____    ______ ____
ROOT
ATOM      1  C   UNL     1       7.089   5.043  17.921  0.00  0.00    +0.000 C 
ENDROOT
BRANCH   1   2
ATOM      2  N   UNL     1       5.720   4.966  17.345  0.00  0.00    +0.000 NA
ATOM      3  C   UNL     1       5.531   3.741  16.553  0.00  0.00    +0.000 C 
ATOM      4  C   UNL     1       4.095   3.615  16.040  0.00  0.00    +0.000 C 
ATOM      5  C   UNL     1       3.075   3.620  17.185  0.00  0.00    +0.000 C 
ATOM      6  C   UNL     1       3.289   4.917  17.979  0.00  0.00    +0.000 C 
ATOM      7  C   UNL     1       4.741   5.082  18.441  0.00  0.00    +0.000 C 
BRANCH   5   8
ATOM      8  C   UNL     1       3.165   2.387  18.109  0.00  0.00    +0.000 C 
BRANCH   8   9
ATOM      9  N   UNL     1       2.545   2.570  19.410  0.00  0.00    +0.000 N 
ATOM     10  C   UNL     1       1.219   2.766  19.668  0.00  0.00    +0.000 A 
ATOM     11  C   UNL     1       1.118   2.946  21.027  0.00  0.00    +0.000 A 
ATOM     12  C   UNL     1       2.439   2.848  21.500  0.00  0.00    +0.000 A 
ATOM     13  N   UNL     1       3.315   2.634  20.516  0.00  0.00    +0.000 NA
ENDBRANCH   8   9
ENDBRANCH   5   8
ENDBRANCH   1   2
BRANCH   1  14
ATOM     14  C   UNL     1       7.419   6.300  18.768  0.00  0.00    +0.000 C 
BRANCH  14  15
ATOM     15  O   UNL     1       8.572   6.072  19.585  0.00  0.00    +0.000 OA
ATOM     16  H   UNL     1       8.459   5.208  20.017  0.00  0.00    +0.000 HD
ENDBRANCH  14  15
BRANCH  14  17
ATOM     17  C   UNL     1       7.691   7.508  17.851  0.00  0.00    +0.000 C 
BRANCH  17  18
ATOM     18  O   UNL     1       8.470   8.539  18.457  0.00  0.00    +0.000 OA
BRANCH  18  19
ATOM     19  C   UNL     1       8.475   9.758  17.714  0.00  0.00    +0.000 C 
BRANCH  19  20
ATOM     20  C   UNL     1       9.011  10.886  18.557  0.00  0.00    +0.000 A 
ATOM     21  C   UNL     1       9.509  10.614  19.840  0.00  0.00    +0.000 A 
ATOM     22  C   UNL     1      10.033  11.635  20.632  0.00  0.00    +0.000 A 
ATOM     23  C   UNL     1      10.078  12.940  20.146  0.00  0.00    +0.000 A 
ATOM     24  C   UNL     1       9.598  13.221  18.868  0.00  0.00    +0.000 A 
ATOM     25  C   UNL     1       9.072  12.199  18.073  0.00  0.00    +0.000 A 
ENDBRANCH  19  20
ENDBRANCH  18  19
ENDBRANCH  17  18
ENDBRANCH  14  17
ENDBRANCH   1  14
TORSDOF 9
ENDMDL
MODEL 9
REMARK VINA RESULT:      -6.9      4.848      7.606
REMARK  Name = 
REMARK  9 active torsions:
REMARK  status: ('A' for Active; 'I' for Inactive)
REMARK    1  A    between atoms: O_1  and  C_2
REMARK    2  A    between atoms: C_2  and  C_3
REMARK    3  A    between atoms: C_2  and  C_12
REMARK    4  A    between atoms: C_3  and  O_4
REMARK    5  A    between atoms: O_4  and  C_5
REMARK    6  A    between atoms: C_5  and  C_6
REMARK    7  A    between atoms: C_12  and  N_13
REMARK    8  A    between atoms: C_16  and  C_17
REMARK    9  A    between atoms: C_17  and  N_18
REMARK                            x       y       z     vdW  Elec       q    Type
REMARK                         _______ _______ _______ _____ _____    ______ ____
ROOT
ATOM      1  C   UNL     1       4.275   2.700  19.008  0.00  0.00    +0.000 C 
ENDROOT
BRANCH   1   2
ATOM      2  N   UNL     1       4.523   4.036  18.405  0.00  0.00    +0.000 NA
ATOM      3  C   UNL     1       5.833   4.576  18.798  0.00  0.00    +0.000 C 
ATOM      4  C   UNL     1       6.129   5.907  18.102  0.00  0.00    +0.000 C 
ATOM      5  C   UNL     1       6.092   5.775  16.575  0.00  0.00    +0.000 C 
ATOM      6  C   UNL     1       4.707   5.226  16.199  0.00  0.00    +0.000 C 
ATOM      7  C   UNL     1       4.377   3.927  16.942  0.00  0.00    +0.000 C 
BRANCH   5   8
ATOM      8  C   UNL     1       7.212   4.887  15.994  0.00  0.00    +0.000 C 
BRANCH   8   9
ATOM      9  N   UNL     1       7.178   4.752  14.549  0.00  0.00    +0.000 N 
ATOM     10  C   UNL     1       6.471   3.835  13.825  0.00  0.00    +0.000 A 
ATOM     11  C   UNL     1       6.798   4.056  12.508  0.00  0.00    +0.000 A 
ATOM     12  C   UNL     1       7.713   5.124  12.540  0.00  0.00    +0.000 A 
ATOM     13  N   UNL     1       7.961   5.542  13.784  0.00  0.00    +0.000 NA
ENDBRANCH   8   9
ENDBRANCH   5   8
ENDBRANCH   1   2
BRANCH   1  14
ATOM     14  C   UNL     1       2.941   2.520  19.780  0.00  0.00    +0.000 C 
BRANCH  14  15
ATOM     15  O   UNL     1       3.143   2.688  21.187  0.00  0.00    +0.000 OA
ATOM     16  H   UNL     1       4.082   2.517  21.370  0.00  0.00    +0.000 HD
ENDBRANCH  14  15
BRANCH  14  17
ATOM     17  C   UNL     1       1.902   3.552  19.300  0.00  0.00    +0.000 C 
BRANCH  17  18
ATOM     18  O   UNL     1       1.401   4.400  20.333  0.00  0.00    +0.000 OA
BRANCH  18  19
ATOM     19  C   UNL     1       2.332   5.400  20.746  0.00  0.00    +0.000 C 
BRANCH  19  20
ATOM     20  C   UNL     1       2.035   6.710  20.062  0.00  0.00    +0.000 A 
ATOM     21  C   UNL     1       1.408   7.739  20.782  0.00  0.00    +0.000 A 
ATOM     22  C   UNL     1       1.144   8.969  20.182  0.00  0.00    +0.000 A 
ATOM     23  C   UNL     1       1.514   9.191  18.857  0.00  0.00    +0.000 A 
ATOM     24  C   UNL     1       2.148   8.182  18.135  0.00  0.00    +0.000 A 
ATOM     25  C   UNL     1       2.414   6.948  18.735  0.00  0.00    +0.000 A 
ENDBRANCH  19  20
ENDBRANCH  18  19
ENDBRANCH  17  18
ENDBRANCH  14  17
ENDBRANCH   1  14
TORSDOF 9
ENDMDL
