MODEL 1
REMARK VINA RESULT:      -8.6      0.000      0.000
REMARK  Name = 
REMARK  11 active torsions:
REMARK  status: ('A' for Active; 'I' for Inactive)
REMARK    1  A    between atoms: C_1  and  C_2
REMARK    2  A    between atoms: C_2  and  C_3
REMARK    3  A    between atoms: C_3  and  C_4
REMARK    4  A    between atoms: C_6  and  C_7
REMARK    5  A    between atoms: C_15  and  O_16
REMARK    6  A    between atoms: O_16  and  C_17
REMARK    7  A    between atoms: C_17  and  C_18
REMARK    8  A    between atoms: C_18  and  C_19
REMARK    9  A    between atoms: C_19  and  O_20
REMARK   10  A    between atoms: O_20  and  C_21
REMARK   11  A    between atoms: C_25  and  C_26
REMARK                            x       y       z     vdW  Elec       q    Type
REMARK                         _______ _______ _______ _____ _____    ______ ____
ROOT
ATOM      1  C   UNL     1       7.507   8.216  17.459  0.00  0.00    +0.000 C 
ENDROOT
BRANCH   1   2
ATOM      2  O   UNL     1       7.737   6.999  16.771  0.00  0.00    +0.000 OA
BRANCH   2   8
ATOM      3  C   UNL     1       6.405   5.034  15.936  0.00  0.00    +0.000 A 
ATOM      4  C   UNL     1       5.336   4.177  16.283  0.00  0.00    +0.000 A 
ATOM      5  C   UNL     1       4.578   4.329  17.451  0.00  0.00    +0.000 A 
ATOM      6  C   UNL     1       4.942   5.335  18.342  0.00  0.00    +0.000 A 
ATOM      7  C   UNL     1       6.020   6.171  18.043  0.00  0.00    +0.000 A 
ATOM      8  C   UNL     1       6.761   6.038  16.855  0.00  0.00    +0.000 A 
BRANCH   5   9
ATOM      9  C   UNL     1       3.353   3.469  17.694  0.00  0.00    +0.000 C 
ATOM     10  C   UNL     1       2.114   4.315  18.029  0.00  0.00    +0.000 C 
ATOM     11  C   UNL     1       0.945   3.431  18.433  0.00  0.00    +0.000 C 
ATOM     12  O   UNL     1       1.308   2.566  19.508  0.00  0.00    +0.000 OA
ATOM     13  C   UNL     1       2.354   1.667  19.143  0.00  0.00    +0.000 C 
ATOM     14  C   UNL     1       3.622   2.434  18.800  0.00  0.00    +0.000 C 
ENDBRANCH   5   9
BRANCH   3  15
ATOM     15  C   UNL     1       6.970   4.790  14.549  0.00  0.00    +0.000 C 
BRANCH  15  17
ATOM     16  C   UNL     1       6.662   3.707  12.275  0.00  0.00    +0.000 C 
ATOM     17  C   UNL     1       6.120   3.841  13.690  0.00  0.00    +0.000 C 
ENDBRANCH  15  17
ENDBRANCH   3  15
ENDBRANCH   2   8
ENDBRANCH   1   2
BRANCH   1  18
ATOM     18  C   UNL     1       8.664   8.578  18.377  0.00  0.00    +0.000 C 
BRANCH  18  19
ATOM     19  C   UNL     1       8.853  10.089  18.292  0.00  0.00    +0.000 C 
BRANCH  19  20
ATOM     20  O   UNL     1      10.066  10.470  18.931  0.00  0.00    +0.000 OA
BRANCH  20  21
ATOM     21  C   UNL     1      10.237  11.815  19.126  0.00  0.00    +0.000 A 
ATOM     22  C   UNL     1      10.411  12.195  20.454  0.00  0.00    +0.000 A 
ATOM     23  C   UNL     1      10.564  13.536  20.791  0.00  0.00    +0.000 A 
ATOM     24  C   UNL     1      10.542  14.516  19.795  0.00  0.00    +0.000 A 
ATOM     25  C   UNL     1      10.382  14.162  18.450  0.00  0.00    +0.000 A 
ATOM     26  C   UNL     1      10.232  12.799  18.131  0.00  0.00    +0.000 A 
BRANCH  25  27
ATOM     27  C   UNL     1      10.316  15.239  17.382  0.00  0.00    +0.000 C 
ATOM     28  O   UNL     1      11.579  15.914  17.225  0.00  0.00    +0.000 OA
ATOM     29  C   UNL     1      11.418  17.234  17.504  0.00  0.00    +0.000 C 
ATOM     30  O   UNL     1      12.332  18.042  17.535  0.00  0.00    +0.000 OA
ATOM     31  N   UNL     1      10.127  17.509  17.737  0.00  0.00    +0.000 N 
ATOM     32  C   UNL     1       9.386  16.385  17.696  0.00  0.00    +0.000 C 
ATOM     33  O   UNL     1       8.177  16.333  17.876  0.00  0.00    +0.000 OA
ATOM     34  H   UNL     1       9.777  18.426  17.952  0.00  0.00    +0.000 HD
ENDBRANCH  25  27
ENDBRANCH  20  21
ENDBRANCH  19  20
ENDBRANCH  18  19
ENDBRANCH   1  18
TORSDOF 10
ENDMDL
MODEL 2
REMARK VINA RESULT:      -8.3      2.001      2.641
REMARK  Name = 
REMARK  11 active torsions:
REMARK  status: ('A' for Active; 'I' for Inactive)
REMARK    1  A    between atoms: C_1  and  C_2
REMARK    2  A    between atoms: C_2  and  C_3
REMARK    3  A    between atoms: C_3  and  C_4
REMARK    4  A    between atoms: C_6  and  C_7
REMARK    5  A    between atoms: C_15  and  O_16
REMARK    6  A    between atoms: O_16  and  C_17
REMARK    7  A    between atoms: C_17  and  C_18
REMARK    8  A    between atoms: C_18  and  C_19
REMARK    9  A    between atoms: C_19  and  O_20
REMARK   10  A    between atoms: O_20  and  C_21
REMARK   11  A    between atoms: C_25  and  C_26
REMARK                            x       y       z     vdW  Elec       q    Type
REMARK                         _______ _______ _______ _____ _____    ______ ____
ROOT
ATOM      1  C   UNL     1       7.990   7.708  17.888  0.00  0.00    +0.000 C 
ENDROOT
BRANCH   1   2
ATOM      2  O   UNL     1       7.568   7.046  16.708  0.00  0.00    +0.000 OA
BRANCH   2   8
ATOM      3  C   UNL     1       6.126   5.124  15.959  0.00  0.00    +0.000 A 
ATOM      4  C   UNL     1       4.995   4.362  16.330  0.00  0.00    +0.000 A 
ATOM      5  C   UNL     1       4.224   4.637  17.467  0.00  0.00    +0.000 A 
ATOM      6  C   UNL     1       4.635   5.669  18.304  0.00  0.00    +0.000 A 
ATOM      7  C   UNL     1       5.773   6.413  17.983  0.00  0.00    +0.000 A 
ATOM      8  C   UNL     1       6.528   6.158  16.825  0.00  0.00    +0.000 A 
BRANCH   5   9
ATOM      9  C   UNL     1       2.939   3.876  17.730  0.00  0.00    +0.000 C 
ATOM     10  C   UNL     1       2.144   4.476  18.900  0.00  0.00    +0.000 C 
ATOM     11  C   UNL     1       0.951   3.603  19.254  0.00  0.00    +0.000 C 
ATOM     12  O   UNL     1       1.363   2.263  19.520  0.00  0.00    +0.000 OA
ATOM     13  C   UNL     1       1.958   1.648  18.378  0.00  0.00    +0.000 C 
ATOM     14  C   UNL     1       3.226   2.384  17.975  0.00  0.00    +0.000 C 
ENDBRANCH   5   9
BRANCH   3  15
ATOM     15  C   UNL     1       6.703   4.758  14.605  0.00  0.00    +0.000 C 
BRANCH  15  17
ATOM     16  C   UNL     1       6.393   3.529  12.407  0.00  0.00    +0.000 C 
ATOM     17  C   UNL     1       5.759   3.912  13.736  0.00  0.00    +0.000 C 
ENDBRANCH  15  17
ENDBRANCH   3  15
ENDBRANCH   2   8
ENDBRANCH   1   2
BRANCH   1  18
ATOM     18  C   UNL     1       8.116   9.209  17.685  0.00  0.00    +0.000 C 
BRANCH  18  19
ATOM     19  C   UNL     1       8.763   9.782  18.941  0.00  0.00    +0.000 C 
BRANCH  19  20
ATOM     20  O   UNL     1      10.009  10.391  18.619  0.00  0.00    +0.000 OA
BRANCH  20  21
ATOM     21  C   UNL     1       9.977  11.747  18.434  0.00  0.00    +0.000 A 
ATOM     22  C   UNL     1      10.826  12.219  17.436  0.00  0.00    +0.000 A 
ATOM     23  C   UNL     1      10.912  13.582  17.169  0.00  0.00    +0.000 A 
ATOM     24  C   UNL     1      10.144  14.491  17.902  0.00  0.00    +0.000 A 
ATOM     25  C   UNL     1       9.272  14.042  18.902  0.00  0.00    +0.000 A 
ATOM     26  C   UNL     1       9.199  12.659  19.154  0.00  0.00    +0.000 A 
BRANCH  25  27
ATOM     27  C   UNL     1       8.476  15.042  19.722  0.00  0.00    +0.000 C 
ATOM     28  O   UNL     1       8.344  14.624  21.094  0.00  0.00    +0.000 OA
ATOM     29  C   UNL     1       7.027  14.466  21.390  0.00  0.00    +0.000 C 
ATOM     30  O   UNL     1       6.613  14.040  22.455  0.00  0.00    +0.000 OA
ATOM     31  N   UNL     1       6.268  14.843  20.353  0.00  0.00    +0.000 N 
ATOM     32  C   UNL     1       7.034  15.197  19.304  0.00  0.00    +0.000 C 
ATOM     33  O   UNL     1       6.611  15.579  18.221  0.00  0.00    +0.000 OA
ATOM     34  H   UNL     1       5.263  14.822  20.355  0.00  0.00    +0.000 HD
ENDBRANCH  25  27
ENDBRANCH  20  21
ENDBRANCH  19  20
ENDBRANCH  18  19
ENDBRANCH   1  18
TORSDOF 10
ENDMDL
MODEL 3
REMARK VINA RESULT:      -8.2      7.063     10.911
REMARK  Name = 
REMARK  11 active torsions:
REMARK  status: ('A' for Active; 'I' for Inactive)
REMARK    1  A    between atoms: C_1  and  C_2
REMARK    2  A    between atoms: C_2  and  C_3
REMARK    3  A    between atoms: C_3  and  C_4
REMARK    4  A    between atoms: C_6  and  C_7
REMARK    5  A    between atoms: C_15  and  O_16
REMARK    6  A    between atoms: O_16  and  C_17
REMARK    7  A    between atoms: C_17  and  C_18
REMARK    8  A    between atoms: C_18  and  C_19
REMARK    9  A    between atoms: C_19  and  O_20
REMARK   10  A    between atoms: O_20  and  C_21
REMARK   11  A    between atoms: C_25  and  C_26
REMARK                            x       y       z     vdW  Elec       q    Type
REMARK                         _______ _______ _______ _____ _____    ______ ____
ROOT
ATOM      1  C   UNL     1       1.847   9.858  17.907  0.00  0.00    +0.000 C 
ENDROOT
BRANCH   1   2
ATOM      2  O   UNL     1       1.206   9.997  19.163  0.00  0.00    +0.000 OA
BRANCH   2   8
ATOM      3  C   UNL     1      -0.694  11.355  20.100  0.00  0.00    +0.000 A 
ATOM      4  C   UNL     1      -2.035  11.727  19.850  0.00  0.00    +0.000 A 
ATOM      5  C   UNL     1      -2.778  11.238  18.767  0.00  0.00    +0.000 A 
ATOM      6  C   UNL     1      -2.139  10.399  17.860  0.00  0.00    +0.000 A 
ATOM      7  C   UNL     1      -0.802  10.047  18.060  0.00  0.00    +0.000 A 
ATOM      8  C   UNL     1      -0.066  10.513  19.165  0.00  0.00    +0.000 A 
BRANCH   5   9
ATOM      9  C   UNL     1      -4.254  11.558  18.637  0.00  0.00    +0.000 C 
ATOM     10  C   UNL     1      -4.643  11.900  17.190  0.00  0.00    +0.000 C 
ATOM     11  C   UNL     1      -6.083  12.380  17.112  0.00  0.00    +0.000 C 
ATOM     12  O   UNL     1      -6.302  13.478  17.997  0.00  0.00    +0.000 OA
ATOM     13  C   UNL     1      -6.097  13.115  19.361  0.00  0.00    +0.000 C 
ATOM     14  C   UNL     1      -4.653  12.697  19.592  0.00  0.00    +0.000 C 
ENDBRANCH   5   9
BRANCH   3  15
ATOM     15  C   UNL     1      -0.145  11.867  21.418  0.00  0.00    +0.000 C 
BRANCH  15  17
ATOM     16  C   UNL     1      -0.625  10.002  23.070  0.00  0.00    +0.000 C 
ATOM     17  C   UNL     1      -0.959  11.424  22.644  0.00  0.00    +0.000 C 
ENDBRANCH  15  17
ENDBRANCH   3  15
ENDBRANCH   2   8
ENDBRANCH   1   2
BRANCH   1  18
ATOM     18  C   UNL     1       2.454   8.476  17.728  0.00  0.00    +0.000 C 
BRANCH  18  19
ATOM     19  C   UNL     1       2.325   7.748  19.062  0.00  0.00    +0.000 C 
BRANCH  19  20
ATOM     20  O   UNL     1       1.949   6.392  18.848  0.00  0.00    +0.000 OA
BRANCH  20  21
ATOM     21  C   UNL     1       2.965   5.476  18.923  0.00  0.00    +0.000 A 
ATOM     22  C   UNL     1       2.641   4.300  19.594  0.00  0.00    +0.000 A 
ATOM     23  C   UNL     1       3.594   3.300  19.767  0.00  0.00    +0.000 A 
ATOM     24  C   UNL     1       4.888   3.471  19.267  0.00  0.00    +0.000 A 
ATOM     25  C   UNL     1       5.237   4.638  18.577  0.00  0.00    +0.000 A 
ATOM     26  C   UNL     1       4.257   5.635  18.411  0.00  0.00    +0.000 A 
BRANCH  25  27
ATOM     27  C   UNL     1       6.657   4.831  18.077  0.00  0.00    +0.000 C 
ATOM     28  O   UNL     1       7.169   6.136  18.409  0.00  0.00    +0.000 OA
ATOM     29  C   UNL     1       7.474   6.802  17.264  0.00  0.00    +0.000 C 
ATOM     30  O   UNL     1       7.851   7.961  17.227  0.00  0.00    +0.000 OA
ATOM     31  N   UNL     1       7.300   6.005  16.200  0.00  0.00    +0.000 N 
ATOM     32  C   UNL     1       6.808   4.809  16.576  0.00  0.00    +0.000 C 
ATOM     33  O   UNL     1       6.547   3.886  15.816  0.00  0.00    +0.000 OA
ATOM     34  H   UNL     1       7.478   6.286  15.252  0.00  0.00    +0.000 HD
ENDBRANCH  25  27
ENDBRANCH  20  21
ENDBRANCH  19  20
ENDBRANCH  18  19
ENDBRANCH   1  18
TORSDOF 10
ENDMDL
MODEL 4
REMARK VINA RESULT:      -8.2      7.087     11.183
REMARK  Name = 
REMARK  11 active torsions:
REMARK  status: ('A' for Active; 'I' for Inactive)
REMARK    1  A    between atoms: C_1  and  C_2
REMARK    2  A    between atoms: C_2  and  C_3
REMARK    3  A    between atoms: C_3  and  C_4
REMARK    4  A    between atoms: C_6  and  C_7
REMARK    5  A    between atoms: C_15  and  O_16
REMARK    6  A    between atoms: O_16  and  C_17
REMARK    7  A    between atoms: C_17  and  C_18
REMARK    8  A    between atoms: C_18  and  C_19
REMARK    9  A    between atoms: C_19  and  O_20
REMARK   10  A    between atoms: O_20  and  C_21
REMARK   11  A    between atoms: C_25  and  C_26
REMARK                            x       y       z     vdW  Elec       q    Type
REMARK                         _______ _______ _______ _____ _____    ______ ____
ROOT
ATOM      1  C   UNL     1       1.168   9.292  19.111  0.00  0.00    +0.000 C 
ENDROOT
BRANCH   1   2
ATOM      2  O   UNL     1       0.632  10.151  18.119  0.00  0.00    +0.000 OA
BRANCH   2   8
ATOM      3  C   UNL     1      -0.970  11.593  19.417  0.00  0.00    +0.000 A 
ATOM      4  C   UNL     1      -2.315  12.026  19.447  0.00  0.00    +0.000 A 
ATOM      5  C   UNL     1      -3.286  11.575  18.543  0.00  0.00    +0.000 A 
ATOM      6  C   UNL     1      -2.887  10.710  17.529  0.00  0.00    +0.000 A 
ATOM      7  C   UNL     1      -1.555  10.297  17.452  0.00  0.00    +0.000 A 
ATOM      8  C   UNL     1      -0.587  10.725  18.378  0.00  0.00    +0.000 A 
BRANCH   5   9
ATOM      9  C   UNL     1      -4.742  11.964  18.718  0.00  0.00    +0.000 C 
ATOM     10  C   UNL     1      -5.026  12.510  20.126  0.00  0.00    +0.000 C 
ATOM     11  C   UNL     1      -6.516  12.734  20.333  0.00  0.00    +0.000 C 
ATOM     12  O   UNL     1      -7.251  11.541  20.064  0.00  0.00    +0.000 OA
ATOM     13  C   UNL     1      -7.116  11.122  18.707  0.00  0.00    +0.000 C 
ATOM     14  C   UNL     1      -5.667  10.778  18.396  0.00  0.00    +0.000 C 
ENDBRANCH   5   9
BRANCH   3  15
ATOM     15  C   UNL     1      -0.138  12.075  20.591  0.00  0.00    +0.000 C 
BRANCH  15  17
ATOM     16  C   UNL     1      -0.389  10.482  22.550  0.00  0.00    +0.000 C 
ATOM     17  C   UNL     1      -0.791  11.825  21.959  0.00  0.00    +0.000 C 
ENDBRANCH  15  17
ENDBRANCH   3  15
ENDBRANCH   2   8
ENDBRANCH   1   2
BRANCH   1  18
ATOM     18  C   UNL     1       2.191   8.327  18.537  0.00  0.00    +0.000 C 
BRANCH  18  19
ATOM     19  C   UNL     1       2.414   7.233  19.575  0.00  0.00    +0.000 C 
BRANCH  19  20
ATOM     20  O   UNL     1       1.801   6.020  19.152  0.00  0.00    +0.000 OA
BRANCH  20  21
ATOM     21  C   UNL     1       2.616   5.146  18.482  0.00  0.00    +0.000 A 
ATOM     22  C   UNL     1       1.986   3.986  18.037  0.00  0.00    +0.000 A 
ATOM     23  C   UNL     1       2.709   3.002  17.370  0.00  0.00    +0.000 A 
ATOM     24  C   UNL     1       4.078   3.170  17.142  0.00  0.00    +0.000 A 
ATOM     25  C   UNL     1       4.733   4.332  17.566  0.00  0.00    +0.000 A 
ATOM     26  C   UNL     1       3.982   5.317  18.236  0.00  0.00    +0.000 A 
BRANCH  25  27
ATOM     27  C   UNL     1       6.228   4.484  17.351  0.00  0.00    +0.000 C 
ATOM     28  O   UNL     1       6.732   5.702  17.934  0.00  0.00    +0.000 OA
ATOM     29  C   UNL     1       7.270   6.478  16.956  0.00  0.00    +0.000 C 
ATOM     30  O   UNL     1       7.701   7.604  17.138  0.00  0.00    +0.000 OA
ATOM     31  N   UNL     1       7.255   5.828  15.784  0.00  0.00    +0.000 N 
ATOM     32  C   UNL     1       6.648   4.633  15.909  0.00  0.00    +0.000 C 
ATOM     33  O   UNL     1       6.486   3.828  15.002  0.00  0.00    +0.000 OA
ATOM     34  H   UNL     1       7.615   6.208  14.926  0.00  0.00    +0.000 HD
ENDBRANCH  25  27
ENDBRANCH  20  21
ENDBRANCH  19  20
ENDBRANCH  18  19
ENDBRANCH   1  18
TORSDOF 10
ENDMDL
MODEL 5
REMARK VINA RESULT:      -8.2      3.040      4.302
REMARK  Name = 
REMARK  11 active torsions:
REMARK  status: ('A' for Active; 'I' for Inactive)
REMARK    1  A    between atoms: C_1  and  C_2
REMARK    2  A    between atoms: C_2  and  C_3
REMARK    3  A    between atoms: C_3  and  C_4
REMARK    4  A    between atoms: C_6  and  C_7
REMARK    5  A    between atoms: C_15  and  O_16
REMARK    6  A    between atoms: O_16  and  C_17
REMARK    7  A    between atoms: C_17  and  C_18
REMARK    8  A    between atoms: C_18  and  C_19
REMARK    9  A    between atoms: C_19  and  O_20
REMARK   10  A    between atoms: O_20  and  C_21
REMARK   11  A    between atoms: C_25  and  C_26
REMARK                            x       y       z     vdW  Elec       q    Type
REMARK                         _______ _______ _______ _____ _____    ______ ____
ROOT
ATOM      1  C   UNL     1       7.598   7.401  17.399  0.00  0.00    +0.000 C 
ENDROOT
BRANCH   1   2
ATOM      2  O   UNL     1       6.605   6.944  16.497  0.00  0.00    +0.000 OA
BRANCH   2   8
ATOM      3  C   UNL     1       4.281   6.549  17.376  0.00  0.00    +0.000 A 
ATOM      4  C   UNL     1       3.439   5.544  17.905  0.00  0.00    +0.000 A 
ATOM      5  C   UNL     1       3.871   4.234  18.153  0.00  0.00    +0.000 A 
ATOM      6  C   UNL     1       5.173   3.895  17.798  0.00  0.00    +0.000 A 
ATOM      7  C   UNL     1       6.014   4.858  17.236  0.00  0.00    +0.000 A 
ATOM      8  C   UNL     1       5.590   6.181  17.016  0.00  0.00    +0.000 A 
BRANCH   5   9
ATOM      9  C   UNL     1       2.964   3.244  18.857  0.00  0.00    +0.000 C 
ATOM     10  C   UNL     1       1.539   3.259  18.282  0.00  0.00    +0.000 C 
ATOM     11  C   UNL     1       0.608   2.387  19.109  0.00  0.00    +0.000 C 
ATOM     12  O   UNL     1       0.635   2.774  20.482  0.00  0.00    +0.000 OA
ATOM     13  C   UNL     1       1.927   2.605  21.062  0.00  0.00    +0.000 C 
ATOM     14  C   UNL     1       2.943   3.503  20.374  0.00  0.00    +0.000 C 
ENDBRANCH   5   9
BRANCH   3  15
ATOM     15  C   UNL     1       3.656   7.931  17.352  0.00  0.00    +0.000 C 
BRANCH  15  17
ATOM     16  C   UNL     1       1.527   9.224  17.834  0.00  0.00    +0.000 C 
ATOM     17  C   UNL     1       2.422   8.070  18.258  0.00  0.00    +0.000 C 
ENDBRANCH  15  17
ENDBRANCH   3  15
ENDBRANCH   2   8
ENDBRANCH   1   2
BRANCH   1  18
ATOM     18  C   UNL     1       7.505   8.899  17.639  0.00  0.00    +0.000 C 
BRANCH  18  19
ATOM     19  C   UNL     1       8.714   9.299  18.477  0.00  0.00    +0.000 C 
BRANCH  19  20
ATOM     20  O   UNL     1       9.329  10.461  17.931  0.00  0.00    +0.000 OA
BRANCH  20  21
ATOM     21  C   UNL     1       9.855  11.338  18.842  0.00  0.00    +0.000 A 
ATOM     22  C   UNL     1      11.187  11.680  18.619  0.00  0.00    +0.000 A 
ATOM     23  C   UNL     1      11.850  12.539  19.490  0.00  0.00    +0.000 A 
ATOM     24  C   UNL     1      11.183  13.065  20.600  0.00  0.00    +0.000 A 
ATOM     25  C   UNL     1       9.841  12.747  20.841  0.00  0.00    +0.000 A 
ATOM     26  C   UNL     1       9.188  11.879  19.945  0.00  0.00    +0.000 A 
BRANCH  25  27
ATOM     27  C   UNL     1       9.140  13.289  22.074  0.00  0.00    +0.000 C 
ATOM     28  O   UNL     1       9.067  12.305  23.124  0.00  0.00    +0.000 OA
ATOM     29  C   UNL     1       7.763  12.054  23.413  0.00  0.00    +0.000 C 
ATOM     30  O   UNL     1       7.391  11.204  24.205  0.00  0.00    +0.000 OA
ATOM     31  N   UNL     1       6.964  12.866  22.708  0.00  0.00    +0.000 N 
ATOM     32  C   UNL     1       7.685  13.637  21.873  0.00  0.00    +0.000 C 
ATOM     33  O   UNL     1       7.220  14.469  21.105  0.00  0.00    +0.000 OA
ATOM     34  H   UNL     1       5.961  12.863  22.772  0.00  0.00    +0.000 HD
ENDBRANCH  25  27
ENDBRANCH  20  21
ENDBRANCH  19  20
ENDBRANCH  18  19
ENDBRANCH   1  18
TORSDOF 10
ENDMDL
MODEL 6
REMARK VINA RESULT:      -8.2      8.219     11.270
REMARK  Name = 
REMARK  11 active torsions:
REMARK  status: ('A' for Active; 'I' for Inactive)
REMARK    1  A    between atoms: C_1  and  C_2
REMARK    2  A    between atoms: C_2  and  C_3
REMARK    3  A    between atoms: C_3  and  C_4
REMARK    4  A    between atoms: C_6  and  C_7
REMARK    5  A    between atoms: C_15  and  O_16
REMARK    6  A    between atoms: O_16  and  C_17
REMARK    7  A    between atoms: C_17  and  C_18
REMARK    8  A    between atoms: C_18  and  C_19
REMARK    9  A    between atoms: C_19  and  O_20
REMARK   10  A    between atoms: O_20  and  C_21
REMARK   11  A    between atoms: C_25  and  C_26
REMARK                            x       y       z     vdW  Elec       q    Type
REMARK                         _______ _______ _______ _____ _____    ______ ____
ROOT
ATOM      1  C   UNL     1       1.723   7.950  21.290  0.00  0.00    +0.000 C 
ENDROOT
BRANCH   1   2
ATOM      2  O   UNL     1       1.258   6.785  20.632  0.00  0.00    +0.000 OA
BRANCH   2   8
ATOM      3  C   UNL     1       2.681   4.813  19.985  0.00  0.00    +0.000 A 
ATOM      4  C   UNL     1       3.611   4.373  19.015  0.00  0.00    +0.000 A 
ATOM      5  C   UNL     1       4.081   5.188  17.977  0.00  0.00    +0.000 A 
ATOM      6  C   UNL     1       3.553   6.470  17.861  0.00  0.00    +0.000 A 
ATOM      7  C   UNL     1       2.603   6.918  18.782  0.00  0.00    +0.000 A 
ATOM      8  C   UNL     1       2.155   6.110  19.842  0.00  0.00    +0.000 A 
BRANCH   5   9
ATOM      9  C   UNL     1       5.186   4.706  17.058  0.00  0.00    +0.000 C 
ATOM     10  C   UNL     1       6.576   4.870  17.695  0.00  0.00    +0.000 C 
ATOM     11  C   UNL     1       7.675   4.541  16.697  0.00  0.00    +0.000 C 
ATOM     12  O   UNL     1       7.535   5.321  15.511  0.00  0.00    +0.000 OA
ATOM     13  C   UNL     1       6.311   5.048  14.830  0.00  0.00    +0.000 C 
ATOM     14  C   UNL     1       5.121   5.425  15.700  0.00  0.00    +0.000 C 
ENDBRANCH   5   9
BRANCH   3  15
ATOM     15  C   UNL     1       2.446   3.825  21.112  0.00  0.00    +0.000 C 
BRANCH  15  17
ATOM     16  C   UNL     1       0.737   2.801  19.541  0.00  0.00    +0.000 C 
ATOM     17  C   UNL     1       1.126   3.048  20.991  0.00  0.00    +0.000 C 
ENDBRANCH  15  17
ENDBRANCH   3  15
ENDBRANCH   2   8
ENDBRANCH   1   2
BRANCH   1  18
ATOM     18  C   UNL     1       1.032   9.205  20.783  0.00  0.00    +0.000 C 
BRANCH  18  19
ATOM     19  C   UNL     1      -0.189   9.438  21.666  0.00  0.00    +0.000 C 
BRANCH  19  20
ATOM     20  O   UNL     1      -0.130  10.731  22.257  0.00  0.00    +0.000 OA
BRANCH  20  21
ATOM     21  C   UNL     1      -1.276  11.476  22.169  0.00  0.00    +0.000 A 
ATOM     22  C   UNL     1      -1.533  12.004  20.906  0.00  0.00    +0.000 A 
ATOM     23  C   UNL     1      -2.649  12.807  20.691  0.00  0.00    +0.000 A 
ATOM     24  C   UNL     1      -3.523  13.091  21.743  0.00  0.00    +0.000 A 
ATOM     25  C   UNL     1      -3.295  12.563  23.020  0.00  0.00    +0.000 A 
ATOM     26  C   UNL     1      -2.162  11.751  23.216  0.00  0.00    +0.000 A 
BRANCH  25  27
ATOM     27  C   UNL     1      -4.227  12.914  24.166  0.00  0.00    +0.000 C 
ATOM     28  O   UNL     1      -5.360  12.026  24.226  0.00  0.00    +0.000 OA
ATOM     29  C   UNL     1      -6.502  12.745  24.066  0.00  0.00    +0.000 C 
ATOM     30  O   UNL     1      -7.615  12.251  23.991  0.00  0.00    +0.000 OA
ATOM     31  N   UNL     1      -6.224  14.054  24.005  0.00  0.00    +0.000 N 
ATOM     32  C   UNL     1      -4.895  14.262  24.048  0.00  0.00    +0.000 C 
ATOM     33  O   UNL     1      -4.353  15.359  24.005  0.00  0.00    +0.000 OA
ATOM     34  H   UNL     1      -6.920  14.772  23.900  0.00  0.00    +0.000 HD
ENDBRANCH  25  27
ENDBRANCH  20  21
ENDBRANCH  19  20
ENDBRANCH  18  19
ENDBRANCH   1  18
TORSDOF 10
ENDMDL
MODEL 7
REMARK VINA RESULT:      -8.2      1.651      1.816
REMARK  Name = 
REMARK  11 active torsions:
REMARK  status: ('A' for Active; 'I' for Inactive)
REMARK    1  A    between atoms: C_1  and  C_2
REMARK    2  A    between atoms: C_2  and  C_3
REMARK    3  A    between atoms: C_3  and  C_4
REMARK    4  A    between atoms: C_6  and  C_7
REMARK    5  A    between atoms: C_15  and  O_16
REMARK    6  A    between atoms: O_16  and  C_17
REMARK    7  A    between atoms: C_17  and  C_18
REMARK    8  A    between atoms: C_18  and  C_19
REMARK    9  A    between atoms: C_19  and  O_20
REMARK   10  A    between atoms: O_20  and  C_21
REMARK   11  A    between atoms: C_25  and  C_26
REMARK                            x       y       z     vdW  Elec       q    Type
REMARK                         _______ _______ _______ _____ _____    ______ ____
ROOT
ATOM      1  C   UNL     1       7.806   7.786  17.700  0.00  0.00    +0.000 C 
ENDROOT
BRANCH   1   2
ATOM      2  O   UNL     1       6.711   7.505  16.844  0.00  0.00    +0.000 OA
BRANCH   2   8
ATOM      3  C   UNL     1       5.491   5.373  16.299  0.00  0.00    +0.000 A 
ATOM      4  C   UNL     1       4.703   4.354  16.881  0.00  0.00    +0.000 A 
ATOM      5  C   UNL     1       4.302   4.366  18.223  0.00  0.00    +0.000 A 
ATOM      6  C   UNL     1       4.760   5.399  19.035  0.00  0.00    +0.000 A 
ATOM      7  C   UNL     1       5.573   6.398  18.496  0.00  0.00    +0.000 A 
ATOM      8  C   UNL     1       5.950   6.403  17.141  0.00  0.00    +0.000 A 
BRANCH   5   9
ATOM      9  C   UNL     1       3.336   3.321  18.749  0.00  0.00    +0.000 C 
ATOM     10  C   UNL     1       2.074   3.215  17.878  0.00  0.00    +0.000 C 
ATOM     11  C   UNL     1       1.050   2.289  18.514  0.00  0.00    +0.000 C 
ATOM     12  O   UNL     1       0.747   2.703  19.846  0.00  0.00    +0.000 OA
ATOM     13  C   UNL     1       1.890   2.647  20.698  0.00  0.00    +0.000 C 
ATOM     14  C   UNL     1       2.965   3.608  20.214  0.00  0.00    +0.000 C 
ENDBRANCH   5   9
BRANCH   3  15
ATOM     15  C   UNL     1       5.659   5.245  14.797  0.00  0.00    +0.000 C 
BRANCH  15  17
ATOM     16  C   UNL     1       6.480   3.719  12.944  0.00  0.00    +0.000 C 
ATOM     17  C   UNL     1       5.817   3.796  14.311  0.00  0.00    +0.000 C 
ENDBRANCH  15  17
ENDBRANCH   3  15
ENDBRANCH   2   8
ENDBRANCH   1   2
BRANCH   1  18
ATOM     18  C   UNL     1       8.109   9.273  17.768  0.00  0.00    +0.000 C 
BRANCH  18  19
ATOM     19  C   UNL     1       8.841   9.526  19.081  0.00  0.00    +0.000 C 
BRANCH  19  20
ATOM     20  O   UNL     1       9.815  10.550  18.913  0.00  0.00    +0.000 OA
BRANCH  20  21
ATOM     21  C   UNL     1       9.422  11.810  19.278  0.00  0.00    +0.000 A 
ATOM     22  C   UNL     1       9.532  12.084  20.639  0.00  0.00    +0.000 A 
ATOM     23  C   UNL     1       9.136  13.318  21.144  0.00  0.00    +0.000 A 
ATOM     24  C   UNL     1       8.621  14.295  20.288  0.00  0.00    +0.000 A 
ATOM     25  C   UNL     1       8.511  14.051  18.913  0.00  0.00    +0.000 A 
ATOM     26  C   UNL     1       8.921  12.797  18.422  0.00  0.00    +0.000 A 
BRANCH  25  27
ATOM     27  C   UNL     1       7.910  15.103  17.999  0.00  0.00    +0.000 C 
ATOM     28  O   UNL     1       8.741  16.277  17.914  0.00  0.00    +0.000 OA
ATOM     29  C   UNL     1       8.046  17.352  18.370  0.00  0.00    +0.000 C 
ATOM     30  O   UNL     1       8.520  18.469  18.494  0.00  0.00    +0.000 OA
ATOM     31  N   UNL     1       6.784  17.004  18.656  0.00  0.00    +0.000 N 
ATOM     32  C   UNL     1       6.601  15.683  18.476  0.00  0.00    +0.000 C 
ATOM     33  O   UNL     1       5.549  15.086  18.666  0.00  0.00    +0.000 OA
ATOM     34  H   UNL     1       6.088  17.645  18.997  0.00  0.00    +0.000 HD
ENDBRANCH  25  27
ENDBRANCH  20  21
ENDBRANCH  19  20
ENDBRANCH  18  19
ENDBRANCH   1  18
TORSDOF 10
ENDMDL
MODEL 8
REMARK VINA RESULT:      -8.2      7.995     11.702
REMARK  Name = 
REMARK  11 active torsions:
REMARK  status: ('A' for Active; 'I' for Inactive)
REMARK    1  A    between atoms: C_1  and  C_2
REMARK    2  A    between atoms: C_2  and  C_3
REMARK    3  A    between atoms: C_3  and  C_4
REMARK    4  A    between atoms: C_6  and  C_7
REMARK    5  A    between atoms: C_15  and  O_16
REMARK    6  A    between atoms: O_16  and  C_17
REMARK    7  A    between atoms: C_17  and  C_18
REMARK    8  A    between atoms: C_18  and  C_19
REMARK    9  A    between atoms: C_19  and  O_20
REMARK   10  A    between atoms: O_20  and  C_21
REMARK   11  A    between atoms: C_25  and  C_26
REMARK                            x       y       z     vdW  Elec       q    Type
REMARK                         _______ _______ _______ _____ _____    ______ ____
ROOT
ATOM      1  C   UNL     1      -0.198  10.215  18.379  0.00  0.00    +0.000 C 
ENDROOT
BRANCH   1   2
ATOM      2  O   UNL     1      -0.323  11.575  18.755  0.00  0.00    +0.000 OA
BRANCH   2   8
ATOM      3  C   UNL     1      -1.561  12.083  20.887  0.00  0.00    +0.000 A 
ATOM      4  C   UNL     1      -2.835  12.438  21.385  0.00  0.00    +0.000 A 
ATOM      5  C   UNL     1      -3.969  12.560  20.572  0.00  0.00    +0.000 A 
ATOM      6  C   UNL     1      -3.815  12.387  19.200  0.00  0.00    +0.000 A 
ATOM      7  C   UNL     1      -2.558  12.075  18.676  0.00  0.00    +0.000 A 
ATOM      8  C   UNL     1      -1.425  11.922  19.495  0.00  0.00    +0.000 A 
BRANCH   5   9
ATOM      9  C   UNL     1      -5.336  12.799  21.185  0.00  0.00    +0.000 C 
ATOM     10  C   UNL     1      -5.282  12.810  22.721  0.00  0.00    +0.000 C 
ATOM     11  C   UNL     1      -6.681  12.881  23.314  0.00  0.00    +0.000 C 
ATOM     12  O   UNL     1      -7.499  11.824  22.815  0.00  0.00    +0.000 OA
ATOM     13  C   UNL     1      -7.682  11.908  21.403  0.00  0.00    +0.000 C 
ATOM     14  C   UNL     1      -6.351  11.758  20.682  0.00  0.00    +0.000 C 
ENDBRANCH   5   9
BRANCH   3  15
ATOM     15  C   UNL     1      -0.520  11.841  21.964  0.00  0.00    +0.000 C 
BRANCH  15  17
ATOM     16  C   UNL     1      -0.216   9.602  23.118  0.00  0.00    +0.000 C 
ATOM     17  C   UNL     1      -0.996  10.908  23.088  0.00  0.00    +0.000 C 
ENDBRANCH  15  17
ENDBRANCH   3  15
ENDBRANCH   2   8
ENDBRANCH   1   2
BRANCH   1  18
ATOM     18  C   UNL     1       0.582   9.410  19.406  0.00  0.00    +0.000 C 
BRANCH  18  19
ATOM     19  C   UNL     1       1.816   8.854  18.704  0.00  0.00    +0.000 C 
BRANCH  19  20
ATOM     20  O   UNL     1       2.269   7.677  19.363  0.00  0.00    +0.000 OA
BRANCH  20  21
ATOM     21  C   UNL     1       2.896   6.755  18.567  0.00  0.00    +0.000 A 
ATOM     22  C   UNL     1       2.384   5.464  18.656  0.00  0.00    +0.000 A 
ATOM     23  C   UNL     1       2.952   4.427  17.922  0.00  0.00    +0.000 A 
ATOM     24  C   UNL     1       4.046   4.675  17.088  0.00  0.00    +0.000 A 
ATOM     25  C   UNL     1       4.573   5.967  16.970  0.00  0.00    +0.000 A 
ATOM     26  C   UNL     1       3.981   7.001  17.719  0.00  0.00    +0.000 A 
BRANCH  25  27
ATOM     27  C   UNL     1       5.789   6.215  16.096  0.00  0.00    +0.000 C 
ATOM     28  O   UNL     1       5.597   5.716  14.758  0.00  0.00    +0.000 OA
ATOM     29  C   UNL     1       6.534   4.767  14.495  0.00  0.00    +0.000 C 
ATOM     30  O   UNL     1       6.570   4.109  13.470  0.00  0.00    +0.000 OA
ATOM     31  N   UNL     1       7.397   4.668  15.516  0.00  0.00    +0.000 N 
ATOM     32  C   UNL     1       7.037   5.484  16.525  0.00  0.00    +0.000 C 
ATOM     33  O   UNL     1       7.638   5.598  17.586  0.00  0.00    +0.000 OA
ATOM     34  H   UNL     1       8.180   4.037  15.532  0.00  0.00    +0.000 HD
ENDBRANCH  25  27
ENDBRANCH  20  21
ENDBRANCH  19  20
ENDBRANCH  18  19
ENDBRANCH   1  18
TORSDOF 10
ENDMDL
MODEL 9
REMARK VINA RESULT:      -8.2      6.677     10.533
REMARK  Name = 
REMARK  11 active torsions:
REMARK  status: ('A' for Active; 'I' for Inactive)
REMARK    1  A    between atoms: C_1  and  C_2
REMARK    2  A    between atoms: C_2  and  C_3
REMARK    3  A    between atoms: C_3  and  C_4
REMARK    4  A    between atoms: C_6  and  C_7
REMARK    5  A    between atoms: C_15  and  O_16
REMARK    6  A    between atoms: O_16  and  C_17
REMARK    7  A    between atoms: C_17  and  C_18
REMARK    8  A    between atoms: C_18  and  C_19
REMARK    9  A    between atoms: C_19  and  O_20
REMARK   10  A    between atoms: O_20  and  C_21
REMARK   11  A    between atoms: C_25  and  C_26
REMARK                            x       y       z     vdW  Elec       q    Type
REMARK                         _______ _______ _______ _____ _____    ______ ____
ROOT
ATOM      1  C   UNL     1       2.168   8.634  18.066  0.00  0.00    +0.000 C 
ENDROOT
BRANCH   1   2
ATOM      2  O   UNL     1       1.611   9.875  17.667  0.00  0.00    +0.000 OA
BRANCH   2   8
ATOM      3  C   UNL     1      -0.790  10.334  18.265  0.00  0.00    +0.000 A 
ATOM      4  C   UNL     1      -1.601  10.971  19.231  0.00  0.00    +0.000 A 
ATOM      5  C   UNL     1      -1.082  11.709  20.303  0.00  0.00    +0.000 A 
ATOM      6  C   UNL     1       0.300  11.759  20.456  0.00  0.00    +0.000 A 
ATOM      7  C   UNL     1       1.125  11.105  19.538  0.00  0.00    +0.000 A 
ATOM      8  C   UNL     1       0.605  10.390  18.445  0.00  0.00    +0.000 A 
BRANCH   5   9
ATOM      9  C   UNL     1      -2.003  12.490  21.219  0.00  0.00    +0.000 C 
ATOM     10  C   UNL     1      -2.077  11.871  22.624  0.00  0.00    +0.000 C 
ATOM     11  C   UNL     1      -3.131  12.566  23.472  0.00  0.00    +0.000 C 
ATOM     12  O   UNL     1      -4.398  12.557  22.816  0.00  0.00    +0.000 OA
ATOM     13  C   UNL     1      -4.370  13.274  21.583  0.00  0.00    +0.000 C 
ATOM     14  C   UNL     1      -3.409  12.616  20.605  0.00  0.00    +0.000 C 
ENDBRANCH   5   9
BRANCH   3  15
ATOM     15  C   UNL     1      -1.562   9.739  17.102  0.00  0.00    +0.000 C 
BRANCH  15  17
ATOM     16  C   UNL     1      -3.063  10.276  15.128  0.00  0.00    +0.000 C 
ATOM     17  C   UNL     1      -2.647  10.669  16.538  0.00  0.00    +0.000 C 
ENDBRANCH  15  17
ENDBRANCH   3  15
ENDBRANCH   2   8
ENDBRANCH   1   2
BRANCH   1  18
ATOM     18  C   UNL     1       1.304   7.929  19.099  0.00  0.00    +0.000 C 
BRANCH  18  19
ATOM     19  C   UNL     1       2.242   7.158  20.022  0.00  0.00    +0.000 C 
BRANCH  19  20
ATOM     20  O   UNL     1       2.017   5.758  19.895  0.00  0.00    +0.000 OA
BRANCH  20  21
ATOM     21  C   UNL     1       2.816   5.108  18.993  0.00  0.00    +0.000 A 
ATOM     22  C   UNL     1       2.167   4.141  18.229  0.00  0.00    +0.000 A 
ATOM     23  C   UNL     1       2.873   3.386  17.298  0.00  0.00    +0.000 A 
ATOM     24  C   UNL     1       4.244   3.591  17.122  0.00  0.00    +0.000 A 
ATOM     25  C   UNL     1       4.920   4.565  17.868  0.00  0.00    +0.000 A 
ATOM     26  C   UNL     1       4.185   5.321  18.802  0.00  0.00    +0.000 A 
BRANCH  25  27
ATOM     27  C   UNL     1       6.417   4.749  17.700  0.00  0.00    +0.000 C 
ATOM     28  O   UNL     1       6.896   5.911  18.406  0.00  0.00    +0.000 OA
ATOM     29  C   UNL     1       7.446   6.779  17.517  0.00  0.00    +0.000 C 
ATOM     30  O   UNL     1       7.862   7.887  17.813  0.00  0.00    +0.000 OA
ATOM     31  N   UNL     1       7.462   6.243  16.289  0.00  0.00    +0.000 N 
ATOM     32  C   UNL     1       6.865   5.037  16.288  0.00  0.00    +0.000 C 
ATOM     33  O   UNL     1       6.729   4.319  15.305  0.00  0.00    +0.000 OA
ATOM     34  H   UNL     1       7.836   6.705  15.478  0.00  0.00    +0.000 HD
ENDBRANCH  25  27
ENDBRANCH  20  21
ENDBRANCH  19  20
ENDBRANCH  18  19
ENDBRANCH   1  18
TORSDOF 10
ENDMDL
