MODEL 1
REMARK VINA RESULT:      -6.8      0.000      0.000
REMARK  Name = 
REMARK  5 active torsions:
REMARK  status: ('A' for Active; 'I' for Inactive)
REMARK    1  A    between atoms: C_4  and  C_5
REMARK    2  A    between atoms: C_5  and  C_6
REMARK    3  A    between atoms: C_6  and  N_7
REMARK    4  A    between atoms: N_7  and  S_8
REMARK    5  A    between atoms: S_8  and  C_11
REMARK                            x       y       z     vdW  Elec       q    Type
REMARK                         _______ _______ _______ _____ _____    ______ ____
ROOT
ATOM      1  C   UNL     1       4.601   4.557  16.960  0.00  0.00    +0.000 C 
ENDROOT
BRANCH   1   2
ATOM      2  N   UNL     1       5.897   3.910  16.668  0.00  0.00    +0.000 NA
ATOM      3  H   UNL     1       5.939   3.433  15.765  0.00  0.00    +0.000 HD
BRANCH   2   4
ATOM      4  S   UNL     1       7.253   4.932  16.743  0.00  0.00    +0.000 S 
ATOM      5  O   UNL     1       8.302   4.139  17.340  0.00  0.00    +0.000 OA
ATOM      6  O   UNL     1       7.406   5.503  15.423  0.00  0.00    +0.000 OA
BRANCH   4   7
ATOM      7  C   UNL     1       6.874   6.261  17.916  0.00  0.00    +0.000 C 
ATOM      8  C   UNL     1       8.103   6.752  18.641  0.00  0.00    +0.000 C 
ATOM      9  C   UNL     1       7.441   7.623  17.611  0.00  0.00    +0.000 C 
ENDBRANCH   4   7
ENDBRANCH   2   4
ENDBRANCH   1   2
BRANCH   1  10
ATOM     10  C   UNL     1       3.563   3.535  17.402  0.00  0.00    +0.000 C 
BRANCH  10  14
ATOM     11  O   UNL     1       2.817   2.483  21.934  0.00  0.00    +0.000 OA
ATOM     12  C   UNL     1       3.370   2.612  20.851  0.00  0.00    +0.000 A 
ATOM     13  N   UNL     1       2.832   3.197  19.722  0.00  0.00    +0.000 NA
ATOM     14  C   UNL     1       3.767   3.102  18.824  0.00  0.00    +0.000 A 
ATOM     15  N   UNL     1       4.943   2.563  19.267  0.00  0.00    +0.000 N 
ATOM     16  O   UNL     1       4.638   2.137  20.567  0.00  0.00    +0.000 OA
ATOM     17  H   UNL     1       5.404   1.871  18.686  0.00  0.00    +0.000 HD
ENDBRANCH  10  14
ENDBRANCH   1  10
TORSDOF 5
ENDMDL
MODEL 2
REMARK VINA RESULT:      -6.6      2.271      5.698
REMARK  Name = 
REMARK  5 active torsions:
REMARK  status: ('A' for Active; 'I' for Inactive)
REMARK    1  A    between atoms: C_4  and  C_5
REMARK    2  A    between atoms: C_5  and  C_6
REMARK    3  A    between atoms: C_6  and  N_7
REMARK    4  A    between atoms: N_7  and  S_8
REMARK    5  A    between atoms: S_8  and  C_11
REMARK                            x       y       z     vdW  Elec       q    Type
REMARK                         _______ _______ _______ _____ _____    ______ ____
ROOT
ATOM      1  C   UNL     1       3.545   5.159  18.262  0.00  0.00    +0.000 C 
ENDROOT
BRANCH   1   2
ATOM      2  N   UNL     1       3.655   3.711  17.984  0.00  0.00    +0.000 NA
ATOM      3  H   UNL     1       4.497   3.441  17.473  0.00  0.00    +0.000 HD
BRANCH   2   4
ATOM      4  S   UNL     1       3.566   2.701  19.347  0.00  0.00    +0.000 S 
ATOM      5  O   UNL     1       2.796   1.552  18.929  0.00  0.00    +0.000 OA
ATOM      6  O   UNL     1       4.920   2.556  19.836  0.00  0.00    +0.000 OA
BRANCH   4   7
ATOM      7  C   UNL     1       2.580   3.558  20.604  0.00  0.00    +0.000 C 
ATOM      8  C   UNL     1       1.097   3.388  20.382  0.00  0.00    +0.000 C 
ATOM      9  C   UNL     1       1.766   2.700  21.537  0.00  0.00    +0.000 C 
ENDBRANCH   4   7
ENDBRANCH   2   4
ENDBRANCH   1   2
BRANCH   1  10
ATOM     10  C   UNL     1       4.905   5.761  18.587  0.00  0.00    +0.000 C 
BRANCH  10  14
ATOM     11  O   UNL     1       7.691   5.188  14.831  0.00  0.00    +0.000 OA
ATOM     12  C   UNL     1       7.225   5.071  15.955  0.00  0.00    +0.000 A 
ATOM     13  N   UNL     1       6.072   5.667  16.429  0.00  0.00    +0.000 NA
ATOM     14  C   UNL     1       5.977   5.267  17.662  0.00  0.00    +0.000 A 
ATOM     15  N   UNL     1       6.937   4.376  18.057  0.00  0.00    +0.000 N 
ATOM     16  O   UNL     1       7.819   4.341  16.969  0.00  0.00    +0.000 OA
ATOM     17  H   UNL     1       7.376   4.512  18.962  0.00  0.00    +0.000 HD
ENDBRANCH  10  14
ENDBRANCH   1  10
TORSDOF 5
ENDMDL
MODEL 3
REMARK VINA RESULT:      -6.4      2.441      5.944
REMARK  Name = 
REMARK  5 active torsions:
REMARK  status: ('A' for Active; 'I' for Inactive)
REMARK    1  A    between atoms: C_4  and  C_5
REMARK    2  A    between atoms: C_5  and  C_6
REMARK    3  A    between atoms: C_6  and  N_7
REMARK    4  A    between atoms: N_7  and  S_8
REMARK    5  A    between atoms: S_8  and  C_11
REMARK                            x       y       z     vdW  Elec       q    Type
REMARK                         _______ _______ _______ _____ _____    ______ ____
ROOT
ATOM      1  C   UNL     1       5.874   4.822  18.371  0.00  0.00    +0.000 C 
ENDROOT
BRANCH   1   2
ATOM      2  N   UNL     1       5.403   3.567  18.996  0.00  0.00    +0.000 NA
ATOM      3  H   UNL     1       5.967   3.251  19.787  0.00  0.00    +0.000 HD
BRANCH   2   4
ATOM      4  S   UNL     1       3.787   3.579  19.521  0.00  0.00    +0.000 S 
ATOM      5  O   UNL     1       3.670   2.470  20.439  0.00  0.00    +0.000 OA
ATOM      6  O   UNL     1       3.507   4.933  19.945  0.00  0.00    +0.000 OA
BRANCH   4   7
ATOM      7  C   UNL     1       2.742   3.185  18.093  0.00  0.00    +0.000 C 
ATOM      8  C   UNL     1       1.302   2.955  18.483  0.00  0.00    +0.000 C 
ATOM      9  C   UNL     1       1.686   4.192  17.721  0.00  0.00    +0.000 C 
ENDBRANCH   4   7
ENDBRANCH   2   4
ENDBRANCH   1   2
BRANCH   1  10
ATOM     10  C   UNL     1       7.202   4.616  17.657  0.00  0.00    +0.000 C 
BRANCH  10  14
ATOM     11  O   UNL     1       5.884   3.619  13.245  0.00  0.00    +0.000 OA
ATOM     12  C   UNL     1       6.403   4.180  14.199  0.00  0.00    +0.000 A 
ATOM     13  N   UNL     1       6.394   3.742  15.509  0.00  0.00    +0.000 NA
ATOM     14  C   UNL     1       7.053   4.650  16.165  0.00  0.00    +0.000 A 
ATOM     15  N   UNL     1       7.584   5.648  15.396  0.00  0.00    +0.000 N 
ATOM     16  O   UNL     1       7.056   5.396  14.122  0.00  0.00    +0.000 OA
ATOM     17  H   UNL     1       7.490   6.606  15.718  0.00  0.00    +0.000 HD
ENDBRANCH  10  14
ENDBRANCH   1  10
TORSDOF 5
ENDMDL
MODEL 4
REMARK VINA RESULT:      -6.4      2.381      5.573
REMARK  Name = 
REMARK  5 active torsions:
REMARK  status: ('A' for Active; 'I' for Inactive)
REMARK    1  A    between atoms: C_4  and  C_5
REMARK    2  A    between atoms: C_5  and  C_6
REMARK    3  A    between atoms: C_6  and  N_7
REMARK    4  A    between atoms: N_7  and  S_8
REMARK    5  A    between atoms: S_8  and  C_11
REMARK                            x       y       z     vdW  Elec       q    Type
REMARK                         _______ _______ _______ _____ _____    ______ ____
ROOT
ATOM      1  C   UNL     1       6.082   5.158  19.210  0.00  0.00    +0.000 C 
ENDROOT
BRANCH   1   2
ATOM      2  N   UNL     1       5.739   3.771  18.829  0.00  0.00    +0.000 NA
ATOM      3  H   UNL     1       6.159   3.053  19.423  0.00  0.00    +0.000 HD
BRANCH   2   4
ATOM      4  S   UNL     1       4.077   3.430  18.750  0.00  0.00    +0.000 S 
ATOM      5  O   UNL     1       3.968   2.213  17.979  0.00  0.00    +0.000 OA
ATOM      6  O   UNL     1       3.581   3.502  20.107  0.00  0.00    +0.000 OA
BRANCH   4   7
ATOM      7  C   UNL     1       3.292   4.738  17.771  0.00  0.00    +0.000 C 
ATOM      8  C   UNL     1       1.790   4.602  17.732  0.00  0.00    +0.000 C 
ATOM      9  C   UNL     1       2.423   5.719  18.513  0.00  0.00    +0.000 C 
ENDBRANCH   4   7
ENDBRANCH   2   4
ENDBRANCH   1   2
BRANCH   1  10
ATOM     10  C   UNL     1       7.203   5.707  18.339  0.00  0.00    +0.000 C 
BRANCH  10  14
ATOM     11  O   UNL     1       6.828   4.218  13.885  0.00  0.00    +0.000 OA
ATOM     12  C   UNL     1       6.702   4.899  14.893  0.00  0.00    +0.000 A 
ATOM     13  N   UNL     1       7.295   4.665  16.118  0.00  0.00    +0.000 NA
ATOM     14  C   UNL     1       6.872   5.630  16.878  0.00  0.00    +0.000 A 
ATOM     15  N   UNL     1       6.090   6.561  16.252  0.00  0.00    +0.000 N 
ATOM     16  O   UNL     1       5.887   6.013  14.978  0.00  0.00    +0.000 OA
ATOM     17  H   UNL     1       5.248   6.877  16.723  0.00  0.00    +0.000 HD
ENDBRANCH  10  14
ENDBRANCH   1  10
TORSDOF 5
ENDMDL
MODEL 5
REMARK VINA RESULT:      -6.3      2.449      5.470
REMARK  Name = 
REMARK  5 active torsions:
REMARK  status: ('A' for Active; 'I' for Inactive)
REMARK    1  A    between atoms: C_4  and  C_5
REMARK    2  A    between atoms: C_5  and  C_6
REMARK    3  A    between atoms: C_6  and  N_7
REMARK    4  A    between atoms: N_7  and  S_8
REMARK    5  A    between atoms: S_8  and  C_11
REMARK                            x       y       z     vdW  Elec       q    Type
REMARK                         _______ _______ _______ _____ _____    ______ ____
ROOT
ATOM      1  C   UNL     1       5.108   4.029  16.342  0.00  0.00    +0.000 C 
ENDROOT
BRANCH   1   2
ATOM      2  N   UNL     1       4.620   4.901  17.431  0.00  0.00    +0.000 NA
ATOM      3  H   UNL     1       3.921   5.588  17.141  0.00  0.00    +0.000 HD
BRANCH   2   4
ATOM      4  S   UNL     1       3.981   4.090  18.780  0.00  0.00    +0.000 S 
ATOM      5  O   UNL     1       5.086   3.355  19.349  0.00  0.00    +0.000 OA
ATOM      6  O   UNL     1       3.267   5.084  19.551  0.00  0.00    +0.000 OA
BRANCH   4   7
ATOM      7  C   UNL     1       2.796   2.860  18.171  0.00  0.00    +0.000 C 
ATOM      8  C   UNL     1       2.072   2.158  19.294  0.00  0.00    +0.000 C 
ATOM      9  C   UNL     1       1.337   3.135  18.421  0.00  0.00    +0.000 C 
ENDBRANCH   4   7
ENDBRANCH   2   4
ENDBRANCH   1   2
BRANCH   1  10
ATOM     10  C   UNL     1       6.601   4.218  16.112  0.00  0.00    +0.000 C 
BRANCH  10  14
ATOM     11  O   UNL     1       8.115   8.206  18.111  0.00  0.00    +0.000 OA
ATOM     12  C   UNL     1       7.837   7.027  17.946  0.00  0.00    +0.000 A 
ATOM     13  N   UNL     1       7.358   6.455  16.784  0.00  0.00    +0.000 NA
ATOM     14  C   UNL     1       7.201   5.198  17.076  0.00  0.00    +0.000 A 
ATOM     15  N   UNL     1       7.607   4.840  18.331  0.00  0.00    +0.000 N 
ATOM     16  O   UNL     1       7.915   6.066  18.938  0.00  0.00    +0.000 OA
ATOM     17  H   UNL     1       7.006   4.231  18.876  0.00  0.00    +0.000 HD
ENDBRANCH  10  14
ENDBRANCH   1  10
TORSDOF 5
ENDMDL
MODEL 6
REMARK VINA RESULT:      -6.3      2.318      5.661
REMARK  Name = 
REMARK  5 active torsions:
REMARK  status: ('A' for Active; 'I' for Inactive)
REMARK    1  A    between atoms: C_4  and  C_5
REMARK    2  A    between atoms: C_5  and  C_6
REMARK    3  A    between atoms: C_6  and  N_7
REMARK    4  A    between atoms: N_7  and  S_8
REMARK    5  A    between atoms: S_8  and  C_11
REMARK                            x       y       z     vdW  Elec       q    Type
REMARK                         _______ _______ _______ _____ _____    ______ ____
ROOT
ATOM      1  C   UNL     1       3.024   5.521  18.129  0.00  0.00    +0.000 C 
ENDROOT
BRANCH   1   2
ATOM      2  N   UNL     1       3.612   4.842  19.303  0.00  0.00    +0.000 NA
ATOM      3  H   UNL     1       3.190   5.101  20.197  0.00  0.00    +0.000 HD
BRANCH   2   4
ATOM      4  S   UNL     1       3.610   3.144  19.237  0.00  0.00    +0.000 S 
ATOM      5  O   UNL     1       3.401   2.811  17.847  0.00  0.00    +0.000 OA
ATOM      6  O   UNL     1       4.797   2.708  19.939  0.00  0.00    +0.000 OA
BRANCH   4   7
ATOM      7  C   UNL     1       2.149   2.560  20.137  0.00  0.00    +0.000 C 
ATOM      8  C   UNL     1       2.171   2.969  21.590  0.00  0.00    +0.000 C 
ATOM      9  C   UNL     1       1.195   3.609  20.644  0.00  0.00    +0.000 C 
ENDBRANCH   4   7
ENDBRANCH   2   4
ENDBRANCH   1   2
BRANCH   1  10
ATOM     10  C   UNL     1       3.896   6.681  17.671  0.00  0.00    +0.000 C 
BRANCH  10  14
ATOM     11  O   UNL     1       7.906   4.468  16.564  0.00  0.00    +0.000 OA
ATOM     12  C   UNL     1       6.906   5.168  16.475  0.00  0.00    +0.000 A 
ATOM     13  N   UNL     1       6.013   5.450  17.489  0.00  0.00    +0.000 NA
ATOM     14  C   UNL     1       5.118   6.214  16.937  0.00  0.00    +0.000 A 
ATOM     15  N   UNL     1       5.365   6.547  15.634  0.00  0.00    +0.000 N 
ATOM     16  O   UNL     1       6.479   5.763  15.302  0.00  0.00    +0.000 OA
ATOM     17  H   UNL     1       4.597   6.504  14.973  0.00  0.00    +0.000 HD
ENDBRANCH  10  14
ENDBRANCH   1  10
TORSDOF 5
ENDMDL
MODEL 7
REMARK VINA RESULT:      -6.3      2.310      2.900
REMARK  Name = 
REMARK  5 active torsions:
REMARK  status: ('A' for Active; 'I' for Inactive)
REMARK    1  A    between atoms: C_4  and  C_5
REMARK    2  A    between atoms: C_5  and  C_6
REMARK    3  A    between atoms: C_6  and  N_7
REMARK    4  A    between atoms: N_7  and  S_8
REMARK    5  A    between atoms: S_8  and  C_11
REMARK                            x       y       z     vdW  Elec       q    Type
REMARK                         _______ _______ _______ _____ _____    ______ ____
ROOT
ATOM      1  C   UNL     1       3.925   2.747  17.531  0.00  0.00    +0.000 C 
ENDROOT
BRANCH   1   2
ATOM      2  N   UNL     1       4.556   3.182  18.795  0.00  0.00    +0.000 NA
ATOM      3  H   UNL     1       5.348   2.608  19.092  0.00  0.00    +0.000 HD
BRANCH   2   4
ATOM      4  S   UNL     1       5.084   4.796  18.827  0.00  0.00    +0.000 S 
ATOM      5  O   UNL     1       4.165   5.488  19.700  0.00  0.00    +0.000 OA
ATOM      6  O   UNL     1       6.501   4.755  19.114  0.00  0.00    +0.000 OA
BRANCH   4   7
ATOM      7  C   UNL     1       4.843   5.486  17.167  0.00  0.00    +0.000 C 
ATOM      8  C   UNL     1       5.454   6.859  17.024  0.00  0.00    +0.000 C 
ATOM      9  C   UNL     1       6.076   5.683  16.324  0.00  0.00    +0.000 C 
ENDBRANCH   4   7
ENDBRANCH   2   4
ENDBRANCH   1   2
BRANCH   1  10
ATOM     10  C   UNL     1       2.477   2.333  17.753  0.00  0.00    +0.000 C 
BRANCH  10  14
ATOM     11  O   UNL     1       1.364   2.574  22.325  0.00  0.00    +0.000 OA
ATOM     12  C   UNL     1       1.501   2.880  21.148  0.00  0.00    +0.000 A 
ATOM     13  N   UNL     1       1.971   2.061  20.140  0.00  0.00    +0.000 NA
ATOM     14  C   UNL     1       1.950   2.806  19.075  0.00  0.00    +0.000 A 
ATOM     15  N   UNL     1       1.428   4.057  19.253  0.00  0.00    +0.000 N 
ATOM     16  O   UNL     1       1.243   4.140  20.640  0.00  0.00    +0.000 OA
ATOM     17  H   UNL     1       1.914   4.845  18.837  0.00  0.00    +0.000 HD
ENDBRANCH  10  14
ENDBRANCH   1  10
TORSDOF 5
ENDMDL
MODEL 8
REMARK VINA RESULT:      -6.3      2.275      2.873
REMARK  Name = 
REMARK  5 active torsions:
REMARK  status: ('A' for Active; 'I' for Inactive)
REMARK    1  A    between atoms: C_4  and  C_5
REMARK    2  A    between atoms: C_5  and  C_6
REMARK    3  A    between atoms: C_6  and  N_7
REMARK    4  A    between atoms: N_7  and  S_8
REMARK    5  A    between atoms: S_8  and  C_11
REMARK                            x       y       z     vdW  Elec       q    Type
REMARK                         _______ _______ _______ _____ _____    ______ ____
ROOT
ATOM      1  C   UNL     1       2.910   3.638  17.227  0.00  0.00    +0.000 C 
ENDROOT
BRANCH   1   2
ATOM      2  N   UNL     1       3.946   3.442  18.263  0.00  0.00    +0.000 NA
ATOM      3  H   UNL     1       4.459   2.562  18.187  0.00  0.00    +0.000 HD
BRANCH   2   4
ATOM      4  S   UNL     1       5.108   4.677  18.370  0.00  0.00    +0.000 S 
ATOM      5  O   UNL     1       4.359   5.900  18.549  0.00  0.00    +0.000 OA
ATOM      6  O   UNL     1       6.075   4.242  19.354  0.00  0.00    +0.000 OA
BRANCH   4   7
ATOM      7  C   UNL     1       5.929   4.801  16.759  0.00  0.00    +0.000 C 
ATOM      8  C   UNL     1       6.922   5.936  16.707  0.00  0.00    +0.000 C 
ATOM      9  C   UNL     1       7.407   4.514  16.721  0.00  0.00    +0.000 C 
ENDBRANCH   4   7
ENDBRANCH   2   4
ENDBRANCH   1   2
BRANCH   1  10
ATOM     10  C   UNL     1       1.566   3.985  17.852  0.00  0.00    +0.000 C 
BRANCH  10  14
ATOM     11  O   UNL     1       1.473   2.315  22.257  0.00  0.00    +0.000 OA
ATOM     12  C   UNL     1       1.581   3.084  21.312  0.00  0.00    +0.000 A 
ATOM     13  N   UNL     1       1.356   2.783  19.983  0.00  0.00    +0.000 NA
ATOM     14  C   UNL     1       1.598   3.891  19.348  0.00  0.00    +0.000 A 
ATOM     15  N   UNL     1       1.899   4.961  20.146  0.00  0.00    +0.000 N 
ATOM     16  O   UNL     1       2.000   4.397  21.425  0.00  0.00    +0.000 OA
ATOM     17  H   UNL     1       2.674   5.558  19.877  0.00  0.00    +0.000 HD
ENDBRANCH  10  14
ENDBRANCH   1  10
TORSDOF 5
ENDMDL
MODEL 9
REMARK VINA RESULT:      -6.2      2.158      5.584
REMARK  Name = 
REMARK  5 active torsions:
REMARK  status: ('A' for Active; 'I' for Inactive)
REMARK    1  A    between atoms: C_4  and  C_5
REMARK    2  A    between atoms: C_5  and  C_6
REMARK    3  A    between atoms: C_6  and  N_7
REMARK    4  A    between atoms: N_7  and  S_8
REMARK    5  A    between atoms: S_8  and  C_11
REMARK                            x       y       z     vdW  Elec       q    Type
REMARK                         _______ _______ _______ _____ _____    ______ ____
ROOT
ATOM      1  C   UNL     1       4.816   5.055  19.284  0.00  0.00    +0.000 C 
ENDROOT
BRANCH   1   2
ATOM      2  N   UNL     1       5.262   3.656  19.111  0.00  0.00    +0.000 NA
ATOM      3  H   UNL     1       6.214   3.472  19.436  0.00  0.00    +0.000 HD
BRANCH   2   4
ATOM      4  S   UNL     1       4.266   2.482  19.829  0.00  0.00    +0.000 S 
ATOM      5  O   UNL     1       5.164   1.477  20.349  0.00  0.00    +0.000 OA
ATOM      6  O   UNL     1       3.358   3.196  20.700  0.00  0.00    +0.000 OA
BRANCH   4   7
ATOM      7  C   UNL     1       3.308   1.691  18.508  0.00  0.00    +0.000 C 
ATOM      8  C   UNL     1       1.879   2.174  18.468  0.00  0.00    +0.000 C 
ATOM      9  C   UNL     1       2.838   2.574  17.383  0.00  0.00    +0.000 C 
ENDBRANCH   4   7
ENDBRANCH   2   4
ENDBRANCH   1   2
BRANCH   1  10
ATOM     10  C   UNL     1       5.515   5.981  18.298  0.00  0.00    +0.000 C 
BRANCH  10  14
ATOM     11  O   UNL     1       6.341   3.690  14.265  0.00  0.00    +0.000 OA
ATOM     12  C   UNL     1       6.520   4.227  15.349  0.00  0.00    +0.000 A 
ATOM     13  N   UNL     1       5.544   4.760  16.168  0.00  0.00    +0.000 NA
ATOM     14  C   UNL     1       6.192   5.224  17.194  0.00  0.00    +0.000 A 
ATOM     15  N   UNL     1       7.539   4.985  17.185  0.00  0.00    +0.000 N 
ATOM     16  O   UNL     1       7.764   4.434  15.916  0.00  0.00    +0.000 OA
ATOM     17  H   UNL     1       8.163   5.743  17.441  0.00  0.00    +0.000 HD
ENDBRANCH  10  14
ENDBRANCH   1  10
TORSDOF 5
ENDMDL
