MODEL 1
REMARK VINA RESULT:      -8.1      0.000      0.000
REMARK  Name = 
REMARK  3 active torsions:
REMARK  status: ('A' for Active; 'I' for Inactive)
REMARK    1  A    between atoms: C_2  and  C_3
REMARK    2  A    between atoms: C_3  and  N_4
REMARK    3  A    between atoms: C_5  and  C_7
REMARK                            x       y       z     vdW  Elec       q    Type
REMARK                         _______ _______ _______ _____ _____    ______ ____
ROOT
ATOM      1  C   UNL     1       4.126   4.183  17.636  0.00  0.00    +0.000 C 
ATOM      2  C   UNL     1       4.305   5.108  16.385  0.00  0.00    +0.000 C 
ATOM      3  C   UNL     1       4.631   6.566  16.841  0.00  0.00    +0.000 C 
ATOM      4  C   UNL     1       5.946   6.446  17.597  0.00  0.00    +0.000 A 
ATOM      5  C   UNL     1       7.095   7.166  17.312  0.00  0.00    +0.000 A 
ATOM      6  C   UNL     1       8.185   7.033  18.167  0.00  0.00    +0.000 A 
ATOM      7  C   UNL     1       8.118   6.186  19.285  0.00  0.00    +0.000 A 
ATOM      8  C   UNL     1       6.961   5.454  19.570  0.00  0.00    +0.000 A 
ATOM      9  C   UNL     1       5.871   5.584  18.728  0.00  0.00    +0.000 A 
ATOM     10  C   UNL     1       4.475   4.976  18.944  0.00  0.00    +0.000 C 
ATOM     11  C   UNL     1       3.532   6.173  19.024  0.00  0.00    +0.000 A 
ATOM     12  C   UNL     1       2.626   6.424  20.048  0.00  0.00    +0.000 A 
ATOM     13  C   UNL     1       1.713   7.468  19.880  0.00  0.00    +0.000 A 
ATOM     14  C   UNL     1       1.735   8.267  18.724  0.00  0.00    +0.000 A 
ATOM     15  C   UNL     1       2.696   8.066  17.728  0.00  0.00    +0.000 A 
ATOM     16  C   UNL     1       3.594   7.016  17.875  0.00  0.00    +0.000 A 
ENDROOT
BRANCH   1  18
ATOM     17  N   UNL     1       2.331   2.761  18.843  0.00  0.00    +0.000 N 
ATOM     18  C   UNL     1       2.833   3.326  17.698  0.00  0.00    +0.000 C 
ATOM     19  O   UNL     1       2.181   3.146  16.650  0.00  0.00    +0.000 OA
ATOM     20  H   UNL     1       1.504   2.215  18.652  0.00  0.00    +0.000 HD
BRANCH  17  21
ATOM     21  C   UNL     1       3.138   2.296  19.930  0.00  0.00    +0.000 C 
BRANCH  21  23
ATOM     22  C   UNL     1       1.397   2.953  21.568  0.00  0.00    +0.000 C 
ATOM     23  C   UNL     1       2.676   2.647  21.298  0.00  0.00    +0.000 C 
ENDBRANCH  21  23
ENDBRANCH  17  21
ENDBRANCH   1  18
TORSDOF 3
ENDMDL
MODEL 2
REMARK VINA RESULT:      -8.1      2.068      3.820
REMARK  Name = 
REMARK  3 active torsions:
REMARK  status: ('A' for Active; 'I' for Inactive)
REMARK    1  A    between atoms: C_2  and  C_3
REMARK    2  A    between atoms: C_3  and  N_4
REMARK    3  A    between atoms: C_5  and  C_7
REMARK                            x       y       z     vdW  Elec       q    Type
REMARK                         _______ _______ _______ _____ _____    ______ ____
ROOT
ATOM      1  C   UNL     1       3.929   6.285  18.593  0.00  0.00    +0.000 C 
ATOM      2  C   UNL     1       5.097   5.619  19.396  0.00  0.00    +0.000 C 
ATOM      3  C   UNL     1       5.528   4.286  18.703  0.00  0.00    +0.000 C 
ATOM      4  C   UNL     1       6.013   4.710  17.325  0.00  0.00    +0.000 A 
ATOM      5  C   UNL     1       7.260   4.417  16.796  0.00  0.00    +0.000 A 
ATOM      6  C   UNL     1       7.516   4.772  15.475  0.00  0.00    +0.000 A 
ATOM      7  C   UNL     1       6.534   5.415  14.704  0.00  0.00    +0.000 A 
ATOM      8  C   UNL     1       5.277   5.718  15.239  0.00  0.00    +0.000 A 
ATOM      9  C   UNL     1       5.012   5.364  16.550  0.00  0.00    +0.000 A 
ATOM     10  C   UNL     1       3.660   5.485  17.272  0.00  0.00    +0.000 C 
ATOM     11  C   UNL     1       3.293   4.056  17.663  0.00  0.00    +0.000 A 
ATOM     12  C   UNL     1       2.095   3.417  17.369  0.00  0.00    +0.000 A 
ATOM     13  C   UNL     1       1.849   2.172  17.953  0.00  0.00    +0.000 A 
ATOM     14  C   UNL     1       2.805   1.565  18.786  0.00  0.00    +0.000 A 
ATOM     15  C   UNL     1       4.044   2.170  19.021  0.00  0.00    +0.000 A 
ATOM     16  C   UNL     1       4.289   3.418  18.462  0.00  0.00    +0.000 A 
ENDROOT
BRANCH   1  18
ATOM     17  N   UNL     1       2.288   6.122  20.589  0.00  0.00    +0.000 N 
ATOM     18  C   UNL     1       2.665   6.691  19.398  0.00  0.00    +0.000 C 
ATOM     19  O   UNL     1       1.941   7.607  18.960  0.00  0.00    +0.000 OA
ATOM     20  H   UNL     1       1.417   6.507  20.922  0.00  0.00    +0.000 HD
BRANCH  17  21
ATOM     21  C   UNL     1       2.531   4.756  20.939  0.00  0.00    +0.000 C 
BRANCH  21  23
ATOM     22  C   UNL     1       1.361   2.701  21.684  0.00  0.00    +0.000 C 
ATOM     23  C   UNL     1       1.339   3.871  21.027  0.00  0.00    +0.000 C 
ENDBRANCH  21  23
ENDBRANCH  17  21
ENDBRANCH   1  18
TORSDOF 3
ENDMDL
MODEL 3
REMARK VINA RESULT:      -7.7      2.745      5.813
REMARK  Name = 
REMARK  3 active torsions:
REMARK  status: ('A' for Active; 'I' for Inactive)
REMARK    1  A    between atoms: C_2  and  C_3
REMARK    2  A    between atoms: C_3  and  N_4
REMARK    3  A    between atoms: C_5  and  C_7
REMARK                            x       y       z     vdW  Elec       q    Type
REMARK                         _______ _______ _______ _____ _____    ______ ____
ROOT
ATOM      1  C   UNL     1       5.797   5.277  19.292  0.00  0.00    +0.000 C 
ATOM      2  C   UNL     1       4.810   6.416  18.865  0.00  0.00    +0.000 C 
ATOM      3  C   UNL     1       4.009   5.980  17.596  0.00  0.00    +0.000 C 
ATOM      4  C   UNL     1       3.231   4.750  18.039  0.00  0.00    +0.000 A 
ATOM      5  C   UNL     1       1.857   4.600  17.938  0.00  0.00    +0.000 A 
ATOM      6  C   UNL     1       1.302   3.369  18.277  0.00  0.00    +0.000 A 
ATOM      7  C   UNL     1       2.117   2.313  18.714  0.00  0.00    +0.000 A 
ATOM      8  C   UNL     1       3.503   2.465  18.823  0.00  0.00    +0.000 A 
ATOM      9  C   UNL     1       4.064   3.684  18.483  0.00  0.00    +0.000 A 
ATOM     10  C   UNL     1       5.565   4.005  18.404  0.00  0.00    +0.000 C 
ATOM     11  C   UNL     1       5.807   4.405  16.952  0.00  0.00    +0.000 A 
ATOM     12  C   UNL     1       6.767   3.858  16.109  0.00  0.00    +0.000 A 
ATOM     13  C   UNL     1       6.975   4.460  14.866  0.00  0.00    +0.000 A 
ATOM     14  C   UNL     1       6.207   5.566  14.462  0.00  0.00    +0.000 A 
ATOM     15  C   UNL     1       5.187   6.070  15.275  0.00  0.00    +0.000 A 
ATOM     16  C   UNL     1       4.987   5.492  16.524  0.00  0.00    +0.000 A 
ENDROOT
BRANCH   1  18
ATOM     17  N   UNL     1       7.880   6.772  18.941  0.00  0.00    +0.000 N 
ATOM     18  C   UNL     1       7.280   5.679  19.512  0.00  0.00    +0.000 C 
ATOM     19  O   UNL     1       7.985   4.985  20.273  0.00  0.00    +0.000 OA
ATOM     20  H   UNL     1       8.858   6.826  19.187  0.00  0.00    +0.000 HD
BRANCH  17  21
ATOM     21  C   UNL     1       7.541   7.293  17.652  0.00  0.00    +0.000 C 
BRANCH  21  23
ATOM     22  C   UNL     1       8.510   9.479  18.308  0.00  0.00    +0.000 C 
ATOM     23  C   UNL     1       7.862   8.724  17.407  0.00  0.00    +0.000 C 
ENDBRANCH  21  23
ENDBRANCH  17  21
ENDBRANCH   1  18
TORSDOF 3
ENDMDL
MODEL 4
REMARK VINA RESULT:      -7.7      2.909      5.704
REMARK  Name = 
REMARK  3 active torsions:
REMARK  status: ('A' for Active; 'I' for Inactive)
REMARK    1  A    between atoms: C_2  and  C_3
REMARK    2  A    between atoms: C_3  and  N_4
REMARK    3  A    between atoms: C_5  and  C_7
REMARK                            x       y       z     vdW  Elec       q    Type
REMARK                         _______ _______ _______ _____ _____    ______ ____
ROOT
ATOM      1  C   UNL     1       5.593   4.876  15.913  0.00  0.00    +0.000 C 
ATOM      2  C   UNL     1       5.943   3.838  17.033  0.00  0.00    +0.000 C 
ATOM      3  C   UNL     1       5.876   4.524  18.436  0.00  0.00    +0.000 C 
ATOM      4  C   UNL     1       4.429   4.975  18.572  0.00  0.00    +0.000 A 
ATOM      5  C   UNL     1       3.586   4.637  19.619  0.00  0.00    +0.000 A 
ATOM      6  C   UNL     1       2.324   5.222  19.665  0.00  0.00    +0.000 A 
ATOM      7  C   UNL     1       1.919   6.127  18.671  0.00  0.00    +0.000 A 
ATOM      8  C   UNL     1       2.766   6.464  17.609  0.00  0.00    +0.000 A 
ATOM      9  C   UNL     1       4.025   5.890  17.559  0.00  0.00    +0.000 A 
ATOM     10  C   UNL     1       5.142   6.232  16.560  0.00  0.00    +0.000 C 
ATOM     11  C   UNL     1       6.296   6.741  17.419  0.00  0.00    +0.000 A 
ATOM     12  C   UNL     1       6.964   7.947  17.246  0.00  0.00    +0.000 A 
ATOM     13  C   UNL     1       8.113   8.181  18.007  0.00  0.00    +0.000 A 
ATOM     14  C   UNL     1       8.558   7.238  18.949  0.00  0.00    +0.000 A 
ATOM     15  C   UNL     1       7.843   6.058  19.181  0.00  0.00    +0.000 A 
ATOM     16  C   UNL     1       6.712   5.807  18.413  0.00  0.00    +0.000 A 
ENDROOT
BRANCH   1  18
ATOM     17  N   UNL     1       6.358   4.523  13.466  0.00  0.00    +0.000 N 
ATOM     18  C   UNL     1       6.592   4.998  14.731  0.00  0.00    +0.000 C 
ATOM     19  O   UNL     1       7.678   5.583  14.920  0.00  0.00    +0.000 OA
ATOM     20  H   UNL     1       7.153   4.674  12.863  0.00  0.00    +0.000 HD
BRANCH  17  21
ATOM     21  C   UNL     1       5.580   3.357  13.177  0.00  0.00    +0.000 C 
BRANCH  21  23
ATOM     22  C   UNL     1       4.040   3.285  11.235  0.00  0.00    +0.000 C 
ATOM     23  C   UNL     1       5.268   3.104  11.746  0.00  0.00    +0.000 C 
ENDBRANCH  21  23
ENDBRANCH  17  21
ENDBRANCH   1  18
TORSDOF 3
ENDMDL
MODEL 5
REMARK VINA RESULT:      -7.7      2.230      5.347
REMARK  Name = 
REMARK  3 active torsions:
REMARK  status: ('A' for Active; 'I' for Inactive)
REMARK    1  A    between atoms: C_2  and  C_3
REMARK    2  A    between atoms: C_3  and  N_4
REMARK    3  A    between atoms: C_5  and  C_7
REMARK                            x       y       z     vdW  Elec       q    Type
REMARK                         _______ _______ _______ _____ _____    ______ ____
ROOT
ATOM      1  C   UNL     1       2.197   6.622  18.501  0.00  0.00    +0.000 C 
ATOM      2  C   UNL     1       1.571   5.586  17.507  0.00  0.00    +0.000 C 
ATOM      3  C   UNL     1       2.294   4.207  17.646  0.00  0.00    +0.000 C 
ATOM      4  C   UNL     1       2.031   3.782  19.083  0.00  0.00    +0.000 A 
ATOM      5  C   UNL     1       1.455   2.579  19.463  0.00  0.00    +0.000 A 
ATOM      6  C   UNL     1       1.386   2.281  20.821  0.00  0.00    +0.000 A 
ATOM      7  C   UNL     1       1.885   3.181  21.777  0.00  0.00    +0.000 A 
ATOM      8  C   UNL     1       2.459   4.398  21.395  0.00  0.00    +0.000 A 
ATOM      9  C   UNL     1       2.536   4.700  20.047  0.00  0.00    +0.000 A 
ATOM     10  C   UNL     1       3.248   5.912  19.424  0.00  0.00    +0.000 C 
ATOM     11  C   UNL     1       4.326   5.315  18.523  0.00  0.00    +0.000 A 
ATOM     12  C   UNL     1       5.678   5.636  18.555  0.00  0.00    +0.000 A 
ATOM     13  C   UNL     1       6.501   5.132  17.545  0.00  0.00    +0.000 A 
ATOM     14  C   UNL     1       5.982   4.290  16.545  0.00  0.00    +0.000 A 
ATOM     15  C   UNL     1       4.638   3.902  16.556  0.00  0.00    +0.000 A 
ATOM     16  C   UNL     1       3.807   4.417  17.544  0.00  0.00    +0.000 A 
ENDROOT
BRANCH   1  18
ATOM     17  N   UNL     1       2.226   9.207  18.374  0.00  0.00    +0.000 N 
ATOM     18  C   UNL     1       2.641   7.986  17.907  0.00  0.00    +0.000 C 
ATOM     19  O   UNL     1       3.445   7.993  16.952  0.00  0.00    +0.000 OA
ATOM     20  H   UNL     1       2.606   9.961  17.821  0.00  0.00    +0.000 HD
BRANCH  17  21
ATOM     21  C   UNL     1       0.939   9.452  18.948  0.00  0.00    +0.000 C 
BRANCH  21  23
ATOM     22  C   UNL     1       1.005   8.540  21.252  0.00  0.00    +0.000 C 
ATOM     23  C   UNL     1       0.886   9.592  20.427  0.00  0.00    +0.000 C 
ENDBRANCH  21  23
ENDBRANCH  17  21
ENDBRANCH   1  18
TORSDOF 3
ENDMDL
MODEL 6
REMARK VINA RESULT:      -7.6      2.784      5.706
REMARK  Name = 
REMARK  3 active torsions:
REMARK  status: ('A' for Active; 'I' for Inactive)
REMARK    1  A    between atoms: C_2  and  C_3
REMARK    2  A    between atoms: C_3  and  N_4
REMARK    3  A    between atoms: C_5  and  C_7
REMARK                            x       y       z     vdW  Elec       q    Type
REMARK                         _______ _______ _______ _____ _____    ______ ____
ROOT
ATOM      1  C   UNL     1       5.233   5.370  15.724  0.00  0.00    +0.000 C 
ATOM      2  C   UNL     1       4.819   4.224  16.709  0.00  0.00    +0.000 C 
ATOM      3  C   UNL     1       4.749   4.775  18.170  0.00  0.00    +0.000 C 
ATOM      4  C   UNL     1       3.667   5.844  18.124  0.00  0.00    +0.000 A 
ATOM      5  C   UNL     1       2.549   5.880  18.942  0.00  0.00    +0.000 A 
ATOM      6  C   UNL     1       1.708   6.986  18.862  0.00  0.00    +0.000 A 
ATOM      7  C   UNL     1       1.987   8.033  17.969  0.00  0.00    +0.000 A 
ATOM      8  C   UNL     1       3.111   7.995  17.137  0.00  0.00    +0.000 A 
ATOM      9  C   UNL     1       3.956   6.901  17.214  0.00  0.00    +0.000 A 
ATOM     10  C   UNL     1       5.302   6.737  16.490  0.00  0.00    +0.000 C 
ATOM     11  C   UNL     1       6.333   6.591  17.605  0.00  0.00    +0.000 A 
ATOM     12  C   UNL     1       7.490   7.349  17.744  0.00  0.00    +0.000 A 
ATOM     13  C   UNL     1       8.416   6.969  18.719  0.00  0.00    +0.000 A 
ATOM     14  C   UNL     1       8.167   5.873  19.562  0.00  0.00    +0.000 A 
ATOM     15  C   UNL     1       6.968   5.156  19.477  0.00  0.00    +0.000 A 
ATOM     16  C   UNL     1       6.051   5.513  18.495  0.00  0.00    +0.000 A 
ENDROOT
BRANCH   1  18
ATOM     17  N   UNL     1       6.298   4.474  13.542  0.00  0.00    +0.000 N 
ATOM     18  C   UNL     1       6.420   5.079  14.767  0.00  0.00    +0.000 C 
ATOM     19  O   UNL     1       7.568   5.428  15.109  0.00  0.00    +0.000 OA
ATOM     20  H   UNL     1       7.198   4.348  13.102  0.00  0.00    +0.000 HD
BRANCH  17  21
ATOM     21  C   UNL     1       5.316   3.481  13.230  0.00  0.00    +0.000 C 
BRANCH  21  23
ATOM     22  C   UNL     1       3.957   3.256  11.169  0.00  0.00    +0.000 C 
ATOM     23  C   UNL     1       5.140   3.148  11.792  0.00  0.00    +0.000 C 
ENDBRANCH  21  23
ENDBRANCH  17  21
ENDBRANCH   1  18
TORSDOF 3
ENDMDL
MODEL 7
REMARK VINA RESULT:      -7.5      2.314      5.140
REMARK  Name = 
REMARK  3 active torsions:
REMARK  status: ('A' for Active; 'I' for Inactive)
REMARK    1  A    between atoms: C_2  and  C_3
REMARK    2  A    between atoms: C_3  and  N_4
REMARK    3  A    between atoms: C_5  and  C_7
REMARK                            x       y       z     vdW  Elec       q    Type
REMARK                         _______ _______ _______ _____ _____    ______ ____
ROOT
ATOM      1  C   UNL     1       4.517   5.413  18.041  0.00  0.00    +0.000 C 
ATOM      2  C   UNL     1       4.597   5.439  19.606  0.00  0.00    +0.000 C 
ATOM      3  C   UNL     1       3.168   5.627  20.210  0.00  0.00    +0.000 C 
ATOM      4  C   UNL     1       2.392   4.404  19.744  0.00  0.00    +0.000 A 
ATOM      5  C   UNL     1       1.723   3.522  20.577  0.00  0.00    +0.000 A 
ATOM      6  C   UNL     1       0.959   2.515  19.995  0.00  0.00    +0.000 A 
ATOM      7  C   UNL     1       0.875   2.398  18.598  0.00  0.00    +0.000 A 
ATOM      8  C   UNL     1       1.555   3.283  17.755  0.00  0.00    +0.000 A 
ATOM      9  C   UNL     1       2.314   4.291  18.326  0.00  0.00    +0.000 A 
ATOM     10  C   UNL     1       3.018   5.435  17.580  0.00  0.00    +0.000 C 
ATOM     11  C   UNL     1       2.384   6.711  18.127  0.00  0.00    +0.000 A 
ATOM     12  C   UNL     1       1.818   7.726  17.365  0.00  0.00    +0.000 A 
ATOM     13  C   UNL     1       1.443   8.906  18.011  0.00  0.00    +0.000 A 
ATOM     14  C   UNL     1       1.597   9.048  19.401  0.00  0.00    +0.000 A 
ATOM     15  C   UNL     1       2.094   7.999  20.182  0.00  0.00    +0.000 A 
ATOM     16  C   UNL     1       2.492   6.829  19.545  0.00  0.00    +0.000 A 
ENDROOT
BRANCH   1  18
ATOM     17  N   UNL     1       6.212   6.012  16.179  0.00  0.00    +0.000 N 
ATOM     18  C   UNL     1       5.468   6.371  17.274  0.00  0.00    +0.000 C 
ATOM     19  O   UNL     1       5.559   7.557  17.650  0.00  0.00    +0.000 OA
ATOM     20  H   UNL     1       6.788   6.776  15.858  0.00  0.00    +0.000 HD
BRANCH  17  21
ATOM     21  C   UNL     1       6.753   4.704  15.969  0.00  0.00    +0.000 C 
BRANCH  21  23
ATOM     22  C   UNL     1       6.108   3.912  13.710  0.00  0.00    +0.000 C 
ATOM     23  C   UNL     1       6.002   3.814  15.044  0.00  0.00    +0.000 C 
ENDBRANCH  21  23
ENDBRANCH  17  21
ENDBRANCH   1  18
TORSDOF 3
ENDMDL
MODEL 8
REMARK VINA RESULT:      -7.5      2.257      4.771
REMARK  Name = 
REMARK  3 active torsions:
REMARK  status: ('A' for Active; 'I' for Inactive)
REMARK    1  A    between atoms: C_2  and  C_3
REMARK    2  A    between atoms: C_3  and  N_4
REMARK    3  A    between atoms: C_5  and  C_7
REMARK                            x       y       z     vdW  Elec       q    Type
REMARK                         _______ _______ _______ _____ _____    ______ ____
ROOT
ATOM      1  C   UNL     1       3.829   6.433  18.446  0.00  0.00    +0.000 C 
ATOM      2  C   UNL     1       4.991   5.867  19.330  0.00  0.00    +0.000 C 
ATOM      3  C   UNL     1       5.428   4.463  18.800  0.00  0.00    +0.000 C 
ATOM      4  C   UNL     1       5.924   4.725  17.386  0.00  0.00    +0.000 A 
ATOM      5  C   UNL     1       7.176   4.374  16.905  0.00  0.00    +0.000 A 
ATOM      6  C   UNL     1       7.442   4.574  15.554  0.00  0.00    +0.000 A 
ATOM      7  C   UNL     1       6.466   5.122  14.706  0.00  0.00    +0.000 A 
ATOM      8  C   UNL     1       5.205   5.483  15.191  0.00  0.00    +0.000 A 
ATOM      9  C   UNL     1       4.930   5.283  16.533  0.00  0.00    +0.000 A 
ATOM     10  C   UNL     1       3.571   5.484  17.224  0.00  0.00    +0.000 C 
ATOM     11  C   UNL     1       3.203   4.110  17.776  0.00  0.00    +0.000 A 
ATOM     12  C   UNL     1       2.007   3.439  17.548  0.00  0.00    +0.000 A 
ATOM     13  C   UNL     1       1.757   2.271  18.271  0.00  0.00    +0.000 A 
ATOM     14  C   UNL     1       2.707   1.765  19.176  0.00  0.00    +0.000 A 
ATOM     15  C   UNL     1       3.943   2.395  19.349  0.00  0.00    +0.000 A 
ATOM     16  C   UNL     1       4.192   3.571  18.651  0.00  0.00    +0.000 A 
ENDROOT
BRANCH   1  18
ATOM     17  N   UNL     1       1.730   7.922  18.732  0.00  0.00    +0.000 N 
ATOM     18  C   UNL     1       2.558   6.928  19.188  0.00  0.00    +0.000 C 
ATOM     19  O   UNL     1       2.240   6.382  20.265  0.00  0.00    +0.000 OA
ATOM     20  H   UNL     1       0.985   8.110  19.386  0.00  0.00    +0.000 HD
BRANCH  17  21
ATOM     21  C   UNL     1       2.171   9.044  17.961  0.00  0.00    +0.000 C 
BRANCH  21  23
ATOM     22  C   UNL     1       0.301  10.456  18.770  0.00  0.00    +0.000 C 
ATOM     23  C   UNL     1       1.545  10.355  18.278  0.00  0.00    +0.000 C 
ENDBRANCH  21  23
ENDBRANCH  17  21
ENDBRANCH   1  18
TORSDOF 3
ENDMDL
MODEL 9
REMARK VINA RESULT:      -7.4      2.325      5.596
REMARK  Name = 
REMARK  3 active torsions:
REMARK  status: ('A' for Active; 'I' for Inactive)
REMARK    1  A    between atoms: C_2  and  C_3
REMARK    2  A    between atoms: C_3  and  N_4
REMARK    3  A    between atoms: C_5  and  C_7
REMARK                            x       y       z     vdW  Elec       q    Type
REMARK                         _______ _______ _______ _____ _____    ______ ____
ROOT
ATOM      1  C   UNL     1       2.159   6.631  18.530  0.00  0.00    +0.000 C 
ATOM      2  C   UNL     1       1.527   5.595  17.538  0.00  0.00    +0.000 C 
ATOM      3  C   UNL     1       2.260   4.221  17.663  0.00  0.00    +0.000 C 
ATOM      4  C   UNL     1       2.017   3.787  19.101  0.00  0.00    +0.000 A 
ATOM      5  C   UNL     1       1.454   2.579  19.482  0.00  0.00    +0.000 A 
ATOM      6  C   UNL     1       1.403   2.274  20.839  0.00  0.00    +0.000 A 
ATOM      7  C   UNL     1       1.907   3.173  21.793  0.00  0.00    +0.000 A 
ATOM      8  C   UNL     1       2.470   4.395  21.410  0.00  0.00    +0.000 A 
ATOM      9  C   UNL     1       2.529   4.704  20.062  0.00  0.00    +0.000 A 
ATOM     10  C   UNL     1       3.225   5.923  19.436  0.00  0.00    +0.000 C 
ATOM     11  C   UNL     1       4.296   5.338  18.520  0.00  0.00    +0.000 A 
ATOM     12  C   UNL     1       5.646   5.667  18.537  0.00  0.00    +0.000 A 
ATOM     13  C   UNL     1       6.460   5.172  17.515  0.00  0.00    +0.000 A 
ATOM     14  C   UNL     1       5.935   4.332  16.518  0.00  0.00    +0.000 A 
ATOM     15  C   UNL     1       4.593   3.936  16.543  0.00  0.00    +0.000 A 
ATOM     16  C   UNL     1       3.771   4.441  17.543  0.00  0.00    +0.000 A 
ENDROOT
BRANCH   1  18
ATOM     17  N   UNL     1       2.244   9.217  18.469  0.00  0.00    +0.000 N 
ATOM     18  C   UNL     1       2.587   8.000  17.937  0.00  0.00    +0.000 C 
ATOM     19  O   UNL     1       3.309   8.016  16.919  0.00  0.00    +0.000 OA
ATOM     20  H   UNL     1       2.595   9.977  17.906  0.00  0.00    +0.000 HD
BRANCH  17  21
ATOM     21  C   UNL     1       1.015   9.476  19.156  0.00  0.00    +0.000 C 
BRANCH  21  23
ATOM     22  C   UNL     1      -1.022  10.033  17.857  0.00  0.00    +0.000 C 
ATOM     23  C   UNL     1       0.081  10.434  18.508  0.00  0.00    +0.000 C 
ENDBRANCH  21  23
ENDBRANCH  17  21
ENDBRANCH   1  18
TORSDOF 3
ENDMDL
