MODEL 1
REMARK VINA RESULT:      -6.6      0.000      0.000
REMARK  Name = 
REMARK  7 active torsions:
REMARK  status: ('A' for Active; 'I' for Inactive)
REMARK    1  A    between atoms: C_1  and  N_2
REMARK    2  A    between atoms: N_2  and  C_3
REMARK    3  A    between atoms: N_2  and  C_4
REMARK    4  A    between atoms: C_4  and  C_5
REMARK    5  A    between atoms: C_5  and  C_6
REMARK    6  A    between atoms: C_6  and  C_7
REMARK    7  A    between atoms: C_6  and  N_14
REMARK                            x       y       z     vdW  Elec       q    Type
REMARK                         _______ _______ _______ _____ _____    ______ ____
ROOT
ATOM      1  C   UNL     1       3.464   5.394  18.670  0.00  0.00    +0.000 C 
ENDROOT
BRANCH   1   2
ATOM      2  C   UNL     1       2.743   6.741  18.895  0.00  0.00    +0.000 A 
ATOM      3  C   UNL     1       2.585   7.703  17.879  0.00  0.00    +0.000 A 
ATOM      4  C   UNL     1       1.905   8.904  18.115  0.00  0.00    +0.000 A 
ATOM      5  C   UNL     1       1.333   9.133  19.358  0.00  0.00    +0.000 A 
ATOM      6  F   UNL     1       0.648  10.266  19.571  0.00  0.00    +0.000 F 
ATOM      7  C   UNL     1       1.453   8.203  20.377  0.00  0.00    +0.000 A 
ATOM      8  C   UNL     1       2.178   7.026  20.157  0.00  0.00    +0.000 A 
ENDBRANCH   1   2
BRANCH   1   9
ATOM      9  N   UNL     1       2.755   4.547  17.654  0.00  0.00    +0.000 NA
ATOM     10  C   UNL     1       1.406   4.081  18.073  0.00  0.00    +0.000 C 
ATOM     11  C   UNL     1       1.412   2.958  19.129  0.00  0.00    +0.000 C 
ATOM     12  O   UNL     1       2.174   1.825  18.694  0.00  0.00    +0.000 OA
ATOM     13  C   UNL     1       3.507   2.222  18.354  0.00  0.00    +0.000 C 
ATOM     14  C   UNL     1       3.495   3.313  17.271  0.00  0.00    +0.000 C 
ENDBRANCH   1   9
BRANCH   1  15
ATOM     15  C   UNL     1       4.953   5.621  18.253  0.00  0.00    +0.000 C 
BRANCH  15  16
ATOM     16  C   UNL     1       6.003   5.224  19.303  0.00  0.00    +0.000 C 
BRANCH  16  18
ATOM     17  C   UNL     1       7.454   4.555  17.452  0.00  0.00    +0.000 C 
ATOM     18  N   UNL     1       7.384   5.141  18.791  0.00  0.00    +0.000 NA
ATOM     19  C   UNL     1       7.976   6.482  18.767  0.00  0.00    +0.000 C 
ENDBRANCH  16  18
ENDBRANCH  15  16
ENDBRANCH   1  15
TORSDOF 5
ENDMDL
MODEL 2
REMARK VINA RESULT:      -6.4      3.380      4.735
REMARK  Name = 
REMARK  7 active torsions:
REMARK  status: ('A' for Active; 'I' for Inactive)
REMARK    1  A    between atoms: C_1  and  N_2
REMARK    2  A    between atoms: N_2  and  C_3
REMARK    3  A    between atoms: N_2  and  C_4
REMARK    4  A    between atoms: C_4  and  C_5
REMARK    5  A    between atoms: C_5  and  C_6
REMARK    6  A    between atoms: C_6  and  C_7
REMARK    7  A    between atoms: C_6  and  N_14
REMARK                            x       y       z     vdW  Elec       q    Type
REMARK                         _______ _______ _______ _____ _____    ______ ____
ROOT
ATOM      1  C   UNL     1       5.280   4.357  17.054  0.00  0.00    +0.000 C 
ENDROOT
BRANCH   1   2
ATOM      2  C   UNL     1       6.275   5.455  17.492  0.00  0.00    +0.000 A 
ATOM      3  C   UNL     1       6.253   6.761  16.966  0.00  0.00    +0.000 A 
ATOM      4  C   UNL     1       7.156   7.736  17.405  0.00  0.00    +0.000 A 
ATOM      5  C   UNL     1       8.059   7.428  18.413  0.00  0.00    +0.000 A 
ATOM      6  F   UNL     1       8.898   8.374  18.860  0.00  0.00    +0.000 F 
ATOM      7  C   UNL     1       8.100   6.159  18.965  0.00  0.00    +0.000 A 
ATOM      8  C   UNL     1       7.231   5.169  18.489  0.00  0.00    +0.000 A 
ENDBRANCH   1   2
BRANCH   1   9
ATOM      9  N   UNL     1       3.963   4.486  17.761  0.00  0.00    +0.000 NA
ATOM     10  C   UNL     1       4.047   4.385  19.243  0.00  0.00    +0.000 C 
ATOM     11  C   UNL     1       4.290   2.960  19.779  0.00  0.00    +0.000 C 
ATOM     12  O   UNL     1       3.296   2.040  19.311  0.00  0.00    +0.000 OA
ATOM     13  C   UNL     1       3.239   2.052  17.881  0.00  0.00    +0.000 C 
ATOM     14  C   UNL     1       2.955   3.468  17.354  0.00  0.00    +0.000 C 
ENDBRANCH   1   9
BRANCH   1  15
ATOM     15  C   UNL     1       5.076   4.377  15.504  0.00  0.00    +0.000 C 
BRANCH  15  16
ATOM     16  C   UNL     1       6.214   3.756  14.678  0.00  0.00    +0.000 C 
BRANCH  16  18
ATOM     17  C   UNL     1       7.758   5.107  13.348  0.00  0.00    +0.000 C 
ATOM     18  N   UNL     1       6.467   4.419  13.385  0.00  0.00    +0.000 NA
ATOM     19  C   UNL     1       6.415   3.423  12.309  0.00  0.00    +0.000 C 
ENDBRANCH  16  18
ENDBRANCH  15  16
ENDBRANCH   1  15
TORSDOF 5
ENDMDL
MODEL 3
REMARK VINA RESULT:      -6.3      3.330      4.628
REMARK  Name = 
REMARK  7 active torsions:
REMARK  status: ('A' for Active; 'I' for Inactive)
REMARK    1  A    between atoms: C_1  and  N_2
REMARK    2  A    between atoms: N_2  and  C_3
REMARK    3  A    between atoms: N_2  and  C_4
REMARK    4  A    between atoms: C_4  and  C_5
REMARK    5  A    between atoms: C_5  and  C_6
REMARK    6  A    between atoms: C_6  and  C_7
REMARK    7  A    between atoms: C_6  and  N_14
REMARK                            x       y       z     vdW  Elec       q    Type
REMARK                         _______ _______ _______ _____ _____    ______ ____
ROOT
ATOM      1  C   UNL     1       4.911   4.265  17.451  0.00  0.00    +0.000 C 
ENDROOT
BRANCH   1   2
ATOM      2  C   UNL     1       5.972   5.327  17.813  0.00  0.00    +0.000 A 
ATOM      3  C   UNL     1       6.990   5.100  18.760  0.00  0.00    +0.000 A 
ATOM      4  C   UNL     1       7.948   6.079  19.045  0.00  0.00    +0.000 A 
ATOM      5  C   UNL     1       7.928   7.280  18.349  0.00  0.00    +0.000 A 
ATOM      6  F   UNL     1       8.870   8.202  18.595  0.00  0.00    +0.000 F 
ATOM      7  C   UNL     1       6.952   7.533  17.400  0.00  0.00    +0.000 A 
ATOM      8  C   UNL     1       5.962   6.574  17.152  0.00  0.00    +0.000 A 
ENDBRANCH   1   2
BRANCH   1   9
ATOM      9  N   UNL     1       3.609   4.516  18.155  0.00  0.00    +0.000 NA
ATOM     10  C   UNL     1       3.607   4.146  19.596  0.00  0.00    +0.000 C 
ATOM     11  C   UNL     1       3.560   2.630  19.872  0.00  0.00    +0.000 C 
ATOM     12  O   UNL     1       2.436   2.010  19.236  0.00  0.00    +0.000 OA
ATOM     13  C   UNL     1       2.446   2.280  17.831  0.00  0.00    +0.000 C 
ATOM     14  C   UNL     1       2.450   3.793  17.562  0.00  0.00    +0.000 C 
ENDBRANCH   1   9
BRANCH   1  15
ATOM     15  C   UNL     1       4.694   4.198  15.904  0.00  0.00    +0.000 C 
BRANCH  15  16
ATOM     16  C   UNL     1       5.876   3.642  15.094  0.00  0.00    +0.000 C 
BRANCH  16  18
ATOM     17  C   UNL     1       7.435   5.123  13.929  0.00  0.00    +0.000 C 
ATOM     18  N   UNL     1       6.174   4.385  13.854  0.00  0.00    +0.000 NA
ATOM     19  C   UNL     1       6.224   3.448  12.726  0.00  0.00    +0.000 C 
ENDBRANCH  16  18
ENDBRANCH  15  16
ENDBRANCH   1  15
TORSDOF 5
ENDMDL
MODEL 4
REMARK VINA RESULT:      -6.3      0.817      1.407
REMARK  Name = 
REMARK  7 active torsions:
REMARK  status: ('A' for Active; 'I' for Inactive)
REMARK    1  A    between atoms: C_1  and  N_2
REMARK    2  A    between atoms: N_2  and  C_3
REMARK    3  A    between atoms: N_2  and  C_4
REMARK    4  A    between atoms: C_4  and  C_5
REMARK    5  A    between atoms: C_5  and  C_6
REMARK    6  A    between atoms: C_6  and  C_7
REMARK    7  A    between atoms: C_6  and  N_14
REMARK                            x       y       z     vdW  Elec       q    Type
REMARK                         _______ _______ _______ _____ _____    ______ ____
ROOT
ATOM      1  C   UNL     1       3.365   5.860  18.255  0.00  0.00    +0.000 C 
ENDROOT
BRANCH   1   2
ATOM      2  C   UNL     1       2.547   7.094  18.694  0.00  0.00    +0.000 A 
ATOM      3  C   UNL     1       2.127   7.300  20.023  0.00  0.00    +0.000 A 
ATOM      4  C   UNL     1       1.406   8.443  20.387  0.00  0.00    +0.000 A 
ATOM      5  C   UNL     1       1.141   9.417  19.435  0.00  0.00    +0.000 A 
ATOM      6  F   UNL     1       0.484  10.530  19.794  0.00  0.00    +0.000 F 
ATOM      7  C   UNL     1       1.551   9.257  18.123  0.00  0.00    +0.000 A 
ATOM      8  C   UNL     1       2.227   8.089  17.747  0.00  0.00    +0.000 A 
ENDBRANCH   1   2
BRANCH   1   9
ATOM      9  N   UNL     1       2.479   4.738  17.797  0.00  0.00    +0.000 NA
ATOM     10  C   UNL     1       1.621   4.157  18.865  0.00  0.00    +0.000 C 
ATOM     11  C   UNL     1       2.368   3.266  19.878  0.00  0.00    +0.000 C 
ATOM     12  O   UNL     1       3.076   2.203  19.228  0.00  0.00    +0.000 OA
ATOM     13  C   UNL     1       3.972   2.730  18.244  0.00  0.00    +0.000 C 
ATOM     14  C   UNL     1       3.215   3.583  17.213  0.00  0.00    +0.000 C 
ENDBRANCH   1   9
BRANCH   1  15
ATOM     15  C   UNL     1       4.391   6.239  17.137  0.00  0.00    +0.000 C 
BRANCH  15  16
ATOM     16  C   UNL     1       5.826   6.505  17.619  0.00  0.00    +0.000 C 
BRANCH  16  18
ATOM     17  C   UNL     1       7.198   4.560  17.057  0.00  0.00    +0.000 C 
ATOM     18  N   UNL     1       6.536   5.313  18.122  0.00  0.00    +0.000 NA
ATOM     19  C   UNL     1       7.531   5.725  19.119  0.00  0.00    +0.000 C 
ENDBRANCH  16  18
ENDBRANCH  15  16
ENDBRANCH   1  15
TORSDOF 5
ENDMDL
MODEL 5
REMARK VINA RESULT:      -6.2      1.299      1.751
REMARK  Name = 
REMARK  7 active torsions:
REMARK  status: ('A' for Active; 'I' for Inactive)
REMARK    1  A    between atoms: C_1  and  N_2
REMARK    2  A    between atoms: N_2  and  C_3
REMARK    3  A    between atoms: N_2  and  C_4
REMARK    4  A    between atoms: C_4  and  C_5
REMARK    5  A    between atoms: C_5  and  C_6
REMARK    6  A    between atoms: C_6  and  C_7
REMARK    7  A    between atoms: C_6  and  N_14
REMARK                            x       y       z     vdW  Elec       q    Type
REMARK                         _______ _______ _______ _____ _____    ______ ____
ROOT
ATOM      1  C   UNL     1       3.199   5.657  19.498  0.00  0.00    +0.000 C 
ENDROOT
BRANCH   1   2
ATOM      2  C   UNL     1       2.468   7.005  19.312  0.00  0.00    +0.000 A 
ATOM      3  C   UNL     1       1.819   7.676  20.368  0.00  0.00    +0.000 A 
ATOM      4  C   UNL     1       1.187   8.907  20.164  0.00  0.00    +0.000 A 
ATOM      5  C   UNL     1       1.240   9.506  18.914  0.00  0.00    +0.000 A 
ATOM      6  F   UNL     1       0.667  10.705  18.731  0.00  0.00    +0.000 F 
ATOM      7  C   UNL     1       1.882   8.885  17.857  0.00  0.00    +0.000 A 
ATOM      8  C   UNL     1       2.469   7.628  18.046  0.00  0.00    +0.000 A 
ENDBRANCH   1   2
BRANCH   1   9
ATOM      9  N   UNL     1       2.279   4.491  19.286  0.00  0.00    +0.000 NA
ATOM     10  C   UNL     1       1.366   4.211  20.428  0.00  0.00    +0.000 C 
ATOM     11  C   UNL     1       2.044   3.562  21.651  0.00  0.00    +0.000 C 
ATOM     12  O   UNL     1       2.725   2.351  21.299  0.00  0.00    +0.000 OA
ATOM     13  C   UNL     1       3.670   2.596  20.253  0.00  0.00    +0.000 C 
ATOM     14  C   UNL     1       2.981   3.205  19.021  0.00  0.00    +0.000 C 
ENDBRANCH   1   9
BRANCH   1  15
ATOM     15  C   UNL     1       4.437   5.558  18.549  0.00  0.00    +0.000 C 
BRANCH  15  16
ATOM     16  C   UNL     1       5.801   5.440  19.249  0.00  0.00    +0.000 C 
BRANCH  16  18
ATOM     17  C   UNL     1       6.557   4.648  17.063  0.00  0.00    +0.000 C 
ATOM     18  N   UNL     1       6.945   5.252  18.338  0.00  0.00    +0.000 NA
ATOM     19  C   UNL     1       7.586   6.548  18.089  0.00  0.00    +0.000 C 
ENDBRANCH  16  18
ENDBRANCH  15  16
ENDBRANCH   1  15
TORSDOF 5
ENDMDL
MODEL 6
REMARK VINA RESULT:      -6.2      1.404      1.565
REMARK  Name = 
REMARK  7 active torsions:
REMARK  status: ('A' for Active; 'I' for Inactive)
REMARK    1  A    between atoms: C_1  and  N_2
REMARK    2  A    between atoms: N_2  and  C_3
REMARK    3  A    between atoms: N_2  and  C_4
REMARK    4  A    between atoms: C_4  and  C_5
REMARK    5  A    between atoms: C_5  and  C_6
REMARK    6  A    between atoms: C_6  and  C_7
REMARK    7  A    between atoms: C_6  and  N_14
REMARK                            x       y       z     vdW  Elec       q    Type
REMARK                         _______ _______ _______ _____ _____    ______ ____
ROOT
ATOM      1  C   UNL     1       2.970   5.877  19.265  0.00  0.00    +0.000 C 
ENDROOT
BRANCH   1   2
ATOM      2  C   UNL     1       2.301   7.268  19.227  0.00  0.00    +0.000 A 
ATOM      3  C   UNL     1       2.183   8.028  18.047  0.00  0.00    +0.000 A 
ATOM      4  C   UNL     1       1.549   9.276  18.048  0.00  0.00    +0.000 A 
ATOM      5  C   UNL     1       0.982   9.755  19.220  0.00  0.00    +0.000 A 
ATOM      6  F   UNL     1       0.341  10.933  19.210  0.00  0.00    +0.000 F 
ATOM      7  C   UNL     1       1.065   9.029  20.396  0.00  0.00    +0.000 A 
ATOM      8  C   UNL     1       1.744   7.805  20.407  0.00  0.00    +0.000 A 
ENDBRANCH   1   2
BRANCH   1   9
ATOM      9  N   UNL     1       1.957   4.770  19.216  0.00  0.00    +0.000 NA
ATOM     10  C   UNL     1       1.285   4.493  20.514  0.00  0.00    +0.000 C 
ATOM     11  C   UNL     1       2.160   3.759  21.549  0.00  0.00    +0.000 C 
ATOM     12  O   UNL     1       2.679   2.529  21.028  0.00  0.00    +0.000 OA
ATOM     13  C   UNL     1       3.400   2.766  19.815  0.00  0.00    +0.000 C 
ATOM     14  C   UNL     1       2.510   3.461  18.772  0.00  0.00    +0.000 C 
ENDBRANCH   1   9
BRANCH   1  15
ATOM     15  C   UNL     1       4.006   5.724  18.104  0.00  0.00    +0.000 C 
BRANCH  15  16
ATOM     16  C   UNL     1       5.465   5.515  18.541  0.00  0.00    +0.000 C 
BRANCH  16  18
ATOM     17  C   UNL     1       5.625   4.146  16.520  0.00  0.00    +0.000 C 
ATOM     18  N   UNL     1       6.158   4.405  17.858  0.00  0.00    +0.000 NA
ATOM     19  C   UNL     1       7.589   4.712  17.762  0.00  0.00    +0.000 C 
ENDBRANCH  16  18
ENDBRANCH  15  16
ENDBRANCH   1  15
TORSDOF 5
ENDMDL
MODEL 7
REMARK VINA RESULT:      -6.2      0.813      1.641
REMARK  Name = 
REMARK  7 active torsions:
REMARK  status: ('A' for Active; 'I' for Inactive)
REMARK    1  A    between atoms: C_1  and  N_2
REMARK    2  A    between atoms: N_2  and  C_3
REMARK    3  A    between atoms: N_2  and  C_4
REMARK    4  A    between atoms: C_4  and  C_5
REMARK    5  A    between atoms: C_5  and  C_6
REMARK    6  A    between atoms: C_6  and  C_7
REMARK    7  A    between atoms: C_6  and  N_14
REMARK                            x       y       z     vdW  Elec       q    Type
REMARK                         _______ _______ _______ _____ _____    ______ ____
ROOT
ATOM      1  C   UNL     1       3.663   5.290  18.752  0.00  0.00    +0.000 C 
ENDROOT
BRANCH   1   2
ATOM      2  C   UNL     1       2.848   6.588  18.933  0.00  0.00    +0.000 A 
ATOM      3  C   UNL     1       2.223   6.937  20.146  0.00  0.00    +0.000 A 
ATOM      4  C   UNL     1       1.511   8.135  20.278  0.00  0.00    +0.000 A 
ATOM      5  C   UNL     1       1.459   9.021  19.212  0.00  0.00    +0.000 A 
ATOM      6  F   UNL     1       0.810  10.187  19.353  0.00  0.00    +0.000 F 
ATOM      7  C   UNL     1       2.074   8.720  18.009  0.00  0.00    +0.000 A 
ATOM      8  C   UNL     1       2.742   7.499  17.860  0.00  0.00    +0.000 A 
ENDBRANCH   1   2
BRANCH   1   9
ATOM      9  N   UNL     1       3.125   4.445  17.634  0.00  0.00    +0.000 NA
ATOM     10  C   UNL     1       1.661   4.190  17.706  0.00  0.00    +0.000 C 
ATOM     11  C   UNL     1       1.235   3.178  18.789  0.00  0.00    +0.000 C 
ATOM     12  O   UNL     1       1.914   1.924  18.638  0.00  0.00    +0.000 OA
ATOM     13  C   UNL     1       3.331   2.121  18.642  0.00  0.00    +0.000 C 
ATOM     14  C   UNL     1       3.753   3.099  17.534  0.00  0.00    +0.000 C 
ENDBRANCH   1   9
BRANCH   1  15
ATOM     15  C   UNL     1       5.176   5.609  18.518  0.00  0.00    +0.000 C 
BRANCH  15  16
ATOM     16  C   UNL     1       5.572   5.909  17.064  0.00  0.00    +0.000 C 
BRANCH  16  18
ATOM     17  C   UNL     1       7.555   4.649  17.741  0.00  0.00    +0.000 C 
ATOM     18  N   UNL     1       6.901   5.403  16.671  0.00  0.00    +0.000 NA
ATOM     19  C   UNL     1       6.766   4.550  15.485  0.00  0.00    +0.000 C 
ENDBRANCH  16  18
ENDBRANCH  15  16
ENDBRANCH   1  15
TORSDOF 5
ENDMDL
MODEL 8
REMARK VINA RESULT:      -6.2      1.074      1.430
REMARK  Name = 
REMARK  7 active torsions:
REMARK  status: ('A' for Active; 'I' for Inactive)
REMARK    1  A    between atoms: C_1  and  N_2
REMARK    2  A    between atoms: N_2  and  C_3
REMARK    3  A    between atoms: N_2  and  C_4
REMARK    4  A    between atoms: C_4  and  C_5
REMARK    5  A    between atoms: C_5  and  C_6
REMARK    6  A    between atoms: C_6  and  C_7
REMARK    7  A    between atoms: C_6  and  N_14
REMARK                            x       y       z     vdW  Elec       q    Type
REMARK                         _______ _______ _______ _____ _____    ______ ____
ROOT
ATOM      1  C   UNL     1       3.640   5.516  18.581  0.00  0.00    +0.000 C 
ENDROOT
BRANCH   1   2
ATOM      2  C   UNL     1       2.841   6.818  18.805  0.00  0.00    +0.000 A 
ATOM      3  C   UNL     1       2.625   7.768  17.787  0.00  0.00    +0.000 A 
ATOM      4  C   UNL     1       1.875   8.926  18.021  0.00  0.00    +0.000 A 
ATOM      5  C   UNL     1       1.290   9.123  19.264  0.00  0.00    +0.000 A 
ATOM      6  F   UNL     1       0.539  10.214  19.476  0.00  0.00    +0.000 F 
ATOM      7  C   UNL     1       1.467   8.204  20.285  0.00  0.00    +0.000 A 
ATOM      8  C   UNL     1       2.260   7.071  20.066  0.00  0.00    +0.000 A 
ENDBRANCH   1   2
BRANCH   1   9
ATOM      9  N   UNL     1       3.025   4.662  17.511  0.00  0.00    +0.000 NA
ATOM     10  C   UNL     1       1.588   4.344  17.728  0.00  0.00    +0.000 C 
ATOM     11  C   UNL     1       1.318   3.302  18.832  0.00  0.00    +0.000 C 
ATOM     12  O   UNL     1       2.029   2.080  18.593  0.00  0.00    +0.000 OA
ATOM     13  C   UNL     1       3.430   2.338  18.456  0.00  0.00    +0.000 C 
ATOM     14  C   UNL     1       3.696   3.346  17.326  0.00  0.00    +0.000 C 
ENDBRANCH   1   9
BRANCH   1  15
ATOM     15  C   UNL     1       5.134   5.830  18.242  0.00  0.00    +0.000 C 
BRANCH  15  16
ATOM     16  C   UNL     1       5.386   6.409  16.840  0.00  0.00    +0.000 C 
BRANCH  16  18
ATOM     17  C   UNL     1       7.179   4.746  16.886  0.00  0.00    +0.000 C 
ATOM     18  N   UNL     1       6.475   5.753  16.091  0.00  0.00    +0.000 NA
ATOM     19  C   UNL     1       5.925   5.124  14.885  0.00  0.00    +0.000 C 
ENDBRANCH  16  18
ENDBRANCH  15  16
ENDBRANCH   1  15
TORSDOF 5
ENDMDL
MODEL 9
REMARK VINA RESULT:      -6.2      0.535      1.431
REMARK  Name = 
REMARK  7 active torsions:
REMARK  status: ('A' for Active; 'I' for Inactive)
REMARK    1  A    between atoms: C_1  and  N_2
REMARK    2  A    between atoms: N_2  and  C_3
REMARK    3  A    between atoms: N_2  and  C_4
REMARK    4  A    between atoms: C_4  and  C_5
REMARK    5  A    between atoms: C_5  and  C_6
REMARK    6  A    between atoms: C_6  and  C_7
REMARK    7  A    between atoms: C_6  and  N_14
REMARK                            x       y       z     vdW  Elec       q    Type
REMARK                         _______ _______ _______ _____ _____    ______ ____
ROOT
ATOM      1  C   UNL     1       3.065   5.414  18.843  0.00  0.00    +0.000 C 
ENDROOT
BRANCH   1   2
ATOM      2  C   UNL     1       2.402   6.790  19.069  0.00  0.00    +0.000 A 
ATOM      3  C   UNL     1       1.863   7.186  20.309  0.00  0.00    +0.000 A 
ATOM      4  C   UNL     1       1.291   8.451  20.481  0.00  0.00    +0.000 A 
ATOM      5  C   UNL     1       1.295   9.353  19.427  0.00  0.00    +0.000 A 
ATOM      6  F   UNL     1       0.781  10.579  19.605  0.00  0.00    +0.000 F 
ATOM      7  C   UNL     1       1.829   9.006  18.198  0.00  0.00    +0.000 A 
ATOM      8  C   UNL     1       2.355   7.722  18.010  0.00  0.00    +0.000 A 
ENDBRANCH   1   2
BRANCH   1   9
ATOM      9  N   UNL     1       2.183   4.494  18.050  0.00  0.00    +0.000 NA
ATOM     10  C   UNL     1       1.219   3.709  18.868  0.00  0.00    +0.000 C 
ATOM     11  C   UNL     1       1.847   2.552  19.671  0.00  0.00    +0.000 C 
ATOM     12  O   UNL     1       2.571   1.651  18.824  0.00  0.00    +0.000 OA
ATOM     13  C   UNL     1       3.564   2.360  18.075  0.00  0.00    +0.000 C 
ATOM     14  C   UNL     1       2.926   3.486  17.245  0.00  0.00    +0.000 C 
ENDBRANCH   1   9
BRANCH   1  15
ATOM     15  C   UNL     1       4.456   5.572  18.148  0.00  0.00    +0.000 C 
BRANCH  15  16
ATOM     16  C   UNL     1       5.675   5.243  19.025  0.00  0.00    +0.000 C 
BRANCH  16  18
ATOM     17  C   UNL     1       8.032   5.742  19.445  0.00  0.00    +0.000 C 
ATOM     18  N   UNL     1       6.975   5.625  18.440  0.00  0.00    +0.000 NA
ATOM     19  C   UNL     1       7.366   4.633  17.433  0.00  0.00    +0.000 C 
ENDBRANCH  16  18
ENDBRANCH  15  16
ENDBRANCH   1  15
TORSDOF 5
ENDMDL
