MODEL 1
REMARK VINA RESULT:      -8.3      0.000      0.000
REMARK  Name = 
REMARK  4 active torsions:
REMARK  status: ('A' for Active; 'I' for Inactive)
REMARK    1  A    between atoms: C_2  and  C_3
REMARK    2  A    between atoms: C_3  and  C_4
REMARK    3  A    between atoms: C_12  and  C_13
REMARK    4  A    between atoms: N_21  and  C_22
REMARK                            x       y       z     vdW  Elec       q    Type
REMARK                         _______ _______ _______ _____ _____    ______ ____
ROOT
ATOM      1  C   UNL     1       0.489  11.053  20.679  0.00  0.00    +0.000 A 
ATOM      2  C   UNL     1      -0.144  10.963  21.908  0.00  0.00    +0.000 A 
ATOM      3  S   UNL     1      -0.063   9.344  22.521  0.00  0.00    +0.000 S 
ATOM      4  C   UNL     1       0.799   8.837  21.158  0.00  0.00    +0.000 A 
ATOM      5  N   UNL     1       0.986   9.818  20.309  0.00  0.00    +0.000 N 
ATOM      6  C   UNL     1       1.650   9.384  19.179  0.00  0.00    +0.000 C 
ATOM      7  O   UNL     1       1.806  10.150  18.245  0.00  0.00    +0.000 OA
ATOM      8  C   UNL     1       1.991   7.929  19.218  0.00  0.00    +0.000 C 
ATOM      9  C   UNL     1       2.608   7.287  18.217  0.00  0.00    +0.000 C 
ATOM     10  S   UNL     1       1.395   7.261  20.717  0.00  0.00    +0.000 S 
ENDROOT
BRANCH   9  11
ATOM     11  C   UNL     1       2.872   5.846  18.206  0.00  0.00    +0.000 A 
ATOM     12  C   UNL     1       1.863   4.956  17.816  0.00  0.00    +0.000 A 
ATOM     13  C   UNL     1       2.090   3.578  17.852  0.00  0.00    +0.000 A 
ATOM     14  C   UNL     1       3.324   3.089  18.275  0.00  0.00    +0.000 A 
ATOM     15 CL   UNL     1       3.595   1.393  18.341  0.00  0.00    +0.000 Cl
ATOM     16  C   UNL     1       4.339   3.970  18.646  0.00  0.00    +0.000 A 
ATOM     17  C   UNL     1       4.115   5.346  18.611  0.00  0.00    +0.000 A 
ENDBRANCH   9  11
BRANCH   1  18
ATOM     18  C   UNL     1       0.650  12.263  19.811  0.00  0.00    +0.000 C 
BRANCH  18  20
ATOM     19  O   UNL     1      -0.519  13.363  18.051  0.00  0.00    +0.000 OA
ATOM     20  C   UNL     1      -0.455  12.368  18.772  0.00  0.00    +0.000 C 
ATOM     21  N   UNL     1      -1.296  11.266  18.743  0.00  0.00    +0.000 N 
ATOM     22  H   UNL     1      -1.255  10.599  19.507  0.00  0.00    +0.000 HD
BRANCH  21  23
ATOM     23  C   UNL     1      -2.274  10.991  17.757  0.00  0.00    +0.000 A 
ATOM     24  C   UNL     1      -3.536  11.588  17.754  0.00  0.00    +0.000 A 
ATOM     25  C   UNL     1      -4.457  11.305  16.740  0.00  0.00    +0.000 A 
ATOM     26  C   UNL     1      -4.123  10.422  15.718  0.00  0.00    +0.000 A 
ATOM     27  C   UNL     1      -2.866   9.823  15.707  0.00  0.00    +0.000 A 
ATOM     28  C   UNL     1      -1.941  10.111  16.717  0.00  0.00    +0.000 A 
ENDBRANCH  21  23
ENDBRANCH  18  20
ENDBRANCH   1  18
TORSDOF 4
ENDMDL
MODEL 2
REMARK VINA RESULT:      -8.0      0.551      1.445
REMARK  Name = 
REMARK  4 active torsions:
REMARK  status: ('A' for Active; 'I' for Inactive)
REMARK    1  A    between atoms: C_2  and  C_3
REMARK    2  A    between atoms: C_3  and  C_4
REMARK    3  A    between atoms: C_12  and  C_13
REMARK    4  A    between atoms: N_21  and  C_22
REMARK                            x       y       z     vdW  Elec       q    Type
REMARK                         _______ _______ _______ _____ _____    ______ ____
ROOT
ATOM      1  C   UNL     1       0.599  10.992  20.598  0.00  0.00    +0.000 A 
ATOM      2  C   UNL     1       0.008  10.962  21.852  0.00  0.00    +0.000 A 
ATOM      3  S   UNL     1       0.097   9.371  22.533  0.00  0.00    +0.000 S 
ATOM      4  C   UNL     1       0.907   8.796  21.166  0.00  0.00    +0.000 A 
ATOM      5  N   UNL     1       1.073   9.736  20.268  0.00  0.00    +0.000 N 
ATOM      6  C   UNL     1       1.694   9.246  19.136  0.00  0.00    +0.000 C 
ATOM      7  O   UNL     1       1.824   9.968  18.164  0.00  0.00    +0.000 OA
ATOM      8  C   UNL     1       2.025   7.791  19.229  0.00  0.00    +0.000 C 
ATOM      9  C   UNL     1       2.602   7.099  18.238  0.00  0.00    +0.000 C 
ATOM     10  S   UNL     1       1.475   7.196  20.776  0.00  0.00    +0.000 S 
ENDROOT
BRANCH   9  11
ATOM     11  C   UNL     1       2.853   5.656  18.283  0.00  0.00    +0.000 A 
ATOM     12  C   UNL     1       4.097   5.178  18.712  0.00  0.00    +0.000 A 
ATOM     13  C   UNL     1       4.362   3.806  18.711  0.00  0.00    +0.000 A 
ATOM     14  C   UNL     1       3.383   2.912  18.281  0.00  0.00    +0.000 A 
ATOM     15 CL   UNL     1       3.717   1.226  18.256  0.00  0.00    +0.000 Cl
ATOM     16  C   UNL     1       2.136   3.380  17.870  0.00  0.00    +0.000 A 
ATOM     17  C   UNL     1       1.870   4.749  17.871  0.00  0.00    +0.000 A 
ENDBRANCH   9  11
BRANCH   1  18
ATOM     18  C   UNL     1       0.740  12.160  19.672  0.00  0.00    +0.000 C 
BRANCH  18  20
ATOM     19  O   UNL     1      -0.789  13.708  18.703  0.00  0.00    +0.000 OA
ATOM     20  C   UNL     1      -0.585  12.540  19.031  0.00  0.00    +0.000 C 
ATOM     21  N   UNL     1      -1.448  11.468  18.866  0.00  0.00    +0.000 N 
ATOM     22  H   UNL     1      -1.244  10.596  19.343  0.00  0.00    +0.000 HD
BRANCH  21  23
ATOM     23  C   UNL     1      -2.653  11.476  18.121  0.00  0.00    +0.000 A 
ATOM     24  C   UNL     1      -2.718  11.086  16.781  0.00  0.00    +0.000 A 
ATOM     25  C   UNL     1      -3.937  11.082  16.097  0.00  0.00    +0.000 A 
ATOM     26  C   UNL     1      -5.105  11.470  16.747  0.00  0.00    +0.000 A 
ATOM     27  C   UNL     1      -5.055  11.857  18.083  0.00  0.00    +0.000 A 
ATOM     28  C   UNL     1      -3.836  11.853  18.771  0.00  0.00    +0.000 A 
ENDBRANCH  21  23
ENDBRANCH  18  20
ENDBRANCH   1  18
TORSDOF 4
ENDMDL
MODEL 3
REMARK VINA RESULT:      -7.9      0.774      1.350
REMARK  Name = 
REMARK  4 active torsions:
REMARK  status: ('A' for Active; 'I' for Inactive)
REMARK    1  A    between atoms: C_2  and  C_3
REMARK    2  A    between atoms: C_3  and  C_4
REMARK    3  A    between atoms: C_12  and  C_13
REMARK    4  A    between atoms: N_21  and  C_22
REMARK                            x       y       z     vdW  Elec       q    Type
REMARK                         _______ _______ _______ _____ _____    ______ ____
ROOT
ATOM      1  C   UNL     1       0.732  10.865  20.365  0.00  0.00    +0.000 A 
ATOM      2  C   UNL     1       0.319  10.881  21.688  0.00  0.00    +0.000 A 
ATOM      3  S   UNL     1       0.566   9.333  22.426  0.00  0.00    +0.000 S 
ATOM      4  C   UNL     1       1.206   8.714  20.989  0.00  0.00    +0.000 A 
ATOM      5  N   UNL     1       1.208   9.611  20.033  0.00  0.00    +0.000 N 
ATOM      6  C   UNL     1       1.689   9.083  18.851  0.00  0.00    +0.000 C 
ATOM      7  O   UNL     1       1.655   9.757  17.837  0.00  0.00    +0.000 OA
ATOM      8  C   UNL     1       2.089   7.647  18.966  0.00  0.00    +0.000 C 
ATOM      9  C   UNL     1       2.554   6.924  17.938  0.00  0.00    +0.000 C 
ATOM     10  S   UNL     1       1.780   7.117  20.601  0.00  0.00    +0.000 S 
ENDROOT
BRANCH   9  11
ATOM     11  C   UNL     1       2.868   5.495  18.017  0.00  0.00    +0.000 A 
ATOM     12  C   UNL     1       1.875   4.547  17.743  0.00  0.00    +0.000 A 
ATOM     13  C   UNL     1       2.153   3.183  17.865  0.00  0.00    +0.000 A 
ATOM     14  C   UNL     1       3.423   2.767  18.259  0.00  0.00    +0.000 A 
ATOM     15 CL   UNL     1       3.757   1.090  18.432  0.00  0.00    +0.000 Cl
ATOM     16  C   UNL     1       4.421   3.705  18.515  0.00  0.00    +0.000 A 
ATOM     17  C   UNL     1       4.146   5.067  18.394  0.00  0.00    +0.000 A 
ENDBRANCH   9  11
BRANCH   1  18
ATOM     18  C   UNL     1       0.696  11.987  19.374  0.00  0.00    +0.000 C 
BRANCH  18  20
ATOM     19  O   UNL     1      -0.979  13.667  19.159  0.00  0.00    +0.000 OA
ATOM     20  C   UNL     1      -0.722  12.464  19.107  0.00  0.00    +0.000 C 
ATOM     21  N   UNL     1      -1.604  11.439  18.803  0.00  0.00    +0.000 N 
ATOM     22  H   UNL     1      -1.319  10.480  18.975  0.00  0.00    +0.000 HD
BRANCH  21  23
ATOM     23  C   UNL     1      -2.924  11.594  18.313  0.00  0.00    +0.000 A 
ATOM     24  C   UNL     1      -3.304  11.211  17.025  0.00  0.00    +0.000 A 
ATOM     25  C   UNL     1      -4.627  11.356  16.597  0.00  0.00    +0.000 A 
ATOM     26  C   UNL     1      -5.585  11.887  17.456  0.00  0.00    +0.000 A 
ATOM     27  C   UNL     1      -5.220  12.269  18.744  0.00  0.00    +0.000 A 
ATOM     28  C   UNL     1      -3.898  12.116  19.175  0.00  0.00    +0.000 A 
ENDBRANCH  21  23
ENDBRANCH  18  20
ENDBRANCH   1  18
TORSDOF 4
ENDMDL
MODEL 4
REMARK VINA RESULT:      -7.4      2.582      4.101
REMARK  Name = 
REMARK  4 active torsions:
REMARK  status: ('A' for Active; 'I' for Inactive)
REMARK    1  A    between atoms: C_2  and  C_3
REMARK    2  A    between atoms: C_3  and  C_4
REMARK    3  A    between atoms: C_12  and  C_13
REMARK    4  A    between atoms: N_21  and  C_22
REMARK                            x       y       z     vdW  Elec       q    Type
REMARK                         _______ _______ _______ _____ _____    ______ ____
ROOT
ATOM      1  C   UNL     1      -0.691  11.362  21.370  0.00  0.00    +0.000 A 
ATOM      2  C   UNL     1      -0.911  11.049  22.702  0.00  0.00    +0.000 A 
ATOM      3  S   UNL     1      -0.122   9.564  23.120  0.00  0.00    +0.000 S 
ATOM      4  C   UNL     1       0.475   9.401  21.547  0.00  0.00    +0.000 A 
ATOM      5  N   UNL     1       0.086  10.386  20.775  0.00  0.00    +0.000 N 
ATOM      6  C   UNL     1       0.540  10.220  19.482  0.00  0.00    +0.000 C 
ATOM      7  O   UNL     1       0.174  10.994  18.615  0.00  0.00    +0.000 OA
ATOM      8  C   UNL     1       1.358   8.983  19.299  0.00  0.00    +0.000 C 
ATOM      9  C   UNL     1       1.875   8.606  18.121  0.00  0.00    +0.000 C 
ATOM     10  S   UNL     1       1.440   8.142  20.827  0.00  0.00    +0.000 S 
ENDROOT
BRANCH   9  11
ATOM     11  C   UNL     1       2.606   7.353  17.910  0.00  0.00    +0.000 A 
ATOM     12  C   UNL     1       3.940   7.387  17.488  0.00  0.00    +0.000 A 
ATOM     13  C   UNL     1       4.628   6.198  17.236  0.00  0.00    +0.000 A 
ATOM     14  C   UNL     1       3.983   4.974  17.407  0.00  0.00    +0.000 A 
ATOM     15 CL   UNL     1       4.822   3.511  17.074  0.00  0.00    +0.000 Cl
ATOM     16  C   UNL     1       2.661   4.933  17.845  0.00  0.00    +0.000 A 
ATOM     17  C   UNL     1       1.972   6.119  18.097  0.00  0.00    +0.000 A 
ENDBRANCH   9  11
BRANCH   1  18
ATOM     18  C   UNL     1      -1.188  12.552  20.608  0.00  0.00    +0.000 C 
BRANCH  18  20
ATOM     19  O   UNL     1       0.411  14.079  21.494  0.00  0.00    +0.000 OA
ATOM     20  C   UNL     1      -0.124  13.629  20.480  0.00  0.00    +0.000 C 
ATOM     21  N   UNL     1       0.148  13.987  19.169  0.00  0.00    +0.000 N 
ATOM     22  H   UNL     1      -0.486  13.684  18.437  0.00  0.00    +0.000 HD
BRANCH  21  23
ATOM     23  C   UNL     1       1.222  14.802  18.734  0.00  0.00    +0.000 A 
ATOM     24  C   UNL     1       1.155  16.197  18.713  0.00  0.00    +0.000 A 
ATOM     25  C   UNL     1       2.253  16.958  18.303  0.00  0.00    +0.000 A 
ATOM     26  C   UNL     1       3.432  16.331  17.910  0.00  0.00    +0.000 A 
ATOM     27  C   UNL     1       3.513  14.941  17.931  0.00  0.00    +0.000 A 
ATOM     28  C   UNL     1       2.417  14.179  18.349  0.00  0.00    +0.000 A 
ENDBRANCH  21  23
ENDBRANCH  18  20
ENDBRANCH   1  18
TORSDOF 4
ENDMDL
MODEL 5
REMARK VINA RESULT:      -7.4      5.358      9.435
REMARK  Name = 
REMARK  4 active torsions:
REMARK  status: ('A' for Active; 'I' for Inactive)
REMARK    1  A    between atoms: C_2  and  C_3
REMARK    2  A    between atoms: C_3  and  C_4
REMARK    3  A    between atoms: C_12  and  C_13
REMARK    4  A    between atoms: N_21  and  C_22
REMARK                            x       y       z     vdW  Elec       q    Type
REMARK                         _______ _______ _______ _____ _____    ______ ____
ROOT
ATOM      1  C   UNL     1       0.690  10.621  20.883  0.00  0.00    +0.000 A 
ATOM      2  C   UNL     1       1.046  10.977  19.592  0.00  0.00    +0.000 A 
ATOM      3  S   UNL     1       0.022  12.244  19.001  0.00  0.00    +0.000 S 
ATOM      4  C   UNL     1      -0.836  12.274  20.458  0.00  0.00    +0.000 A 
ATOM      5  N   UNL     1      -0.385  11.381  21.304  0.00  0.00    +0.000 N 
ATOM      6  C   UNL     1      -1.121  11.380  22.473  0.00  0.00    +0.000 C 
ATOM      7  O   UNL     1      -0.899  10.535  23.320  0.00  0.00    +0.000 OA
ATOM      8  C   UNL     1      -2.220  12.394  22.477  0.00  0.00    +0.000 C 
ATOM      9  C   UNL     1      -3.078  12.550  23.494  0.00  0.00    +0.000 C 
ATOM     10  S   UNL     1      -2.202  13.236  20.947  0.00  0.00    +0.000 S 
ENDROOT
BRANCH   9  11
ATOM     11  C   UNL     1      -4.211  13.479  23.476  0.00  0.00    +0.000 A 
ATOM     12  C   UNL     1      -4.044  14.791  23.935  0.00  0.00    +0.000 A 
ATOM     13  C   UNL     1      -5.131  15.668  23.968  0.00  0.00    +0.000 A 
ATOM     14  C   UNL     1      -6.385  15.235  23.541  0.00  0.00    +0.000 A 
ATOM     15 CL   UNL     1      -7.727  16.306  23.604  0.00  0.00    +0.000 Cl
ATOM     16  C   UNL     1      -6.554  13.935  23.066  0.00  0.00    +0.000 A 
ATOM     17  C   UNL     1      -5.470  13.058  23.032  0.00  0.00    +0.000 A 
ENDBRANCH   9  11
BRANCH   1  18
ATOM     18  C   UNL     1       1.314   9.578  21.758  0.00  0.00    +0.000 C 
BRANCH  18  20
ATOM     19  O   UNL     1      -0.193   7.773  21.378  0.00  0.00    +0.000 OA
ATOM     20  C   UNL     1       0.969   8.171  21.298  0.00  0.00    +0.000 C 
ATOM     21  N   UNL     1       2.055   7.468  20.801  0.00  0.00    +0.000 N 
ATOM     22  H   UNL     1       2.989   7.832  20.959  0.00  0.00    +0.000 HD
BRANCH  21  23
ATOM     23  C   UNL     1       2.003   6.228  20.118  0.00  0.00    +0.000 A 
ATOM     24  C   UNL     1       1.624   5.036  20.740  0.00  0.00    +0.000 A 
ATOM     25  C   UNL     1       1.559   3.842  20.015  0.00  0.00    +0.000 A 
ATOM     26  C   UNL     1       1.872   3.829  18.659  0.00  0.00    +0.000 A 
ATOM     27  C   UNL     1       2.247   5.011  18.026  0.00  0.00    +0.000 A 
ATOM     28  C   UNL     1       2.304   6.208  18.749  0.00  0.00    +0.000 A 
ENDBRANCH  21  23
ENDBRANCH  18  20
ENDBRANCH   1  18
TORSDOF 4
ENDMDL
MODEL 6
REMARK VINA RESULT:      -7.4      5.431      9.479
REMARK  Name = 
REMARK  4 active torsions:
REMARK  status: ('A' for Active; 'I' for Inactive)
REMARK    1  A    between atoms: C_2  and  C_3
REMARK    2  A    between atoms: C_3  and  C_4
REMARK    3  A    between atoms: C_12  and  C_13
REMARK    4  A    between atoms: N_21  and  C_22
REMARK                            x       y       z     vdW  Elec       q    Type
REMARK                         _______ _______ _______ _____ _____    ______ ____
ROOT
ATOM      1  C   UNL     1       0.489  10.748  20.861  0.00  0.00    +0.000 A 
ATOM      2  C   UNL     1       0.784  11.089  19.551  0.00  0.00    +0.000 A 
ATOM      3  S   UNL     1      -0.296  12.317  18.980  0.00  0.00    +0.000 S 
ATOM      4  C   UNL     1      -1.095  12.352  20.469  0.00  0.00    +0.000 A 
ATOM      5  N   UNL     1      -0.588  11.487  21.313  0.00  0.00    +0.000 N 
ATOM      6  C   UNL     1      -1.276  11.490  22.510  0.00  0.00    +0.000 C 
ATOM      7  O   UNL     1      -0.998  10.666  23.363  0.00  0.00    +0.000 OA
ATOM      8  C   UNL     1      -2.401  12.474  22.540  0.00  0.00    +0.000 C 
ATOM      9  C   UNL     1      -3.221  12.628  23.589  0.00  0.00    +0.000 C 
ATOM     10  S   UNL     1      -2.466  13.288  20.997  0.00  0.00    +0.000 S 
ENDROOT
BRANCH   9  11
ATOM     11  C   UNL     1      -4.379  13.526  23.600  0.00  0.00    +0.000 A 
ATOM     12  C   UNL     1      -5.625  13.064  23.159  0.00  0.00    +0.000 A 
ATOM     13  C   UNL     1      -6.721  13.928  23.119  0.00  0.00    +0.000 A 
ATOM     14  C   UNL     1      -6.573  15.255  23.520  0.00  0.00    +0.000 A 
ATOM     15 CL   UNL     1      -7.917  16.325  23.447  0.00  0.00    +0.000 Cl
ATOM     16  C   UNL     1      -5.340  15.717  23.977  0.00  0.00    +0.000 A 
ATOM     17  C   UNL     1      -4.244  14.855  24.018  0.00  0.00    +0.000 A 
ENDBRANCH   9  11
BRANCH   1  18
ATOM     18  C   UNL     1       1.176   9.738  21.729  0.00  0.00    +0.000 C 
BRANCH  18  20
ATOM     19  O   UNL     1      -0.246   7.857  21.395  0.00  0.00    +0.000 OA
ATOM     20  C   UNL     1       0.891   8.315  21.278  0.00  0.00    +0.000 C 
ATOM     21  N   UNL     1       1.995   7.670  20.745  0.00  0.00    +0.000 N 
ATOM     22  H   UNL     1       2.913   8.082  20.874  0.00  0.00    +0.000 HD
BRANCH  21  23
ATOM     23  C   UNL     1       1.986   6.429  20.062  0.00  0.00    +0.000 A 
ATOM     24  C   UNL     1       2.265   6.312  18.699  0.00  0.00    +0.000 A 
ATOM     25  C   UNL     1       2.274   5.060  18.077  0.00  0.00    +0.000 A 
ATOM     26  C   UNL     1       2.002   3.911  18.813  0.00  0.00    +0.000 A 
ATOM     27  C   UNL     1       1.725   4.013  20.174  0.00  0.00    +0.000 A 
ATOM     28  C   UNL     1       1.725   5.265  20.799  0.00  0.00    +0.000 A 
ENDBRANCH  21  23
ENDBRANCH  18  20
ENDBRANCH   1  18
TORSDOF 4
ENDMDL
MODEL 7
REMARK VINA RESULT:      -7.4      2.744      4.605
REMARK  Name = 
REMARK  4 active torsions:
REMARK  status: ('A' for Active; 'I' for Inactive)
REMARK    1  A    between atoms: C_2  and  C_3
REMARK    2  A    between atoms: C_3  and  C_4
REMARK    3  A    between atoms: C_12  and  C_13
REMARK    4  A    between atoms: N_21  and  C_22
REMARK                            x       y       z     vdW  Elec       q    Type
REMARK                         _______ _______ _______ _____ _____    ______ ____
ROOT
ATOM      1  C   UNL     1       0.413  11.083  20.578  0.00  0.00    +0.000 A 
ATOM      2  C   UNL     1      -0.155  11.031  21.841  0.00  0.00    +0.000 A 
ATOM      3  S   UNL     1       0.005   9.445  22.519  0.00  0.00    +0.000 S 
ATOM      4  C   UNL     1       0.813   8.900  21.138  0.00  0.00    +0.000 A 
ATOM      5  N   UNL     1       0.928   9.846  20.238  0.00  0.00    +0.000 N 
ATOM      6  C   UNL     1       1.548   9.380  19.095  0.00  0.00    +0.000 C 
ATOM      7  O   UNL     1       1.634  10.106  18.122  0.00  0.00    +0.000 OA
ATOM      8  C   UNL     1       1.934   7.938  19.181  0.00  0.00    +0.000 C 
ATOM      9  C   UNL     1       2.519   7.268  18.179  0.00  0.00    +0.000 C 
ATOM     10  S   UNL     1       1.433   7.323  20.737  0.00  0.00    +0.000 S 
ENDROOT
BRANCH   9  11
ATOM     11  C   UNL     1       2.825   5.836  18.219  0.00  0.00    +0.000 A 
ATOM     12  C   UNL     1       1.861   4.906  17.810  0.00  0.00    +0.000 A 
ATOM     13  C   UNL     1       2.126   3.537  17.892  0.00  0.00    +0.000 A 
ATOM     14  C   UNL     1       3.354   3.097  18.381  0.00  0.00    +0.000 A 
ATOM     15 CL   UNL     1       3.671   1.411  18.505  0.00  0.00    +0.000 Cl
ATOM     16  C   UNL     1       4.325   4.017  18.772  0.00  0.00    +0.000 A 
ATOM     17  C   UNL     1       4.063   5.385  18.691  0.00  0.00    +0.000 A 
ENDBRANCH   9  11
BRANCH   1  18
ATOM     18  C   UNL     1       0.494  12.256  19.650  0.00  0.00    +0.000 C 
BRANCH  18  20
ATOM     19  O   UNL     1       2.284  13.004  21.032  0.00  0.00    +0.000 OA
ATOM     20  C   UNL     1       1.680  13.152  19.970  0.00  0.00    +0.000 C 
ATOM     21  N   UNL     1       1.970  14.067  18.970  0.00  0.00    +0.000 N 
ATOM     22  H   UNL     1       1.290  14.217  18.231  0.00  0.00    +0.000 HD
BRANCH  21  23
ATOM     23  C   UNL     1       3.127  14.880  18.895  0.00  0.00    +0.000 A 
ATOM     24  C   UNL     1       3.236  16.106  19.556  0.00  0.00    +0.000 A 
ATOM     25  C   UNL     1       4.411  16.859  19.476  0.00  0.00    +0.000 A 
ATOM     26  C   UNL     1       5.491  16.392  18.732  0.00  0.00    +0.000 A 
ATOM     27  C   UNL     1       5.397  15.170  18.072  0.00  0.00    +0.000 A 
ATOM     28  C   UNL     1       4.224  14.412  18.159  0.00  0.00    +0.000 A 
ENDBRANCH  21  23
ENDBRANCH  18  20
ENDBRANCH   1  18
TORSDOF 4
ENDMDL
MODEL 8
REMARK VINA RESULT:      -7.4      1.150      1.626
REMARK  Name = 
REMARK  4 active torsions:
REMARK  status: ('A' for Active; 'I' for Inactive)
REMARK    1  A    between atoms: C_2  and  C_3
REMARK    2  A    between atoms: C_3  and  C_4
REMARK    3  A    between atoms: C_12  and  C_13
REMARK    4  A    between atoms: N_21  and  C_22
REMARK                            x       y       z     vdW  Elec       q    Type
REMARK                         _______ _______ _______ _____ _____    ______ ____
ROOT
ATOM      1  C   UNL     1       0.029  11.324  21.296  0.00  0.00    +0.000 A 
ATOM      2  C   UNL     1      -0.437  11.062  22.574  0.00  0.00    +0.000 A 
ATOM      3  S   UNL     1      -0.111   9.419  23.020  0.00  0.00    +0.000 S 
ATOM      4  C   UNL     1       0.629   9.127  21.528  0.00  0.00    +0.000 A 
ATOM      5  N   UNL     1       0.606  10.188  20.759  0.00  0.00    +0.000 N 
ATOM      6  C   UNL     1       1.170   9.927  19.526  0.00  0.00    +0.000 C 
ATOM      7  O   UNL     1       1.130  10.778  18.657  0.00  0.00    +0.000 OA
ATOM      8  C   UNL     1       1.666   8.523  19.392  0.00  0.00    +0.000 C 
ATOM      9  C   UNL     1       2.223   8.040  18.272  0.00  0.00    +0.000 C 
ATOM     10  S   UNL     1       1.330   7.672  20.879  0.00  0.00    +0.000 S 
ENDROOT
BRANCH   9  11
ATOM     11  C   UNL     1       2.634   6.644  18.098  0.00  0.00    +0.000 A 
ATOM     12  C   UNL     1       1.664   5.642  17.975  0.00  0.00    +0.000 A 
ATOM     13  C   UNL     1       2.048   4.304  17.859  0.00  0.00    +0.000 A 
ATOM     14  C   UNL     1       3.400   3.967  17.865  0.00  0.00    +0.000 A 
ATOM     15 CL   UNL     1       3.871   2.318  17.746  0.00  0.00    +0.000 Cl
ATOM     16  C   UNL     1       4.371   4.961  17.968  0.00  0.00    +0.000 A 
ATOM     17  C   UNL     1       3.990   6.298  18.083  0.00  0.00    +0.000 A 
ENDBRANCH   9  11
BRANCH   1  18
ATOM     18  C   UNL     1      -0.046  12.610  20.532  0.00  0.00    +0.000 C 
BRANCH  18  20
ATOM     19  O   UNL     1      -1.947  13.996  20.159  0.00  0.00    +0.000 OA
ATOM     20  C   UNL     1      -1.449  12.880  20.011  0.00  0.00    +0.000 C 
ATOM     21  N   UNL     1      -2.027  11.789  19.383  0.00  0.00    +0.000 N 
ATOM     22  H   UNL     1      -1.595  10.877  19.488  0.00  0.00    +0.000 HD
BRANCH  21  23
ATOM     23  C   UNL     1      -3.225  11.801  18.627  0.00  0.00    +0.000 A 
ATOM     24  C   UNL     1      -3.276  11.429  17.282  0.00  0.00    +0.000 A 
ATOM     25  C   UNL     1      -4.489  11.428  16.587  0.00  0.00    +0.000 A 
ATOM     26  C   UNL     1      -5.665  11.801  17.232  0.00  0.00    +0.000 A 
ATOM     27  C   UNL     1      -5.628  12.171  18.574  0.00  0.00    +0.000 A 
ATOM     28  C   UNL     1      -4.415  12.164  19.272  0.00  0.00    +0.000 A 
ENDBRANCH  21  23
ENDBRANCH  18  20
ENDBRANCH   1  18
TORSDOF 4
ENDMDL
MODEL 9
REMARK VINA RESULT:      -7.4      2.558      4.090
REMARK  Name = 
REMARK  4 active torsions:
REMARK  status: ('A' for Active; 'I' for Inactive)
REMARK    1  A    between atoms: C_2  and  C_3
REMARK    2  A    between atoms: C_3  and  C_4
REMARK    3  A    between atoms: C_12  and  C_13
REMARK    4  A    between atoms: N_21  and  C_22
REMARK                            x       y       z     vdW  Elec       q    Type
REMARK                         _______ _______ _______ _____ _____    ______ ____
ROOT
ATOM      1  C   UNL     1      -0.758  11.363  21.361  0.00  0.00    +0.000 A 
ATOM      2  C   UNL     1      -0.961  11.046  22.695  0.00  0.00    +0.000 A 
ATOM      3  S   UNL     1      -0.148   9.572  23.105  0.00  0.00    +0.000 S 
ATOM      4  C   UNL     1       0.437   9.418  21.526  0.00  0.00    +0.000 A 
ATOM      5  N   UNL     1       0.027  10.398  20.759  0.00  0.00    +0.000 N 
ATOM      6  C   UNL     1       0.471  10.239  19.461  0.00  0.00    +0.000 C 
ATOM      7  O   UNL     1       0.087  11.008  18.598  0.00  0.00    +0.000 OA
ATOM      8  C   UNL     1       1.305   9.013  19.270  0.00  0.00    +0.000 C 
ATOM      9  C   UNL     1       1.816   8.643  18.088  0.00  0.00    +0.000 C 
ATOM     10  S   UNL     1       1.412   8.173  20.797  0.00  0.00    +0.000 S 
ENDROOT
BRANCH   9  11
ATOM     11  C   UNL     1       2.562   7.401  17.870  0.00  0.00    +0.000 A 
ATOM     12  C   UNL     1       1.928   6.166  18.055  0.00  0.00    +0.000 A 
ATOM     13  C   UNL     1       2.645   4.978  17.898  0.00  0.00    +0.000 A 
ATOM     14  C   UNL     1       3.995   5.022  17.555  0.00  0.00    +0.000 A 
ATOM     15 CL   UNL     1       4.883   3.561  17.385  0.00  0.00    +0.000 Cl
ATOM     16  C   UNL     1       4.627   6.248  17.350  0.00  0.00    +0.000 A 
ATOM     17  C   UNL     1       3.913   7.436  17.506  0.00  0.00    +0.000 A 
ENDBRANCH   9  11
BRANCH   1  18
ATOM     18  C   UNL     1      -1.278  12.547  20.604  0.00  0.00    +0.000 C 
BRANCH  18  20
ATOM     19  O   UNL     1       0.238  14.160  21.484  0.00  0.00    +0.000 OA
ATOM     20  C   UNL     1      -0.230  13.640  20.471  0.00  0.00    +0.000 C 
ATOM     21  N   UNL     1       0.106  13.929  19.158  0.00  0.00    +0.000 N 
ATOM     22  H   UNL     1      -0.479  13.568  18.411  0.00  0.00    +0.000 HD
BRANCH  21  23
ATOM     23  C   UNL     1       1.185  14.742  18.734  0.00  0.00    +0.000 A 
ATOM     24  C   UNL     1       2.416  14.220  18.331  0.00  0.00    +0.000 A 
ATOM     25  C   UNL     1       3.441  15.063  17.892  0.00  0.00    +0.000 A 
ATOM     26  C   UNL     1       3.244  16.441  17.852  0.00  0.00    +0.000 A 
ATOM     27  C   UNL     1       2.020  16.974  18.247  0.00  0.00    +0.000 A 
ATOM     28  C   UNL     1       0.991  16.130  18.679  0.00  0.00    +0.000 A 
ENDBRANCH  21  23
ENDBRANCH  18  20
ENDBRANCH   1  18
TORSDOF 4
ENDMDL
