MODEL 1
REMARK VINA RESULT:      -7.4      0.000      0.000
REMARK  Name = 
REMARK  5 active torsions:
REMARK  status: ('A' for Active; 'I' for Inactive)
REMARK    1  A    between atoms: C_1  and  C_2
REMARK    2  A    between atoms: C_2  and  C_3
REMARK    3  A    between atoms: C_7  and  C_8
REMARK    4  A    between atoms: C_7  and  N_9
REMARK    5  A    between atoms: C_13  and  C_14
REMARK                            x       y       z     vdW  Elec       q    Type
REMARK                         _______ _______ _______ _____ _____    ______ ____
ROOT
ATOM      1  N   UNL     1      -4.656  11.867  18.270  0.00  0.00    +0.000 N 
ATOM      2  C   UNL     1      -4.298  10.733  17.418  0.00  0.00    +0.000 C 
ATOM      3  C   UNL     1      -2.898  10.260  17.806  0.00  0.00    +0.000 C 
ATOM      4  C   UNL     1      -2.514  11.221  18.867  0.00  0.00    +0.000 A 
ATOM      5  C   UNL     1      -1.371  11.323  19.623  0.00  0.00    +0.000 A 
ATOM      6  N   UNL     1      -1.281  12.285  20.567  0.00  0.00    +0.000 NA
ATOM      7  C   UNL     1      -2.322  13.123  20.767  0.00  0.00    +0.000 A 
ATOM      8  N   UNL     1      -2.203  14.081  21.739  0.00  0.00    +0.000 N 
ATOM      9  C   UNL     1      -3.305  14.978  22.082  0.00  0.00    +0.000 C 
ATOM     10  C   UNL     1      -2.872  16.439  21.880  0.00  0.00    +0.000 C 
ATOM     11  O   UNL     1      -1.657  16.736  22.590  0.00  0.00    +0.000 OA
ATOM     12  C   UNL     1      -0.591  15.887  22.130  0.00  0.00    +0.000 C 
ATOM     13  C   UNL     1      -0.915  14.400  22.354  0.00  0.00    +0.000 C 
ATOM     14  N   UNL     1      -3.468  13.042  20.067  0.00  0.00    +0.000 NA
ATOM     15  C   UNL     1      -3.542  12.100  19.125  0.00  0.00    +0.000 A 
ENDROOT
BRANCH   5  16
ATOM     16  C   UNL     1      -0.244  10.388  19.538  0.00  0.00    +0.000 A 
ATOM     17  C   UNL     1       0.521  10.180  18.404  0.00  0.00    +0.000 A 
ATOM     18  N   UNL     1       1.455   9.217  18.254  0.00  0.00    +0.000 NA
ATOM     19  C   UNL     1       1.664   8.430  19.307  0.00  0.00    +0.000 A 
ATOM     20  N   UNL     1       2.553   7.392  19.146  0.00  0.00    +0.000 N 
ATOM     21  N   UNL     1       1.085   8.596  20.498  0.00  0.00    +0.000 NA
ATOM     22  C   UNL     1       0.143   9.569  20.584  0.00  0.00    +0.000 A 
ATOM     23  H   UNL     1       3.168   7.584  18.367  0.00  0.00    +0.000 HD
ATOM     24  H   UNL     1       2.971   7.144  20.030  0.00  0.00    +0.000 HD
ENDBRANCH   5  16
BRANCH   1  29
ATOM     25  C   UNL     1      -7.082  11.982  21.173  0.00  0.00    +0.000 C 
ATOM     26  O   UNL     1      -7.000  10.774  21.373  0.00  0.00    +0.000 OA
ATOM     27  N   UNL     1      -7.135  12.552  19.916  0.00  0.00    +0.000 N 
ATOM     28  C   UNL     1      -7.149  11.762  18.680  0.00  0.00    +0.000 C 
ATOM     29  C   UNL     1      -5.922  12.570  18.186  0.00  0.00    +0.000 C 
ATOM     30  C   UNL     1      -6.158  13.132  16.790  0.00  0.00    +0.000 C 
ATOM     31  C   UNL     1      -6.161  13.523  19.387  0.00  0.00    +0.000 C 
BRANCH  25  33
ATOM     32  C   UNL     1      -7.916  14.233  22.106  0.00  0.00    +0.000 C 
ATOM     33  C   UNL     1      -7.216  12.920  22.345  0.00  0.00    +0.000 C 
ATOM     34  C   UNL     1      -6.010  12.960  23.287  0.00  0.00    +0.000 C 
ATOM     35  C   UNL     1      -7.289  12.336  23.751  0.00  0.00    +0.000 C 
ENDBRANCH  25  33
ENDBRANCH   1  29
TORSDOF 3
ENDMDL
MODEL 2
REMARK VINA RESULT:      -7.1      8.419     12.576
REMARK  Name = 
REMARK  5 active torsions:
REMARK  status: ('A' for Active; 'I' for Inactive)
REMARK    1  A    between atoms: C_1  and  C_2
REMARK    2  A    between atoms: C_2  and  C_3
REMARK    3  A    between atoms: C_7  and  C_8
REMARK    4  A    between atoms: C_7  and  N_9
REMARK    5  A    between atoms: C_13  and  C_14
REMARK                            x       y       z     vdW  Elec       q    Type
REMARK                         _______ _______ _______ _____ _____    ______ ____
ROOT
ATOM      1  N   UNL     1       8.085  15.438  20.561  0.00  0.00    +0.000 N 
ATOM      2  C   UNL     1       8.999  15.297  21.693  0.00  0.00    +0.000 C 
ATOM      3  C   UNL     1       8.223  14.705  22.870  0.00  0.00    +0.000 C 
ATOM      4  C   UNL     1       6.850  14.585  22.324  0.00  0.00    +0.000 A 
ATOM      5  C   UNL     1       5.691  14.113  22.891  0.00  0.00    +0.000 A 
ATOM      6  N   UNL     1       4.558  14.075  22.156  0.00  0.00    +0.000 NA
ATOM      7  C   UNL     1       4.583  14.488  20.870  0.00  0.00    +0.000 A 
ATOM      8  N   UNL     1       3.420  14.428  20.149  0.00  0.00    +0.000 N 
ATOM      9  C   UNL     1       3.368  14.774  18.730  0.00  0.00    +0.000 C 
ATOM     10  C   UNL     1       2.369  15.921  18.507  0.00  0.00    +0.000 C 
ATOM     11  O   UNL     1       1.077  15.615  19.064  0.00  0.00    +0.000 OA
ATOM     12  C   UNL     1       1.187  15.387  20.479  0.00  0.00    +0.000 C 
ATOM     13  C   UNL     1       2.124  14.208  20.791  0.00  0.00    +0.000 C 
ATOM     14  N   UNL     1       5.701  14.934  20.268  0.00  0.00    +0.000 NA
ATOM     15  C   UNL     1       6.811  14.983  21.007  0.00  0.00    +0.000 A 
ENDROOT
BRANCH   5  16
ATOM     16  C   UNL     1       5.608  13.551  24.243  0.00  0.00    +0.000 A 
ATOM     17  C   UNL     1       5.758  12.209  24.548  0.00  0.00    +0.000 A 
ATOM     18  N   UNL     1       5.531  11.650  25.754  0.00  0.00    +0.000 NA
ATOM     19  C   UNL     1       5.160  12.477  26.728  0.00  0.00    +0.000 A 
ATOM     20  N   UNL     1       4.845  11.913  27.943  0.00  0.00    +0.000 N 
ATOM     21  N   UNL     1       5.094  13.805  26.604  0.00  0.00    +0.000 NA
ATOM     22  C   UNL     1       5.317  14.309  25.363  0.00  0.00    +0.000 A 
ATOM     23  H   UNL     1       5.267  10.999  28.017  0.00  0.00    +0.000 HD
ATOM     24  H   UNL     1       5.005  12.572  28.690  0.00  0.00    +0.000 HD
ENDBRANCH   5  16
BRANCH   1  29
ATOM     25  C   UNL     1      11.100  14.115  18.694  0.00  0.00    +0.000 C 
ATOM     26  O   UNL     1      11.819  14.172  19.686  0.00  0.00    +0.000 OA
ATOM     27  N   UNL     1      10.172  15.084  18.360  0.00  0.00    +0.000 N 
ATOM     28  C   UNL     1       9.984  16.312  19.139  0.00  0.00    +0.000 C 
ATOM     29  C   UNL     1       8.479  15.965  19.268  0.00  0.00    +0.000 C 
ATOM     30  C   UNL     1       7.604  17.140  18.851  0.00  0.00    +0.000 C 
ATOM     31  C   UNL     1       8.724  14.851  18.215  0.00  0.00    +0.000 C 
BRANCH  25  33
ATOM     32  C   UNL     1      11.572  13.336  16.285  0.00  0.00    +0.000 C 
ATOM     33  C   UNL     1      11.270  12.980  17.718  0.00  0.00    +0.000 C 
ATOM     34  C   UNL     1      10.330  11.791  17.934  0.00  0.00    +0.000 C 
ATOM     35  C   UNL     1      11.790  11.642  18.229  0.00  0.00    +0.000 C 
ENDBRANCH  25  33
ENDBRANCH   1  29
TORSDOF 3
ENDMDL
MODEL 3
REMARK VINA RESULT:      -7.1      7.668     11.983
REMARK  Name = 
REMARK  5 active torsions:
REMARK  status: ('A' for Active; 'I' for Inactive)
REMARK    1  A    between atoms: C_1  and  C_2
REMARK    2  A    between atoms: C_2  and  C_3
REMARK    3  A    between atoms: C_7  and  C_8
REMARK    4  A    between atoms: C_7  and  N_9
REMARK    5  A    between atoms: C_13  and  C_14
REMARK                            x       y       z     vdW  Elec       q    Type
REMARK                         _______ _______ _______ _____ _____    ______ ____
ROOT
ATOM      1  N   UNL     1       6.974  15.350  19.568  0.00  0.00    +0.000 N 
ATOM      2  C   UNL     1       5.981  15.614  18.527  0.00  0.00    +0.000 C 
ATOM      3  C   UNL     1       4.594  15.323  19.098  0.00  0.00    +0.000 C 
ATOM      4  C   UNL     1       4.901  14.849  20.469  0.00  0.00    +0.000 A 
ATOM      5  C   UNL     1       4.076  14.439  21.489  0.00  0.00    +0.000 A 
ATOM      6  N   UNL     1       4.613  14.083  22.676  0.00  0.00    +0.000 NA
ATOM      7  C   UNL     1       5.951  14.149  22.850  0.00  0.00    +0.000 A 
ATOM      8  N   UNL     1       6.463  13.791  24.069  0.00  0.00    +0.000 N 
ATOM      9  C   UNL     1       7.887  13.908  24.377  0.00  0.00    +0.000 C 
ATOM     10  C   UNL     1       8.454  12.532  24.763  0.00  0.00    +0.000 C 
ATOM     11  O   UNL     1       7.693  11.923  25.822  0.00  0.00    +0.000 OA
ATOM     12  C   UNL     1       6.326  11.744  25.413  0.00  0.00    +0.000 C 
ATOM     13  C   UNL     1       5.658  13.086  25.067  0.00  0.00    +0.000 C 
ATOM     14  N   UNL     1       6.792  14.568  21.887  0.00  0.00    +0.000 NA
ATOM     15  C   UNL     1       6.255  14.902  20.712  0.00  0.00    +0.000 A 
ENDROOT
BRANCH   5  16
ATOM     16  C   UNL     1       2.612  14.441  21.412  0.00  0.00    +0.000 A 
ATOM     17  C   UNL     1       1.796  15.412  21.968  0.00  0.00    +0.000 A 
ATOM     18  N   UNL     1       0.451  15.354  22.046  0.00  0.00    +0.000 NA
ATOM     19  C   UNL     1      -0.126  14.279  21.513  0.00  0.00    +0.000 A 
ATOM     20  N   UNL     1      -1.489  14.164  21.657  0.00  0.00    +0.000 N 
ATOM     21  N   UNL     1       0.528  13.329  20.842  0.00  0.00    +0.000 NA
ATOM     22  C   UNL     1       1.882  13.432  20.810  0.00  0.00    +0.000 A 
ATOM     23  H   UNL     1      -1.893  15.070  21.844  0.00  0.00    +0.000 HD
ATOM     24  H   UNL     1      -1.879  13.617  20.905  0.00  0.00    +0.000 HD
ENDBRANCH   5  16
BRANCH   1  29
ATOM     25  C   UNL     1       9.423  12.507  20.067  0.00  0.00    +0.000 C 
ATOM     26  O   UNL     1       8.924  12.180  21.139  0.00  0.00    +0.000 OA
ATOM     27  N   UNL     1       9.614  13.818  19.675  0.00  0.00    +0.000 N 
ATOM     28  C   UNL     1       9.281  14.964  20.528  0.00  0.00    +0.000 C 
ATOM     29  C   UNL     1       8.402  15.524  19.381  0.00  0.00    +0.000 C 
ATOM     30  C   UNL     1       8.753  16.975  19.076  0.00  0.00    +0.000 C 
ATOM     31  C   UNL     1       9.027  14.434  18.472  0.00  0.00    +0.000 C 
BRANCH  25  33
ATOM     32  C   UNL     1      11.374  11.563  18.675  0.00  0.00    +0.000 C 
ATOM     33  C   UNL     1       9.944  11.442  19.137  0.00  0.00    +0.000 C 
ATOM     34  C   UNL     1       8.939  10.940  18.097  0.00  0.00    +0.000 C 
ATOM     35  C   UNL     1       9.353  10.040  19.218  0.00  0.00    +0.000 C 
ENDBRANCH  25  33
ENDBRANCH   1  29
TORSDOF 3
ENDMDL
MODEL 4
REMARK VINA RESULT:      -7.1      8.710     11.943
REMARK  Name = 
REMARK  5 active torsions:
REMARK  status: ('A' for Active; 'I' for Inactive)
REMARK    1  A    between atoms: C_1  and  C_2
REMARK    2  A    between atoms: C_2  and  C_3
REMARK    3  A    between atoms: C_7  and  C_8
REMARK    4  A    between atoms: C_7  and  N_9
REMARK    5  A    between atoms: C_13  and  C_14
REMARK                            x       y       z     vdW  Elec       q    Type
REMARK                         _______ _______ _______ _____ _____    ______ ____
ROOT
ATOM      1  N   UNL     1       8.186  15.820  23.122  0.00  0.00    +0.000 N 
ATOM      2  C   UNL     1       9.601  15.467  23.231  0.00  0.00    +0.000 C 
ATOM      3  C   UNL     1      10.088  14.995  21.861  0.00  0.00    +0.000 C 
ATOM      4  C   UNL     1       8.859  15.071  21.036  0.00  0.00    +0.000 A 
ATOM      5  C   UNL     1       8.642  14.785  19.710  0.00  0.00    +0.000 A 
ATOM      6  N   UNL     1       7.414  14.974  19.180  0.00  0.00    +0.000 NA
ATOM      7  C   UNL     1       6.419  15.457  19.958  0.00  0.00    +0.000 A 
ATOM      8  N   UNL     1       5.188  15.647  19.388  0.00  0.00    +0.000 N 
ATOM      9  C   UNL     1       4.076  16.242  20.127  0.00  0.00    +0.000 C 
ATOM     10  C   UNL     1       2.890  15.264  20.162  0.00  0.00    +0.000 C 
ATOM     11  O   UNL     1       2.524  14.825  18.841  0.00  0.00    +0.000 OA
ATOM     12  C   UNL     1       3.633  14.160  18.212  0.00  0.00    +0.000 C 
ATOM     13  C   UNL     1       4.850  15.092  18.078  0.00  0.00    +0.000 C 
ATOM     14  N   UNL     1       6.595  15.773  21.254  0.00  0.00    +0.000 NA
ATOM     15  C   UNL     1       7.807  15.567  21.773  0.00  0.00    +0.000 A 
ENDROOT
BRANCH   5  16
ATOM     16  C   UNL     1       9.692  14.359  18.779  0.00  0.00    +0.000 A 
ATOM     17  C   UNL     1      10.384  15.208  17.932  0.00  0.00    +0.000 A 
ATOM     18  N   UNL     1      11.237  14.822  16.962  0.00  0.00    +0.000 NA
ATOM     19  C   UNL     1      11.442  13.512  16.842  0.00  0.00    +0.000 A 
ATOM     20  N   UNL     1      12.244  13.096  15.805  0.00  0.00    +0.000 N 
ATOM     21  N   UNL     1      10.936  12.593  17.667  0.00  0.00    +0.000 NA
ATOM     22  C   UNL     1      10.071  13.039  18.614  0.00  0.00    +0.000 A 
ATOM     23  H   UNL     1      12.832  13.858  15.498  0.00  0.00    +0.000 HD
ATOM     24  H   UNL     1      12.686  12.217  16.031  0.00  0.00    +0.000 HD
ENDBRANCH   5  16
BRANCH   1  29
ATOM     25  C   UNL     1       5.585  13.673  24.840  0.00  0.00    +0.000 C 
ATOM     26  O   UNL     1       5.094  13.305  23.777  0.00  0.00    +0.000 OA
ATOM     27  N   UNL     1       6.008  14.966  25.084  0.00  0.00    +0.000 N 
ATOM     28  C   UNL     1       5.870  16.051  24.107  0.00  0.00    +0.000 C 
ATOM     29  C   UNL     1       7.391  16.315  24.229  0.00  0.00    +0.000 C 
ATOM     30  C   UNL     1       7.675  17.786  24.508  0.00  0.00    +0.000 C 
ATOM     31  C   UNL     1       7.385  15.349  25.443  0.00  0.00    +0.000 C 
BRANCH  25  33
ATOM     32  C   UNL     1       5.074  13.141  27.307  0.00  0.00    +0.000 C 
ATOM     33  C   UNL     1       5.669  12.706  25.992  0.00  0.00    +0.000 C 
ATOM     34  C   UNL     1       6.969  11.902  26.072  0.00  0.00    +0.000 C 
ATOM     35  C   UNL     1       5.696  11.211  25.698  0.00  0.00    +0.000 C 
ENDBRANCH  25  33
ENDBRANCH   1  29
TORSDOF 3
ENDMDL
MODEL 5
REMARK VINA RESULT:      -6.9      7.944     10.739
REMARK  Name = 
REMARK  5 active torsions:
REMARK  status: ('A' for Active; 'I' for Inactive)
REMARK    1  A    between atoms: C_1  and  C_2
REMARK    2  A    between atoms: C_2  and  C_3
REMARK    3  A    between atoms: C_7  and  C_8
REMARK    4  A    between atoms: C_7  and  N_9
REMARK    5  A    between atoms: C_13  and  C_14
REMARK                            x       y       z     vdW  Elec       q    Type
REMARK                         _______ _______ _______ _____ _____    ______ ____
ROOT
ATOM      1  N   UNL     1       5.826  16.484  20.438  0.00  0.00    +0.000 N 
ATOM      2  C   UNL     1       6.405  17.098  19.244  0.00  0.00    +0.000 C 
ATOM      3  C   UNL     1       7.595  16.251  18.793  0.00  0.00    +0.000 C 
ATOM      4  C   UNL     1       7.647  15.190  19.827  0.00  0.00    +0.000 A 
ATOM      5  C   UNL     1       8.492  14.117  19.979  0.00  0.00    +0.000 A 
ATOM      6  N   UNL     1       8.304  13.261  21.006  0.00  0.00    +0.000 NA
ATOM      7  C   UNL     1       7.277  13.462  21.862  0.00  0.00    +0.000 A 
ATOM      8  N   UNL     1       7.107  12.571  22.887  0.00  0.00    +0.000 N 
ATOM      9  C   UNL     1       5.978  12.659  23.812  0.00  0.00    +0.000 C 
ATOM     10  C   UNL     1       6.494  12.811  25.253  0.00  0.00    +0.000 C 
ATOM     11  O   UNL     1       7.428  11.771  25.595  0.00  0.00    +0.000 OA
ATOM     12  C   UNL     1       8.560  11.808  24.710  0.00  0.00    +0.000 C 
ATOM     13  C   UNL     1       8.140  11.599  23.245  0.00  0.00    +0.000 C 
ATOM     14  N   UNL     1       6.412  14.485  21.736  0.00  0.00    +0.000 NA
ATOM     15  C   UNL     1       6.616  15.335  20.728  0.00  0.00    +0.000 A 
ENDROOT
BRANCH   5  16
ATOM     16  C   UNL     1       9.560  13.774  19.034  0.00  0.00    +0.000 A 
ATOM     17  C   UNL     1      10.780  14.425  18.955  0.00  0.00    +0.000 A 
ATOM     18  N   UNL     1      11.710  14.233  17.997  0.00  0.00    +0.000 NA
ATOM     19  C   UNL     1      11.426  13.315  17.075  0.00  0.00    +0.000 A 
ATOM     20  N   UNL     1      12.326  13.164  16.045  0.00  0.00    +0.000 N 
ATOM     21  N   UNL     1      10.346  12.531  17.100  0.00  0.00    +0.000 NA
ATOM     22  C   UNL     1       9.438  12.782  18.078  0.00  0.00    +0.000 A 
ATOM     23  H   UNL     1      13.227  13.526  16.320  0.00  0.00    +0.000 HD
ATOM     24  H   UNL     1      12.284  12.227  15.674  0.00  0.00    +0.000 HD
ENDBRANCH   5  16
BRANCH   1  29
ATOM     25  C   UNL     1       2.333  16.285  18.993  0.00  0.00    +0.000 C 
ATOM     26  O   UNL     1       2.695  16.695  17.894  0.00  0.00    +0.000 OA
ATOM     27  N   UNL     1       2.797  16.789  20.193  0.00  0.00    +0.000 N 
ATOM     28  C   UNL     1       3.743  17.907  20.278  0.00  0.00    +0.000 C 
ATOM     29  C   UNL     1       4.673  17.015  21.139  0.00  0.00    +0.000 C 
ATOM     30  C   UNL     1       5.079  17.723  22.426  0.00  0.00    +0.000 C 
ATOM     31  C   UNL     1       3.500  16.003  21.222  0.00  0.00    +0.000 C 
BRANCH  25  33
ATOM     32  C   UNL     1       1.610  13.848  18.582  0.00  0.00    +0.000 C 
ATOM     33  C   UNL     1       1.261  15.229  19.073  0.00  0.00    +0.000 C 
ATOM     34  C   UNL     1      -0.156  15.717  18.765  0.00  0.00    +0.000 C 
ATOM     35  C   UNL     1       0.204  15.335  20.165  0.00  0.00    +0.000 C 
ENDBRANCH  25  33
ENDBRANCH   1  29
TORSDOF 3
ENDMDL
MODEL 6
REMARK VINA RESULT:      -6.9      7.980     12.305
REMARK  Name = 
REMARK  5 active torsions:
REMARK  status: ('A' for Active; 'I' for Inactive)
REMARK    1  A    between atoms: C_1  and  C_2
REMARK    2  A    between atoms: C_2  and  C_3
REMARK    3  A    between atoms: C_7  and  C_8
REMARK    4  A    between atoms: C_7  and  N_9
REMARK    5  A    between atoms: C_13  and  C_14
REMARK                            x       y       z     vdW  Elec       q    Type
REMARK                         _______ _______ _______ _____ _____    ______ ____
ROOT
ATOM      1  N   UNL     1       7.561  15.506  19.515  0.00  0.00    +0.000 N 
ATOM      2  C   UNL     1       6.694  15.865  18.393  0.00  0.00    +0.000 C 
ATOM      3  C   UNL     1       5.243  15.618  18.806  0.00  0.00    +0.000 C 
ATOM      4  C   UNL     1       5.385  15.070  20.176  0.00  0.00    +0.000 A 
ATOM      5  C   UNL     1       4.443  14.658  21.087  0.00  0.00    +0.000 A 
ATOM      6  N   UNL     1       4.837  14.224  22.303  0.00  0.00    +0.000 NA
ATOM      7  C   UNL     1       6.152  14.215  22.615  0.00  0.00    +0.000 A 
ATOM      8  N   UNL     1       6.519  13.779  23.860  0.00  0.00    +0.000 N 
ATOM      9  C   UNL     1       7.907  13.812  24.316  0.00  0.00    +0.000 C 
ATOM     10  C   UNL     1       8.369  12.394  24.690  0.00  0.00    +0.000 C 
ATOM     11  O   UNL     1       7.476  11.777  25.635  0.00  0.00    +0.000 OA
ATOM     12  C   UNL     1       6.152  11.684  25.082  0.00  0.00    +0.000 C 
ATOM     13  C   UNL     1       5.585  13.072  24.736  0.00  0.00    +0.000 C 
ATOM     14  N   UNL     1       7.106  14.634  21.762  0.00  0.00    +0.000 NA
ATOM     15  C   UNL     1       6.708  15.045  20.557  0.00  0.00    +0.000 A 
ENDROOT
BRANCH   5  16
ATOM     16  C   UNL     1       2.995  14.736  20.862  0.00  0.00    +0.000 A 
ATOM     17  C   UNL     1       2.214  13.692  20.397  0.00  0.00    +0.000 A 
ATOM     18  N   UNL     1       0.918  13.784  20.035  0.00  0.00    +0.000 NA
ATOM     19  C   UNL     1       0.352  14.981  20.170  0.00  0.00    +0.000 A 
ATOM     20  N   UNL     1      -0.945  15.114  19.729  0.00  0.00    +0.000 N 
ATOM     21  N   UNL     1       0.951  16.040  20.717  0.00  0.00    +0.000 NA
ATOM     22  C   UNL     1       2.260  15.893  21.048  0.00  0.00    +0.000 A 
ATOM     23  H   UNL     1      -1.387  14.206  19.683  0.00  0.00    +0.000 HD
ATOM     24  H   UNL     1      -1.418  15.846  20.235  0.00  0.00    +0.000 HD
ENDBRANCH   5  16
BRANCH   1  29
ATOM     25  C   UNL     1       9.816  12.549  20.218  0.00  0.00    +0.000 C 
ATOM     26  O   UNL     1       9.192  12.232  21.226  0.00  0.00    +0.000 OA
ATOM     27  N   UNL     1      10.105  13.855  19.872  0.00  0.00    +0.000 N 
ATOM     28  C   UNL     1       9.734  15.004  20.705  0.00  0.00    +0.000 C 
ATOM     29  C   UNL     1       9.007  15.618  19.482  0.00  0.00    +0.000 C 
ATOM     30  C   UNL     1       9.452  17.055  19.241  0.00  0.00    +0.000 C 
ATOM     31  C   UNL     1       9.676  14.512  18.625  0.00  0.00    +0.000 C 
BRANCH  25  33
ATOM     32  C   UNL     1      11.874  11.480  19.098  0.00  0.00    +0.000 C 
ATOM     33  C   UNL     1      10.385  11.473  19.329  0.00  0.00    +0.000 C 
ATOM     34  C   UNL     1       9.517  11.099  18.125  0.00  0.00    +0.000 C 
ATOM     35  C   UNL     1       9.673  10.128  19.253  0.00  0.00    +0.000 C 
ENDBRANCH  25  33
ENDBRANCH   1  29
TORSDOF 3
ENDMDL
MODEL 7
REMARK VINA RESULT:      -6.9      3.135      4.445
REMARK  Name = 
REMARK  5 active torsions:
REMARK  status: ('A' for Active; 'I' for Inactive)
REMARK    1  A    between atoms: C_1  and  C_2
REMARK    2  A    between atoms: C_2  and  C_3
REMARK    3  A    between atoms: C_7  and  C_8
REMARK    4  A    between atoms: C_7  and  N_9
REMARK    5  A    between atoms: C_13  and  C_14
REMARK                            x       y       z     vdW  Elec       q    Type
REMARK                         _______ _______ _______ _____ _____    ______ ____
ROOT
ATOM      1  N   UNL     1      -1.856  13.497  23.189  0.00  0.00    +0.000 N 
ATOM      2  C   UNL     1      -2.438  12.174  23.415  0.00  0.00    +0.000 C 
ATOM      3  C   UNL     1      -1.580  11.138  22.690  0.00  0.00    +0.000 C 
ATOM      4  C   UNL     1      -0.547  11.975  22.034  0.00  0.00    +0.000 A 
ATOM      5  C   UNL     1       0.521  11.635  21.239  0.00  0.00    +0.000 A 
ATOM      6  N   UNL     1       1.350  12.601  20.788  0.00  0.00    +0.000 NA
ATOM      7  C   UNL     1       1.126  13.888  21.135  0.00  0.00    +0.000 A 
ATOM      8  N   UNL     1       1.990  14.843  20.670  0.00  0.00    +0.000 N 
ATOM      9  C   UNL     1       1.878  16.247  21.059  0.00  0.00    +0.000 C 
ATOM     10  C   UNL     1       1.687  17.123  19.810  0.00  0.00    +0.000 C 
ATOM     11  O   UNL     1       2.717  16.886  18.834  0.00  0.00    +0.000 OA
ATOM     12  C   UNL     1       2.704  15.509  18.419  0.00  0.00    +0.000 C 
ATOM     13  C   UNL     1       2.952  14.560  19.604  0.00  0.00    +0.000 C 
ATOM     14  N   UNL     1       0.107  14.262  21.931  0.00  0.00    +0.000 NA
ATOM     15  C   UNL     1      -0.716  13.303  22.359  0.00  0.00    +0.000 A 
ENDROOT
BRANCH   5  16
ATOM     16  C   UNL     1       0.889  10.255  20.906  0.00  0.00    +0.000 A 
ATOM     17  C   UNL     1       1.068   9.243  21.833  0.00  0.00    +0.000 A 
ATOM     18  N   UNL     1       1.558   8.014  21.568  0.00  0.00    +0.000 NA
ATOM     19  C   UNL     1       1.861   7.762  20.296  0.00  0.00    +0.000 A 
ATOM     20  N   UNL     1       2.437   6.544  20.020  0.00  0.00    +0.000 N 
ATOM     21  N   UNL     1       1.626   8.602  19.286  0.00  0.00    +0.000 NA
ATOM     22  C   UNL     1       1.148   9.829  19.616  0.00  0.00    +0.000 A 
ATOM     23  H   UNL     1       2.233   5.891  20.763  0.00  0.00    +0.000 HD
ATOM     24  H   UNL     1       2.234   6.264  19.073  0.00  0.00    +0.000 HD
ENDBRANCH   5  16
BRANCH   1  29
ATOM     25  C   UNL     1      -5.347  14.683  22.333  0.00  0.00    +0.000 C 
ATOM     26  O   UNL     1      -5.183  14.501  21.131  0.00  0.00    +0.000 OA
ATOM     27  N   UNL     1      -4.382  15.212  23.169  0.00  0.00    +0.000 N 
ATOM     28  C   UNL     1      -3.069  15.659  22.693  0.00  0.00    +0.000 C 
ATOM     29  C   UNL     1      -2.406  14.723  23.735  0.00  0.00    +0.000 C 
ATOM     30  C   UNL     1      -1.379  15.472  24.574  0.00  0.00    +0.000 C 
ATOM     31  C   UNL     1      -3.819  14.528  24.346  0.00  0.00    +0.000 C 
BRANCH  25  33
ATOM     32  C   UNL     1      -7.368  15.529  23.687  0.00  0.00    +0.000 C 
ATOM     33  C   UNL     1      -6.693  14.401  22.949  0.00  0.00    +0.000 C 
ATOM     34  C   UNL     1      -6.849  13.006  23.560  0.00  0.00    +0.000 C 
ATOM     35  C   UNL     1      -7.591  13.351  22.307  0.00  0.00    +0.000 C 
ENDBRANCH  25  33
ENDBRANCH   1  29
TORSDOF 3
ENDMDL
MODEL 8
REMARK VINA RESULT:      -6.9      7.836     12.025
REMARK  Name = 
REMARK  5 active torsions:
REMARK  status: ('A' for Active; 'I' for Inactive)
REMARK    1  A    between atoms: C_1  and  C_2
REMARK    2  A    between atoms: C_2  and  C_3
REMARK    3  A    between atoms: C_7  and  C_8
REMARK    4  A    between atoms: C_7  and  N_9
REMARK    5  A    between atoms: C_13  and  C_14
REMARK                            x       y       z     vdW  Elec       q    Type
REMARK                         _______ _______ _______ _____ _____    ______ ____
ROOT
ATOM      1  N   UNL     1       7.037  15.310  18.901  0.00  0.00    +0.000 N 
ATOM      2  C   UNL     1       6.100  15.298  17.778  0.00  0.00    +0.000 C 
ATOM      3  C   UNL     1       4.702  14.997  18.318  0.00  0.00    +0.000 C 
ATOM      4  C   UNL     1       4.950  14.804  19.767  0.00  0.00    +0.000 A 
ATOM      5  C   UNL     1       4.091  14.515  20.800  0.00  0.00    +0.000 A 
ATOM      6  N   UNL     1       4.570  14.424  22.059  0.00  0.00    +0.000 NA
ATOM      7  C   UNL     1       5.885  14.635  22.289  0.00  0.00    +0.000 A 
ATOM      8  N   UNL     1       6.338  14.546  23.578  0.00  0.00    +0.000 N 
ATOM      9  C   UNL     1       7.726  14.838  23.935  0.00  0.00    +0.000 C 
ATOM     10  C   UNL     1       8.365  13.606  24.598  0.00  0.00    +0.000 C 
ATOM     11  O   UNL     1       7.582  13.134  25.708  0.00  0.00    +0.000 OA
ATOM     12  C   UNL     1       6.263  12.768  25.267  0.00  0.00    +0.000 C 
ATOM     13  C   UNL     1       5.522  13.965  24.645  0.00  0.00    +0.000 C 
ATOM     14  N   UNL     1       6.756  14.944  21.311  0.00  0.00    +0.000 NA
ATOM     15  C   UNL     1       6.276  15.015  20.068  0.00  0.00    +0.000 A 
ENDROOT
BRANCH   5  16
ATOM     16  C   UNL     1       2.639  14.378  20.646  0.00  0.00    +0.000 A 
ATOM     17  C   UNL     1       1.978  13.177  20.447  0.00  0.00    +0.000 A 
ATOM     18  N   UNL     1       0.670  13.043  20.146  0.00  0.00    +0.000 NA
ATOM     19  C   UNL     1      -0.036  14.169  20.068  0.00  0.00    +0.000 A 
ATOM     20  N   UNL     1      -1.352  14.057  19.682  0.00  0.00    +0.000 N 
ATOM     21  N   UNL     1       0.445  15.381  20.355  0.00  0.00    +0.000 NA
ATOM     22  C   UNL     1       1.772  15.456  20.634  0.00  0.00    +0.000 A 
ATOM     23  H   UNL     1      -1.679  13.115  19.846  0.00  0.00    +0.000 HD
ATOM     24  H   UNL     1      -1.896  14.820  20.055  0.00  0.00    +0.000 HD
ENDBRANCH   5  16
BRANCH   1  29
ATOM     25  C   UNL     1       9.649  12.782  19.955  0.00  0.00    +0.000 C 
ATOM     26  O   UNL     1       9.109  12.581  21.038  0.00  0.00    +0.000 OA
ATOM     27  N   UNL     1       9.769  14.031  19.376  0.00  0.00    +0.000 N 
ATOM     28  C   UNL     1       9.301  15.261  20.024  0.00  0.00    +0.000 C 
ATOM     29  C   UNL     1       8.457  15.570  18.762  0.00  0.00    +0.000 C 
ATOM     30  C   UNL     1       8.720  16.982  18.254  0.00  0.00    +0.000 C 
ATOM     31  C   UNL     1       9.215  14.410  18.064  0.00  0.00    +0.000 C 
BRANCH  25  33
ATOM     32  C   UNL     1       9.531  10.344  19.135  0.00  0.00    +0.000 C 
ATOM     33  C   UNL     1      10.302  11.636  19.228  0.00  0.00    +0.000 C 
ATOM     34  C   UNL     1      11.812  11.506  19.441  0.00  0.00    +0.000 C 
ATOM     35  C   UNL     1      11.290  11.941  18.108  0.00  0.00    +0.000 C 
ENDBRANCH  25  33
ENDBRANCH   1  29
TORSDOF 3
ENDMDL
MODEL 9
REMARK VINA RESULT:      -6.9      8.189     11.170
REMARK  Name = 
REMARK  5 active torsions:
REMARK  status: ('A' for Active; 'I' for Inactive)
REMARK    1  A    between atoms: C_1  and  C_2
REMARK    2  A    between atoms: C_2  and  C_3
REMARK    3  A    between atoms: C_7  and  C_8
REMARK    4  A    between atoms: C_7  and  N_9
REMARK    5  A    between atoms: C_13  and  C_14
REMARK                            x       y       z     vdW  Elec       q    Type
REMARK                         _______ _______ _______ _____ _____    ______ ____
ROOT
ATOM      1  N   UNL     1       5.768  15.548  20.341  0.00  0.00    +0.000 N 
ATOM      2  C   UNL     1       4.813  15.528  21.448  0.00  0.00    +0.000 C 
ATOM      3  C   UNL     1       5.393  14.667  22.571  0.00  0.00    +0.000 C 
ATOM      4  C   UNL     1       6.673  14.198  21.990  0.00  0.00    +0.000 A 
ATOM      5  C   UNL     1       7.660  13.394  22.509  0.00  0.00    +0.000 A 
ATOM      6  N   UNL     1       8.765  13.140  21.777  0.00  0.00    +0.000 NA
ATOM      7  C   UNL     1       8.895  13.692  20.550  0.00  0.00    +0.000 A 
ATOM      8  N   UNL     1      10.032  13.424  19.837  0.00  0.00    +0.000 N 
ATOM      9  C   UNL     1      10.298  14.041  18.539  0.00  0.00    +0.000 C 
ATOM     10  C   UNL     1      10.471  12.951  17.468  0.00  0.00    +0.000 C 
ATOM     11  O   UNL     1      11.466  11.984  17.850  0.00  0.00    +0.000 OA
ATOM     12  C   UNL     1      11.090  11.344  19.081  0.00  0.00    +0.000 C 
ATOM     13  C   UNL     1      10.956  12.359  20.230  0.00  0.00    +0.000 C 
ATOM     14  N   UNL     1       7.965  14.505  20.015  0.00  0.00    +0.000 NA
ATOM     15  C   UNL     1       6.868  14.736  20.738  0.00  0.00    +0.000 A 
ENDROOT
BRANCH   5  16
ATOM     16  C   UNL     1       7.640  12.845  23.869  0.00  0.00    +0.000 A 
ATOM     17  C   UNL     1       6.951  11.706  24.248  0.00  0.00    +0.000 A 
ATOM     18  N   UNL     1       6.790  11.273  25.516  0.00  0.00    +0.000 NA
ATOM     19  C   UNL     1       7.375  11.999  26.466  0.00  0.00    +0.000 A 
ATOM     20  N   UNL     1       7.153  11.619  27.770  0.00  0.00    +0.000 N 
ATOM     21  N   UNL     1       8.167  13.047  26.232  0.00  0.00    +0.000 NA
ATOM     22  C   UNL     1       8.278  13.447  24.939  0.00  0.00    +0.000 A 
ATOM     23  H   UNL     1       6.862  10.652  27.801  0.00  0.00    +0.000 HD
ATOM     24  H   UNL     1       7.922  11.903  28.356  0.00  0.00    +0.000 HD
ENDBRANCH   5  16
BRANCH   1  29
ATOM     25  C   UNL     1       2.468  15.421  18.494  0.00  0.00    +0.000 C 
ATOM     26  O   UNL     1       2.397  14.199  18.572  0.00  0.00    +0.000 OA
ATOM     27  N   UNL     1       3.636  16.109  18.228  0.00  0.00    +0.000 N 
ATOM     28  C   UNL     1       4.915  15.441  17.964  0.00  0.00    +0.000 C 
ATOM     29  C   UNL     1       5.552  16.274  19.104  0.00  0.00    +0.000 C 
ATOM     30  C   UNL     1       6.823  16.970  18.635  0.00  0.00    +0.000 C 
ATOM     31  C   UNL     1       4.246  17.112  19.119  0.00  0.00    +0.000 C 
BRANCH  25  33
ATOM     32  C   UNL     1       1.084  17.444  17.700  0.00  0.00    +0.000 C 
ATOM     33  C   UNL     1       1.211  16.245  18.605  0.00  0.00    +0.000 C 
ATOM     34  C   UNL     1       0.667  16.412  20.026  0.00  0.00    +0.000 C 
ATOM     35  C   UNL     1      -0.079  15.564  19.046  0.00  0.00    +0.000 C 
ENDBRANCH  25  33
ENDBRANCH   1  29
TORSDOF 3
ENDMDL
