MODEL 1
REMARK VINA RESULT:      -8.0      0.000      0.000
REMARK  Name = 
REMARK  7 active torsions:
REMARK  status: ('A' for Active; 'I' for Inactive)
REMARK    1  A    between atoms: C_1  and  C_2
REMARK    2  A    between atoms: C_2  and  C_3
REMARK    3  A    between atoms: C_2  and  C_4
REMARK    4  A    between atoms: C_2  and  O_5
REMARK    5  A    between atoms: O_5  and  C_6
REMARK    6  A    between atoms: N_16  and  C_17
REMARK    7  A    between atoms: C_20  and  N_21
REMARK                            x       y       z     vdW  Elec       q    Type
REMARK                         _______ _______ _______ _____ _____    ______ ____
ROOT
ATOM      1  C   UNL     1       4.643   3.854  16.871  0.00  0.00    +0.000 C 
ATOM      2  O   UNL     1       3.988   3.920  15.848  0.00  0.00    +0.000 OA
ATOM      3  N   UNL     1       4.199   3.167  17.984  0.00  0.00    +0.000 N 
ATOM      4  C   UNL     1       2.828   2.648  18.135  0.00  0.00    +0.000 C 
ATOM      5  C   UNL     1       2.727   2.521  19.694  0.00  0.00    +0.000 C 
ATOM      6  C   UNL     1       4.151   2.030  19.997  0.00  0.00    +0.000 C 
ATOM      7  C   UNL     1       4.794   3.259  19.309  0.00  0.00    +0.000 C 
ATOM      8  C   UNL     1       4.121   4.385  20.098  0.00  0.00    +0.000 C 
ATOM      9  C   UNL     1       3.731   5.696  19.466  0.00  0.00    +0.000 C 
ATOM     10  O   UNL     1       4.445   6.355  18.724  0.00  0.00    +0.000 OA
ATOM     11  N   UNL     1       2.467   6.017  19.923  0.00  0.00    +0.000 N 
ATOM     12  C   UNL     1       1.811   4.841  20.240  0.00  0.00    +0.000 C 
ATOM     13  O   UNL     1       0.620   4.629  20.366  0.00  0.00    +0.000 OA
ATOM     14  N   UNL     1       2.792   3.844  20.328  0.00  0.00    +0.000 N 
ENDROOT
BRANCH  11  15
ATOM     15  C   UNL     1       1.947   7.328  19.834  0.00  0.00    +0.000 A 
ATOM     16  C   UNL     1       1.910   8.066  18.644  0.00  0.00    +0.000 A 
ATOM     17  C   UNL     1       1.386   9.364  18.633  0.00  0.00    +0.000 A 
ATOM     18  C   UNL     1       0.852   9.921  19.808  0.00  0.00    +0.000 A 
ATOM     19  C   UNL     1       0.848   9.194  20.995  0.00  0.00    +0.000 A 
ATOM     20  C   UNL     1       1.400   7.913  20.996  0.00  0.00    +0.000 A 
BRANCH  18  21
ATOM     21  N   UNL     1       0.267  11.271  19.796  0.00  0.00    +0.000 N 
ATOM     22  O   UNL     1       0.420  11.965  20.815  0.00  0.00    +0.000 OA
ATOM     23  O   UNL     1      -0.330  11.632  18.780  0.00  0.00    +0.000 OA
ENDBRANCH  18  21
ENDBRANCH  11  15
BRANCH   1  24
ATOM     24  O   UNL     1       5.849   4.449  17.087  0.00  0.00    +0.000 OA
BRANCH  24  26
ATOM     25  C   UNL     1       5.238   6.385  15.657  0.00  0.00    +0.000 C 
ATOM     26  C   UNL     1       6.354   5.454  16.161  0.00  0.00    +0.000 C 
ATOM     27  C   UNL     1       7.114   4.785  15.011  0.00  0.00    +0.000 C 
ATOM     28  C   UNL     1       7.357   6.329  16.938  0.00  0.00    +0.000 C 
ENDBRANCH  24  26
ENDBRANCH   1  24
TORSDOF 4
ENDMDL
MODEL 2
REMARK VINA RESULT:      -8.0      0.363      1.094
REMARK  Name = 
REMARK  7 active torsions:
REMARK  status: ('A' for Active; 'I' for Inactive)
REMARK    1  A    between atoms: C_1  and  C_2
REMARK    2  A    between atoms: C_2  and  C_3
REMARK    3  A    between atoms: C_2  and  C_4
REMARK    4  A    between atoms: C_2  and  O_5
REMARK    5  A    between atoms: O_5  and  C_6
REMARK    6  A    between atoms: N_16  and  C_17
REMARK    7  A    between atoms: C_20  and  N_21
REMARK                            x       y       z     vdW  Elec       q    Type
REMARK                         _______ _______ _______ _____ _____    ______ ____
ROOT
ATOM      1  C   UNL     1       4.660   3.831  16.878  0.00  0.00    +0.000 C 
ATOM      2  O   UNL     1       4.006   3.870  15.853  0.00  0.00    +0.000 OA
ATOM      3  N   UNL     1       4.219   3.166  18.005  0.00  0.00    +0.000 N 
ATOM      4  C   UNL     1       2.852   2.640  18.166  0.00  0.00    +0.000 C 
ATOM      5  C   UNL     1       2.750   2.547  19.727  0.00  0.00    +0.000 C 
ATOM      6  C   UNL     1       4.177   2.072  20.042  0.00  0.00    +0.000 C 
ATOM      7  C   UNL     1       4.811   3.291  19.329  0.00  0.00    +0.000 C 
ATOM      8  C   UNL     1       4.129   4.429  20.092  0.00  0.00    +0.000 C 
ATOM      9  C   UNL     1       3.731   5.723  19.431  0.00  0.00    +0.000 C 
ATOM     10  O   UNL     1       4.442   6.371  18.675  0.00  0.00    +0.000 OA
ATOM     11  N   UNL     1       2.465   6.045  19.880  0.00  0.00    +0.000 N 
ATOM     12  C   UNL     1       1.817   4.872  20.221  0.00  0.00    +0.000 C 
ATOM     13  O   UNL     1       0.627   4.654  20.350  0.00  0.00    +0.000 OA
ATOM     14  N   UNL     1       2.804   3.883  20.332  0.00  0.00    +0.000 N 
ENDROOT
BRANCH  11  15
ATOM     15  C   UNL     1       1.936   7.350  19.761  0.00  0.00    +0.000 A 
ATOM     16  C   UNL     1       1.407   8.072  20.838  0.00  0.00    +0.000 A 
ATOM     17  C   UNL     1       0.893   9.359  20.643  0.00  0.00    +0.000 A 
ATOM     18  C   UNL     1       0.944   9.956  19.371  0.00  0.00    +0.000 A 
ATOM     19  C   UNL     1       1.496   9.270  18.292  0.00  0.00    +0.000 A 
ATOM     20  C   UNL     1       1.977   7.977  18.498  0.00  0.00    +0.000 A 
BRANCH  18  21
ATOM     21  N   UNL     1       0.439  11.322  19.165  0.00  0.00    +0.000 N 
ATOM     22  O   UNL     1      -0.705  11.440  18.697  0.00  0.00    +0.000 OA
ATOM     23  O   UNL     1       1.174  12.261  19.476  0.00  0.00    +0.000 OA
ENDBRANCH  18  21
ENDBRANCH  11  15
BRANCH   1  24
ATOM     24  O   UNL     1       5.862   4.439  17.083  0.00  0.00    +0.000 OA
BRANCH  24  26
ATOM     25  C   UNL     1       5.233   6.356  15.634  0.00  0.00    +0.000 C 
ATOM     26  C   UNL     1       6.355   5.435  16.140  0.00  0.00    +0.000 C 
ATOM     27  C   UNL     1       7.110   4.755  14.993  0.00  0.00    +0.000 C 
ATOM     28  C   UNL     1       7.361   6.323  16.900  0.00  0.00    +0.000 C 
ENDBRANCH  24  26
ENDBRANCH   1  24
TORSDOF 4
ENDMDL
MODEL 3
REMARK VINA RESULT:      -7.8      0.279      1.251
REMARK  Name = 
REMARK  7 active torsions:
REMARK  status: ('A' for Active; 'I' for Inactive)
REMARK    1  A    between atoms: C_1  and  C_2
REMARK    2  A    between atoms: C_2  and  C_3
REMARK    3  A    between atoms: C_2  and  C_4
REMARK    4  A    between atoms: C_2  and  O_5
REMARK    5  A    between atoms: O_5  and  C_6
REMARK    6  A    between atoms: N_16  and  C_17
REMARK    7  A    between atoms: C_20  and  N_21
REMARK                            x       y       z     vdW  Elec       q    Type
REMARK                         _______ _______ _______ _____ _____    ______ ____
ROOT
ATOM      1  C   UNL     1       4.701   3.862  16.891  0.00  0.00    +0.000 C 
ATOM      2  O   UNL     1       4.069   3.936  15.854  0.00  0.00    +0.000 OA
ATOM      3  N   UNL     1       4.233   3.164  17.987  0.00  0.00    +0.000 N 
ATOM      4  C   UNL     1       2.861   2.639  18.103  0.00  0.00    +0.000 C 
ATOM      5  C   UNL     1       2.726   2.498  19.658  0.00  0.00    +0.000 C 
ATOM      6  C   UNL     1       4.144   2.007  19.988  0.00  0.00    +0.000 C 
ATOM      7  C   UNL     1       4.798   3.244  19.326  0.00  0.00    +0.000 C 
ATOM      8  C   UNL     1       4.105   4.361  20.110  0.00  0.00    +0.000 C 
ATOM      9  C   UNL     1       3.725   5.677  19.482  0.00  0.00    +0.000 C 
ATOM     10  O   UNL     1       4.454   6.345  18.762  0.00  0.00    +0.000 OA
ATOM     11  N   UNL     1       2.451   5.990  19.914  0.00  0.00    +0.000 N 
ATOM     12  C   UNL     1       1.791   4.810  20.204  0.00  0.00    +0.000 C 
ATOM     13  O   UNL     1       0.598   4.593  20.302  0.00  0.00    +0.000 OA
ATOM     14  N   UNL     1       2.773   3.814  20.305  0.00  0.00    +0.000 N 
ENDROOT
BRANCH  11  15
ATOM     15  C   UNL     1       1.929   7.301  19.825  0.00  0.00    +0.000 A 
ATOM     16  C   UNL     1       1.390   7.995  20.915  0.00  0.00    +0.000 A 
ATOM     17  C   UNL     1       0.885   9.289  20.749  0.00  0.00    +0.000 A 
ATOM     18  C   UNL     1       0.954   9.921  19.496  0.00  0.00    +0.000 A 
ATOM     19  C   UNL     1       1.516   9.263  18.405  0.00  0.00    +0.000 A 
ATOM     20  C   UNL     1       1.989   7.963  18.580  0.00  0.00    +0.000 A 
BRANCH  18  21
ATOM     21  N   UNL     1       0.458  11.295  19.322  0.00  0.00    +0.000 N 
ATOM     22  O   UNL     1       1.106  12.206  19.863  0.00  0.00    +0.000 OA
ATOM     23  O   UNL     1      -0.561  11.459  18.648  0.00  0.00    +0.000 OA
ENDBRANCH  18  21
ENDBRANCH  11  15
BRANCH   1  24
ATOM     24  O   UNL     1       5.900   4.458  17.140  0.00  0.00    +0.000 OA
BRANCH  24  26
ATOM     25  C   UNL     1       7.402   6.429  16.982  0.00  0.00    +0.000 C 
ATOM     26  C   UNL     1       6.396   5.514  16.266  0.00  0.00    +0.000 C 
ATOM     27  C   UNL     1       5.226   6.297  15.660  0.00  0.00    +0.000 C 
ATOM     28  C   UNL     1       7.150   4.831  15.107  0.00  0.00    +0.000 C 
ENDBRANCH  24  26
ENDBRANCH   1  24
TORSDOF 4
ENDMDL
MODEL 4
REMARK VINA RESULT:      -7.8      0.068      1.010
REMARK  Name = 
REMARK  7 active torsions:
REMARK  status: ('A' for Active; 'I' for Inactive)
REMARK    1  A    between atoms: C_1  and  C_2
REMARK    2  A    between atoms: C_2  and  C_3
REMARK    3  A    between atoms: C_2  and  C_4
REMARK    4  A    between atoms: C_2  and  O_5
REMARK    5  A    between atoms: O_5  and  C_6
REMARK    6  A    between atoms: N_16  and  C_17
REMARK    7  A    between atoms: C_20  and  N_21
REMARK                            x       y       z     vdW  Elec       q    Type
REMARK                         _______ _______ _______ _____ _____    ______ ____
ROOT
ATOM      1  C   UNL     1       4.703   3.864  16.883  0.00  0.00    +0.000 C 
ATOM      2  O   UNL     1       4.068   3.939  15.847  0.00  0.00    +0.000 OA
ATOM      3  N   UNL     1       4.235   3.169  17.981  0.00  0.00    +0.000 N 
ATOM      4  C   UNL     1       2.860   2.652  18.102  0.00  0.00    +0.000 C 
ATOM      5  C   UNL     1       2.728   2.513  19.657  0.00  0.00    +0.000 C 
ATOM      6  C   UNL     1       4.145   2.016  19.984  0.00  0.00    +0.000 C 
ATOM      7  C   UNL     1       4.804   3.249  19.318  0.00  0.00    +0.000 C 
ATOM      8  C   UNL     1       4.118   4.370  20.103  0.00  0.00    +0.000 C 
ATOM      9  C   UNL     1       3.743   5.687  19.473  0.00  0.00    +0.000 C 
ATOM     10  O   UNL     1       4.473   6.351  18.751  0.00  0.00    +0.000 OA
ATOM     11  N   UNL     1       2.472   6.008  19.909  0.00  0.00    +0.000 N 
ATOM     12  C   UNL     1       1.807   4.831  20.203  0.00  0.00    +0.000 C 
ATOM     13  O   UNL     1       0.613   4.621  20.304  0.00  0.00    +0.000 OA
ATOM     14  N   UNL     1       2.784   3.831  20.302  0.00  0.00    +0.000 N 
ENDROOT
BRANCH  11  15
ATOM     15  C   UNL     1       1.956   7.321  19.819  0.00  0.00    +0.000 A 
ATOM     16  C   UNL     1       1.931   8.063  18.632  0.00  0.00    +0.000 A 
ATOM     17  C   UNL     1       1.411   9.362  18.621  0.00  0.00    +0.000 A 
ATOM     18  C   UNL     1       0.869   9.918  19.793  0.00  0.00    +0.000 A 
ATOM     19  C   UNL     1       0.854   9.186  20.978  0.00  0.00    +0.000 A 
ATOM     20  C   UNL     1       1.402   7.904  20.979  0.00  0.00    +0.000 A 
BRANCH  18  21
ATOM     21  N   UNL     1       0.288  11.269  19.781  0.00  0.00    +0.000 N 
ATOM     22  O   UNL     1      -0.463  11.556  18.834  0.00  0.00    +0.000 OA
ATOM     23  O   UNL     1       0.575  12.028  20.709  0.00  0.00    +0.000 OA
ENDBRANCH  18  21
ENDBRANCH  11  15
BRANCH   1  24
ATOM     24  O   UNL     1       5.905   4.454  17.128  0.00  0.00    +0.000 OA
BRANCH  24  26
ATOM     25  C   UNL     1       7.114   4.806  14.987  0.00  0.00    +0.000 C 
ATOM     26  C   UNL     1       6.439   5.451  16.209  0.00  0.00    +0.000 C 
ATOM     27  C   UNL     1       7.376   6.411  16.950  0.00  0.00    +0.000 C 
ATOM     28  C   UNL     1       5.246   6.274  15.684  0.00  0.00    +0.000 C 
ENDBRANCH  24  26
ENDBRANCH   1  24
TORSDOF 4
ENDMDL
MODEL 5
REMARK VINA RESULT:      -7.0      3.385      8.460
REMARK  Name = 
REMARK  7 active torsions:
REMARK  status: ('A' for Active; 'I' for Inactive)
REMARK    1  A    between atoms: C_1  and  C_2
REMARK    2  A    between atoms: C_2  and  C_3
REMARK    3  A    between atoms: C_2  and  C_4
REMARK    4  A    between atoms: C_2  and  O_5
REMARK    5  A    between atoms: O_5  and  C_6
REMARK    6  A    between atoms: N_16  and  C_17
REMARK    7  A    between atoms: C_20  and  N_21
REMARK                            x       y       z     vdW  Elec       q    Type
REMARK                         _______ _______ _______ _____ _____    ______ ____
ROOT
ATOM      1  C   UNL     1       2.335  13.740  20.367  0.00  0.00    +0.000 C 
ATOM      2  O   UNL     1       3.047  13.586  21.341  0.00  0.00    +0.000 OA
ATOM      3  N   UNL     1       0.979  13.483  20.401  0.00  0.00    +0.000 N 
ATOM      4  C   UNL     1       0.301  12.796  21.515  0.00  0.00    +0.000 C 
ATOM      5  C   UNL     1      -0.995  12.277  20.802  0.00  0.00    +0.000 C 
ATOM      6  C   UNL     1      -1.277  13.481  19.890  0.00  0.00    +0.000 C 
ATOM      7  C   UNL     1       0.120  13.393  19.229  0.00  0.00    +0.000 C 
ATOM      8  C   UNL     1       0.084  11.947  18.727  0.00  0.00    +0.000 C 
ATOM      9  C   UNL     1       1.306  11.065  18.710  0.00  0.00    +0.000 C 
ATOM     10  O   UNL     1       2.408  11.404  18.302  0.00  0.00    +0.000 OA
ATOM     11  N   UNL     1       0.927   9.823  19.181  0.00  0.00    +0.000 N 
ATOM     12  C   UNL     1      -0.154   9.994  20.027  0.00  0.00    +0.000 C 
ATOM     13  O   UNL     1      -0.592   9.250  20.884  0.00  0.00    +0.000 OA
ATOM     14  N   UNL     1      -0.660  11.278  19.781  0.00  0.00    +0.000 N 
ENDROOT
BRANCH  11  15
ATOM     15  C   UNL     1       1.708   8.666  18.960  0.00  0.00    +0.000 A 
ATOM     16  C   UNL     1       2.385   8.407  17.762  0.00  0.00    +0.000 A 
ATOM     17  C   UNL     1       3.135   7.235  17.613  0.00  0.00    +0.000 A 
ATOM     18  C   UNL     1       3.251   6.328  18.681  0.00  0.00    +0.000 A 
ATOM     19  C   UNL     1       2.613   6.581  19.893  0.00  0.00    +0.000 A 
ATOM     20  C   UNL     1       1.846   7.740  20.015  0.00  0.00    +0.000 A 
BRANCH  18  21
ATOM     21  N   UNL     1       4.066   5.111  18.544  0.00  0.00    +0.000 N 
ATOM     22  O   UNL     1       4.976   4.941  19.372  0.00  0.00    +0.000 OA
ATOM     23  O   UNL     1       3.794   4.336  17.625  0.00  0.00    +0.000 OA
ENDBRANCH  18  21
ENDBRANCH  11  15
BRANCH   1  24
ATOM     24  O   UNL     1       2.747  14.139  19.131  0.00  0.00    +0.000 OA
BRANCH  24  26
ATOM     25  C   UNL     1       4.852  15.425  19.415  0.00  0.00    +0.000 C 
ATOM     26  C   UNL     1       3.387  15.435  18.949  0.00  0.00    +0.000 C 
ATOM     27  C   UNL     1       2.568  16.534  19.634  0.00  0.00    +0.000 C 
ATOM     28  C   UNL     1       3.395  15.732  17.436  0.00  0.00    +0.000 C 
ENDBRANCH  24  26
ENDBRANCH   1  24
TORSDOF 4
ENDMDL
MODEL 6
REMARK VINA RESULT:      -6.9      3.368      8.451
REMARK  Name = 
REMARK  7 active torsions:
REMARK  status: ('A' for Active; 'I' for Inactive)
REMARK    1  A    between atoms: C_1  and  C_2
REMARK    2  A    between atoms: C_2  and  C_3
REMARK    3  A    between atoms: C_2  and  C_4
REMARK    4  A    between atoms: C_2  and  O_5
REMARK    5  A    between atoms: O_5  and  C_6
REMARK    6  A    between atoms: N_16  and  C_17
REMARK    7  A    between atoms: C_20  and  N_21
REMARK                            x       y       z     vdW  Elec       q    Type
REMARK                         _______ _______ _______ _____ _____    ______ ____
ROOT
ATOM      1  C   UNL     1       2.403  13.692  20.298  0.00  0.00    +0.000 C 
ATOM      2  O   UNL     1       3.087  13.559  21.296  0.00  0.00    +0.000 OA
ATOM      3  N   UNL     1       1.043  13.451  20.302  0.00  0.00    +0.000 N 
ATOM      4  C   UNL     1       0.327  12.805  21.416  0.00  0.00    +0.000 C 
ATOM      5  C   UNL     1      -0.955  12.280  20.683  0.00  0.00    +0.000 C 
ATOM      6  C   UNL     1      -1.197  13.459  19.729  0.00  0.00    +0.000 C 
ATOM      7  C   UNL     1       0.216  13.336  19.110  0.00  0.00    +0.000 C 
ATOM      8  C   UNL     1       0.177  11.877  18.649  0.00  0.00    +0.000 C 
ATOM      9  C   UNL     1       1.388  10.981  18.692  0.00  0.00    +0.000 C 
ATOM     10  O   UNL     1       2.504  11.295  18.305  0.00  0.00    +0.000 OA
ATOM     11  N   UNL     1       0.981   9.758  19.189  0.00  0.00    +0.000 N 
ATOM     12  C   UNL     1      -0.121   9.966  19.999  0.00  0.00    +0.000 C 
ATOM     13  O   UNL     1      -0.591   9.252  20.865  0.00  0.00    +0.000 OA
ATOM     14  N   UNL     1      -0.604  11.247  19.701  0.00  0.00    +0.000 N 
ENDROOT
BRANCH  11  15
ATOM     15  C   UNL     1       1.754   8.586  19.023  0.00  0.00    +0.000 A 
ATOM     16  C   UNL     1       1.881   7.598  20.007  0.00  0.00    +0.000 A 
ATOM     17  C   UNL     1       2.670   6.466  19.775  0.00  0.00    +0.000 A 
ATOM     18  C   UNL     1       3.308   6.290  18.534  0.00  0.00    +0.000 A 
ATOM     19  C   UNL     1       3.170   7.244  17.529  0.00  0.00    +0.000 A 
ATOM     20  C   UNL     1       2.403   8.380  17.788  0.00  0.00    +0.000 A 
BRANCH  18  21
ATOM     21  N   UNL     1       4.111   5.086  18.270  0.00  0.00    +0.000 N 
ATOM     22  O   UNL     1       3.738   4.348  17.343  0.00  0.00    +0.000 OA
ATOM     23  O   UNL     1       5.103   4.889  18.975  0.00  0.00    +0.000 OA
ENDBRANCH  18  21
ENDBRANCH  11  15
BRANCH   1  24
ATOM     24  O   UNL     1       2.854  14.049  19.063  0.00  0.00    +0.000 OA
BRANCH  24  26
ATOM     25  C   UNL     1       2.671  16.445  19.690  0.00  0.00    +0.000 C 
ATOM     26  C   UNL     1       3.380  15.388  18.827  0.00  0.00    +0.000 C 
ATOM     27  C   UNL     1       3.325  15.726  17.334  0.00  0.00    +0.000 C 
ATOM     28  C   UNL     1       4.862  15.377  19.251  0.00  0.00    +0.000 C 
ENDBRANCH  24  26
ENDBRANCH   1  24
TORSDOF 4
ENDMDL
MODEL 7
REMARK VINA RESULT:      -6.8      9.012     10.892
REMARK  Name = 
REMARK  7 active torsions:
REMARK  status: ('A' for Active; 'I' for Inactive)
REMARK    1  A    between atoms: C_1  and  C_2
REMARK    2  A    between atoms: C_2  and  C_3
REMARK    3  A    between atoms: C_2  and  C_4
REMARK    4  A    between atoms: C_2  and  O_5
REMARK    5  A    between atoms: O_5  and  C_6
REMARK    6  A    between atoms: N_16  and  C_17
REMARK    7  A    between atoms: C_20  and  N_21
REMARK                            x       y       z     vdW  Elec       q    Type
REMARK                         _______ _______ _______ _____ _____    ______ ____
ROOT
ATOM      1  C   UNL     1       9.397  15.280  18.386  0.00  0.00    +0.000 C 
ATOM      2  O   UNL     1       8.299  15.299  17.860  0.00  0.00    +0.000 OA
ATOM      3  N   UNL     1      10.194  14.152  18.379  0.00  0.00    +0.000 N 
ATOM      4  C   UNL     1       9.730  12.820  17.952  0.00  0.00    +0.000 C 
ATOM      5  C   UNL     1      10.769  11.896  18.675  0.00  0.00    +0.000 C 
ATOM      6  C   UNL     1      12.032  12.753  18.496  0.00  0.00    +0.000 C 
ATOM      7  C   UNL     1      11.385  13.972  19.197  0.00  0.00    +0.000 C 
ATOM      8  C   UNL     1      10.999  13.334  20.534  0.00  0.00    +0.000 C 
ATOM      9  C   UNL     1       9.747  13.713  21.281  0.00  0.00    +0.000 C 
ATOM     10  O   UNL     1       9.368  14.859  21.476  0.00  0.00    +0.000 OA
ATOM     11  N   UNL     1       9.164  12.544  21.731  0.00  0.00    +0.000 N 
ATOM     12  C   UNL     1       9.530  11.521  20.875  0.00  0.00    +0.000 C 
ATOM     13  O   UNL     1       9.013  10.434  20.703  0.00  0.00    +0.000 OA
ATOM     14  N   UNL     1      10.622  11.990  20.132  0.00  0.00    +0.000 N 
ENDROOT
BRANCH  11  15
ATOM     15  C   UNL     1       8.197  12.537  22.762  0.00  0.00    +0.000 A 
ATOM     16  C   UNL     1       6.867  12.934  22.578  0.00  0.00    +0.000 A 
ATOM     17  C   UNL     1       5.966  12.907  23.649  0.00  0.00    +0.000 A 
ATOM     18  C   UNL     1       6.378  12.438  24.909  0.00  0.00    +0.000 A 
ATOM     19  C   UNL     1       7.687  12.007  25.107  0.00  0.00    +0.000 A 
ATOM     20  C   UNL     1       8.580  12.068  24.037  0.00  0.00    +0.000 A 
BRANCH  18  21
ATOM     21  N   UNL     1       5.428  12.373  26.030  0.00  0.00    +0.000 N 
ATOM     22  O   UNL     1       4.912  13.441  26.399  0.00  0.00    +0.000 OA
ATOM     23  O   UNL     1       5.197  11.269  26.526  0.00  0.00    +0.000 OA
ENDBRANCH  18  21
ENDBRANCH  11  15
BRANCH   1  24
ATOM     24  O   UNL     1       9.975  16.309  19.065  0.00  0.00    +0.000 OA
BRANCH  24  26
ATOM     25  C   UNL     1       9.348  18.526  18.139  0.00  0.00    +0.000 C 
ATOM     26  C   UNL     1      10.459  17.485  18.353  0.00  0.00    +0.000 C 
ATOM     27  C   UNL     1      11.130  17.072  17.039  0.00  0.00    +0.000 C 
ATOM     28  C   UNL     1      11.533  18.145  19.239  0.00  0.00    +0.000 C 
ENDBRANCH  24  26
ENDBRANCH   1  24
TORSDOF 4
ENDMDL
MODEL 8
REMARK VINA RESULT:      -6.8      8.231     10.565
REMARK  Name = 
REMARK  7 active torsions:
REMARK  status: ('A' for Active; 'I' for Inactive)
REMARK    1  A    between atoms: C_1  and  C_2
REMARK    2  A    between atoms: C_2  and  C_3
REMARK    3  A    between atoms: C_2  and  C_4
REMARK    4  A    between atoms: C_2  and  O_5
REMARK    5  A    between atoms: O_5  and  C_6
REMARK    6  A    between atoms: N_16  and  C_17
REMARK    7  A    between atoms: C_20  and  N_21
REMARK                            x       y       z     vdW  Elec       q    Type
REMARK                         _______ _______ _______ _____ _____    ______ ____
ROOT
ATOM      1  C   UNL     1       9.049  13.640  20.108  0.00  0.00    +0.000 C 
ATOM      2  O   UNL     1       8.773  13.386  21.265  0.00  0.00    +0.000 OA
ATOM      3  N   UNL     1       9.382  14.916  19.696  0.00  0.00    +0.000 N 
ATOM      4  C   UNL     1       9.222  16.117  20.534  0.00  0.00    +0.000 C 
ATOM      5  C   UNL     1       9.176  17.240  19.441  0.00  0.00    +0.000 C 
ATOM      6  C   UNL     1      10.228  16.684  18.469  0.00  0.00    +0.000 C 
ATOM      7  C   UNL     1       9.469  15.344  18.308  0.00  0.00    +0.000 C 
ATOM      8  C   UNL     1       8.107  15.866  17.844  0.00  0.00    +0.000 C 
ATOM      9  C   UNL     1       6.810  15.213  18.246  0.00  0.00    +0.000 C 
ATOM     10  O   UNL     1       6.595  14.009  18.219  0.00  0.00    +0.000 OA
ATOM     11  N   UNL     1       5.926  16.219  18.584  0.00  0.00    +0.000 N 
ATOM     12  C   UNL     1       6.658  17.307  19.023  0.00  0.00    +0.000 C 
ATOM     13  O   UNL     1       6.307  18.256  19.698  0.00  0.00    +0.000 OA
ATOM     14  N   UNL     1       7.979  17.099  18.603  0.00  0.00    +0.000 N 
ENDROOT
BRANCH  11  15
ATOM     15  C   UNL     1       4.531  16.002  18.651  0.00  0.00    +0.000 A 
ATOM     16  C   UNL     1       3.907  15.296  19.688  0.00  0.00    +0.000 A 
ATOM     17  C   UNL     1       2.519  15.114  19.684  0.00  0.00    +0.000 A 
ATOM     18  C   UNL     1       1.734  15.676  18.662  0.00  0.00    +0.000 A 
ATOM     19  C   UNL     1       2.330  16.410  17.638  0.00  0.00    +0.000 A 
ATOM     20  C   UNL     1       3.717  16.557  17.642  0.00  0.00    +0.000 A 
BRANCH  18  21
ATOM     21  N   UNL     1       0.272  15.520  18.670  0.00  0.00    +0.000 N 
ATOM     22  O   UNL     1      -0.176  14.388  18.917  0.00  0.00    +0.000 OA
ATOM     23  O   UNL     1      -0.416  16.517  18.441  0.00  0.00    +0.000 OA
ENDBRANCH  18  21
ENDBRANCH  11  15
BRANCH   1  24
ATOM     24  O   UNL     1       9.041  12.756  19.072  0.00  0.00    +0.000 OA
BRANCH  24  26
ATOM     25  C   UNL     1      11.147  11.876  20.051  0.00  0.00    +0.000 C 
ATOM     26  C   UNL     1      10.047  11.705  18.990  0.00  0.00    +0.000 C 
ATOM     27  C   UNL     1      10.617  11.622  17.570  0.00  0.00    +0.000 C 
ATOM     28  C   UNL     1       9.337  10.369  19.287  0.00  0.00    +0.000 C 
ENDBRANCH  24  26
ENDBRANCH   1  24
TORSDOF 4
ENDMDL
MODEL 9
REMARK VINA RESULT:      -6.8      8.251     10.625
REMARK  Name = 
REMARK  7 active torsions:
REMARK  status: ('A' for Active; 'I' for Inactive)
REMARK    1  A    between atoms: C_1  and  C_2
REMARK    2  A    between atoms: C_2  and  C_3
REMARK    3  A    between atoms: C_2  and  C_4
REMARK    4  A    between atoms: C_2  and  O_5
REMARK    5  A    between atoms: O_5  and  C_6
REMARK    6  A    between atoms: N_16  and  C_17
REMARK    7  A    between atoms: C_20  and  N_21
REMARK                            x       y       z     vdW  Elec       q    Type
REMARK                         _______ _______ _______ _____ _____    ______ ____
ROOT
ATOM      1  C   UNL     1       9.080  13.779  20.177  0.00  0.00    +0.000 C 
ATOM      2  O   UNL     1       8.813  13.506  21.332  0.00  0.00    +0.000 OA
ATOM      3  N   UNL     1       9.370  15.068  19.775  0.00  0.00    +0.000 N 
ATOM      4  C   UNL     1       9.173  16.256  20.624  0.00  0.00    +0.000 C 
ATOM      5  C   UNL     1       9.089  17.386  19.540  0.00  0.00    +0.000 C 
ATOM      6  C   UNL     1      10.156  16.873  18.562  0.00  0.00    +0.000 C 
ATOM      7  C   UNL     1       9.441  15.511  18.391  0.00  0.00    +0.000 C 
ATOM      8  C   UNL     1       8.062  15.993  17.934  0.00  0.00    +0.000 C 
ATOM      9  C   UNL     1       6.787  15.294  18.331  0.00  0.00    +0.000 C 
ATOM     10  O   UNL     1       6.611  14.085  18.295  0.00  0.00    +0.000 OA
ATOM     11  N   UNL     1       5.872  16.269  18.680  0.00  0.00    +0.000 N 
ATOM     12  C   UNL     1       6.570  17.376  19.127  0.00  0.00    +0.000 C 
ATOM     13  O   UNL     1       6.189  18.307  19.810  0.00  0.00    +0.000 OA
ATOM     14  N   UNL     1       7.896  17.214  18.703  0.00  0.00    +0.000 N 
ENDROOT
BRANCH  11  15
ATOM     15  C   UNL     1       4.484  16.006  18.747  0.00  0.00    +0.000 A 
ATOM     16  C   UNL     1       3.887  15.264  19.773  0.00  0.00    +0.000 A 
ATOM     17  C   UNL     1       2.506  15.038  19.770  0.00  0.00    +0.000 A 
ATOM     18  C   UNL     1       1.700  15.591  18.760  0.00  0.00    +0.000 A 
ATOM     19  C   UNL     1       2.268  16.360  17.747  0.00  0.00    +0.000 A 
ATOM     20  C   UNL     1       3.650  16.552  17.749  0.00  0.00    +0.000 A 
BRANCH  18  21
ATOM     21  N   UNL     1       0.243  15.388  18.770  0.00  0.00    +0.000 N 
ATOM     22  O   UNL     1      -0.468  16.384  18.984  0.00  0.00    +0.000 OA
ATOM     23  O   UNL     1      -0.181  14.250  18.559  0.00  0.00    +0.000 OA
ENDBRANCH  18  21
ENDBRANCH  11  15
BRANCH   1  24
ATOM     24  O   UNL     1       9.098  12.903  19.133  0.00  0.00    +0.000 OA
BRANCH  24  26
ATOM     25  C   UNL     1       9.361  10.451  19.417  0.00  0.00    +0.000 C 
ATOM     26  C   UNL     1      10.044  11.795  19.116  0.00  0.00    +0.000 C 
ATOM     27  C   UNL     1      11.214  12.078  20.064  0.00  0.00    +0.000 C 
ATOM     28  C   UNL     1      10.613  11.702  17.686  0.00  0.00    +0.000 C 
ENDBRANCH  24  26
ENDBRANCH   1  24
TORSDOF 4
ENDMDL
