MODEL 1
REMARK VINA RESULT:      -7.4      0.000      0.000
REMARK  Name = 
REMARK  7 active torsions:
REMARK  status: ('A' for Active; 'I' for Inactive)
REMARK    1  A    between atoms: C_1  and  C_2
REMARK    2  A    between atoms: C_2  and  N_3
REMARK    3  A    between atoms: N_5  and  C_6
REMARK    4  A    between atoms: C_6  and  C_7
REMARK    5  A    between atoms: C_6  and  C_8
REMARK    6  A    between atoms: C_11  and  C_12
REMARK    7  A    between atoms: C_16  and  C_18
REMARK                            x       y       z     vdW  Elec       q    Type
REMARK                         _______ _______ _______ _____ _____    ______ ____
ROOT
ATOM      1  N   UNL     1      -3.697  12.646  19.996  0.00  0.00    +0.000 N 
ATOM      2  C   UNL     1      -2.477  12.686  20.698  0.00  0.00    +0.000 A 
ATOM      3  N   UNL     1      -2.403  13.453  21.848  0.00  0.00    +0.000 N 
ATOM      4  N   UNL     1      -1.408  12.027  20.317  0.00  0.00    +0.000 NA
ATOM      5  C   UNL     1      -1.514  11.239  19.168  0.00  0.00    +0.000 A 
ATOM      6  C   UNL     1      -0.489  10.390  18.638  0.00  0.00    +0.000 A 
ATOM      7  C   UNL     1      -0.968   9.749  17.499  0.00  0.00    +0.000 A 
ATOM      8  S   UNL     1      -2.563  10.199  17.082  0.00  0.00    +0.000 S 
ATOM      9  C   UNL     1      -2.658  11.217  18.428  0.00  0.00    +0.000 A 
ATOM     10  C   UNL     1      -3.823  11.962  18.775  0.00  0.00    +0.000 A 
ATOM     11  O   UNL     1      -4.841  12.011  18.080  0.00  0.00    +0.000 OA
ATOM     12  H   UNL     1      -3.218  13.958  22.157  0.00  0.00    +0.000 HD
ENDROOT
BRANCH   6  13
ATOM     13  C   UNL     1       0.905  10.115  19.151  0.00  0.00    +0.000 C 
ATOM     14  C   UNL     1       1.927   9.958  18.018  0.00  0.00    +0.000 C 
ATOM     15  C   UNL     1       2.071   8.455  17.859  0.00  0.00    +0.000 C 
ATOM     16  N   UNL     1       1.873   7.939  19.204  0.00  0.00    +0.000 N 
ATOM     17  C   UNL     1       2.272   6.715  19.711  0.00  0.00    +0.000 C 
ATOM     18  O   UNL     1       2.157   6.433  20.906  0.00  0.00    +0.000 OA
ATOM     19  C   UNL     1       1.107   8.869  20.017  0.00  0.00    +0.000 C 
BRANCH  17  20
ATOM     20  C   UNL     1       2.880   5.699  18.794  0.00  0.00    +0.000 A 
ATOM     21  C   UNL     1       2.050   4.757  18.193  0.00  0.00    +0.000 A 
ATOM     22  C   UNL     1       2.614   3.845  17.303  0.00  0.00    +0.000 A 
ATOM     23  C   UNL     1       3.979   3.918  17.038  0.00  0.00    +0.000 A 
ATOM     24  C   UNL     1       4.726   4.890  17.676  0.00  0.00    +0.000 A 
ATOM     25  N   UNL     1       4.213   5.782  18.546  0.00  0.00    +0.000 NA
ENDBRANCH  17  20
ENDBRANCH   6  13
BRANCH   3  26
ATOM     26  C   UNL     1      -1.147  13.998  22.368  0.00  0.00    +0.000 C 
ATOM     27  C   UNL     1      -0.809  15.289  21.622  0.00  0.00    +0.000 C 
ATOM     28  C   UNL     1      -1.292  14.284  23.863  0.00  0.00    +0.000 C 
ENDBRANCH   3  26
BRANCH   1  30
ATOM     29  C   UNL     1      -5.795  12.509  21.319  0.00  0.00    +0.000 C 
ATOM     30  C   UNL     1      -4.907  13.354  20.414  0.00  0.00    +0.000 C 
ENDBRANCH   1  30
TORSDOF 4
ENDMDL
MODEL 2
REMARK VINA RESULT:      -7.2      0.774      1.077
REMARK  Name = 
REMARK  7 active torsions:
REMARK  status: ('A' for Active; 'I' for Inactive)
REMARK    1  A    between atoms: C_1  and  C_2
REMARK    2  A    between atoms: C_2  and  N_3
REMARK    3  A    between atoms: N_5  and  C_6
REMARK    4  A    between atoms: C_6  and  C_7
REMARK    5  A    between atoms: C_6  and  C_8
REMARK    6  A    between atoms: C_11  and  C_12
REMARK    7  A    between atoms: C_16  and  C_18
REMARK                            x       y       z     vdW  Elec       q    Type
REMARK                         _______ _______ _______ _____ _____    ______ ____
ROOT
ATOM      1  N   UNL     1      -4.071  12.429  19.524  0.00  0.00    +0.000 N 
ATOM      2  C   UNL     1      -2.919  12.527  20.326  0.00  0.00    +0.000 A 
ATOM      3  N   UNL     1      -2.982  13.284  21.483  0.00  0.00    +0.000 N 
ATOM      4  N   UNL     1      -1.786  11.930  20.033  0.00  0.00    +0.000 NA
ATOM      5  C   UNL     1      -1.753  11.150  18.874  0.00  0.00    +0.000 A 
ATOM      6  C   UNL     1      -0.643  10.363  18.427  0.00  0.00    +0.000 A 
ATOM      7  C   UNL     1      -0.989   9.710  17.247  0.00  0.00    +0.000 A 
ATOM      8  S   UNL     1      -2.565  10.078  16.701  0.00  0.00    +0.000 S 
ATOM      9  C   UNL     1      -2.828  11.074  18.040  0.00  0.00    +0.000 A 
ATOM     10  C   UNL     1      -4.057  11.752  18.293  0.00  0.00    +0.000 A 
ATOM     11  O   UNL     1      -5.014  11.754  17.515  0.00  0.00    +0.000 OA
ATOM     12  H   UNL     1      -3.847  13.741  21.726  0.00  0.00    +0.000 HD
ENDROOT
BRANCH   6  13
ATOM     13  C   UNL     1       0.716  10.158  19.055  0.00  0.00    +0.000 C 
ATOM     14  C   UNL     1       1.833  10.035  18.009  0.00  0.00    +0.000 C 
ATOM     15  C   UNL     1       2.056   8.539  17.884  0.00  0.00    +0.000 C 
ATOM     16  N   UNL     1       1.773   8.029  19.216  0.00  0.00    +0.000 N 
ATOM     17  C   UNL     1       2.184   6.830  19.772  0.00  0.00    +0.000 C 
ATOM     18  O   UNL     1       1.986   6.557  20.957  0.00  0.00    +0.000 OA
ATOM     19  C   UNL     1       0.903   8.932  19.952  0.00  0.00    +0.000 C 
BRANCH  17  20
ATOM     20  C   UNL     1       2.909   5.833  18.921  0.00  0.00    +0.000 A 
ATOM     21  C   UNL     1       4.299   5.792  18.973  0.00  0.00    +0.000 A 
ATOM     22  C   UNL     1       4.964   4.830  18.216  0.00  0.00    +0.000 A 
ATOM     23  C   UNL     1       4.217   3.938  17.450  0.00  0.00    +0.000 A 
ATOM     24  C   UNL     1       2.840   4.049  17.463  0.00  0.00    +0.000 A 
ATOM     25  N   UNL     1       2.165   4.972  18.177  0.00  0.00    +0.000 NA
ENDBRANCH  17  20
ENDBRANCH   6  13
BRANCH   3  26
ATOM     26  C   UNL     1      -1.807  13.890  22.111  0.00  0.00    +0.000 C 
ATOM     27  C   UNL     1      -2.179  15.270  22.656  0.00  0.00    +0.000 C 
ATOM     28  C   UNL     1      -1.315  12.998  23.250  0.00  0.00    +0.000 C 
ENDBRANCH   3  26
BRANCH   1  30
ATOM     29  C   UNL     1      -6.268  12.159  20.650  0.00  0.00    +0.000 C 
ATOM     30  C   UNL     1      -5.348  13.067  19.842  0.00  0.00    +0.000 C 
ENDBRANCH   1  30
TORSDOF 4
ENDMDL
MODEL 3
REMARK VINA RESULT:      -6.8      1.068      1.114
REMARK  Name = 
REMARK  7 active torsions:
REMARK  status: ('A' for Active; 'I' for Inactive)
REMARK    1  A    between atoms: C_1  and  C_2
REMARK    2  A    between atoms: C_2  and  N_3
REMARK    3  A    between atoms: N_5  and  C_6
REMARK    4  A    between atoms: C_6  and  C_7
REMARK    5  A    between atoms: C_6  and  C_8
REMARK    6  A    between atoms: C_11  and  C_12
REMARK    7  A    between atoms: C_16  and  C_18
REMARK                            x       y       z     vdW  Elec       q    Type
REMARK                         _______ _______ _______ _____ _____    ______ ____
ROOT
ATOM      1  N   UNL     1      -4.681  12.478  19.531  0.00  0.00    +0.000 N 
ATOM      2  C   UNL     1      -3.546  12.670  20.341  0.00  0.00    +0.000 A 
ATOM      3  N   UNL     1      -3.677  13.430  21.491  0.00  0.00    +0.000 N 
ATOM      4  N   UNL     1      -2.370  12.158  20.062  0.00  0.00    +0.000 NA
ATOM      5  C   UNL     1      -2.268  11.373  18.910  0.00  0.00    +0.000 A 
ATOM      6  C   UNL     1      -1.097  10.669  18.479  0.00  0.00    +0.000 A 
ATOM      7  C   UNL     1      -1.382   9.982  17.303  0.00  0.00    +0.000 A 
ATOM      8  S   UNL     1      -2.977  10.226  16.741  0.00  0.00    +0.000 S 
ATOM      9  C   UNL     1      -3.326  11.210  18.069  0.00  0.00    +0.000 A 
ATOM     10  C   UNL     1      -4.605  11.795  18.305  0.00  0.00    +0.000 A 
ATOM     11  O   UNL     1      -5.553  11.718  17.520  0.00  0.00    +0.000 OA
ATOM     12  H   UNL     1      -4.576  13.822  21.723  0.00  0.00    +0.000 HD
ENDROOT
BRANCH   6  13
ATOM     13  C   UNL     1       0.269  10.573  19.120  0.00  0.00    +0.000 C 
ATOM     14  C   UNL     1       1.406  10.734  18.103  0.00  0.00    +0.000 C 
ATOM     15  C   UNL     1       1.835   9.309  17.803  0.00  0.00    +0.000 C 
ATOM     16  N   UNL     1       1.606   8.603  19.053  0.00  0.00    +0.000 N 
ATOM     17  C   UNL     1       2.171   7.411  19.471  0.00  0.00    +0.000 C 
ATOM     18  O   UNL     1       1.996   6.967  20.608  0.00  0.00    +0.000 OA
ATOM     19  C   UNL     1       0.610   9.280  19.866  0.00  0.00    +0.000 C 
BRANCH  17  20
ATOM     20  C   UNL     1       3.039   6.635  18.528  0.00  0.00    +0.000 A 
ATOM     21  C   UNL     1       2.793   5.276  18.355  0.00  0.00    +0.000 A 
ATOM     22  C   UNL     1       3.572   4.571  17.441  0.00  0.00    +0.000 A 
ATOM     23  C   UNL     1       4.555   5.251  16.726  0.00  0.00    +0.000 A 
ATOM     24  C   UNL     1       4.725   6.602  16.958  0.00  0.00    +0.000 A 
ATOM     25  N   UNL     1       3.994   7.313  17.839  0.00  0.00    +0.000 NA
ENDBRANCH  17  20
ENDBRANCH   6  13
BRANCH   3  26
ATOM     26  C   UNL     1      -2.556  14.128  22.123  0.00  0.00    +0.000 C 
ATOM     27  C   UNL     1      -2.598  15.607  21.734  0.00  0.00    +0.000 C 
ATOM     28  C   UNL     1      -2.653  13.988  23.642  0.00  0.00    +0.000 C 
ENDBRANCH   3  26
BRANCH   1  30
ATOM     29  C   UNL     1      -6.838  12.080  20.697  0.00  0.00    +0.000 C 
ATOM     30  C   UNL     1      -6.006  13.020  19.833  0.00  0.00    +0.000 C 
ENDBRANCH   1  30
TORSDOF 4
ENDMDL
MODEL 4
REMARK VINA RESULT:      -6.8      3.634      5.662
REMARK  Name = 
REMARK  7 active torsions:
REMARK  status: ('A' for Active; 'I' for Inactive)
REMARK    1  A    between atoms: C_1  and  C_2
REMARK    2  A    between atoms: C_2  and  N_3
REMARK    3  A    between atoms: N_5  and  C_6
REMARK    4  A    between atoms: C_6  and  C_7
REMARK    5  A    between atoms: C_6  and  C_8
REMARK    6  A    between atoms: C_11  and  C_12
REMARK    7  A    between atoms: C_16  and  C_18
REMARK                            x       y       z     vdW  Elec       q    Type
REMARK                         _______ _______ _______ _____ _____    ______ ____
ROOT
ATOM      1  N   UNL     1      -6.000  12.699  19.439  0.00  0.00    +0.000 N 
ATOM      2  C   UNL     1      -4.632  12.369  19.462  0.00  0.00    +0.000 A 
ATOM      3  N   UNL     1      -4.035  11.952  18.286  0.00  0.00    +0.000 N 
ATOM      4  N   UNL     1      -3.894  12.441  20.545  0.00  0.00    +0.000 NA
ATOM      5  C   UNL     1      -4.513  12.890  21.716  0.00  0.00    +0.000 A 
ATOM      6  C   UNL     1      -3.863  13.110  22.973  0.00  0.00    +0.000 A 
ATOM      7  C   UNL     1      -4.796  13.574  23.896  0.00  0.00    +0.000 A 
ATOM      8  S   UNL     1      -6.380  13.688  23.266  0.00  0.00    +0.000 S 
ATOM      9  C   UNL     1      -5.847  13.165  21.751  0.00  0.00    +0.000 A 
ATOM     10  C   UNL     1      -6.695  13.045  20.611  0.00  0.00    +0.000 A 
ATOM     11  O   UNL     1      -7.916  13.220  20.641  0.00  0.00    +0.000 OA
ATOM     12  H   UNL     1      -4.587  11.899  17.444  0.00  0.00    +0.000 HD
ENDROOT
BRANCH   6  13
ATOM     13  C   UNL     1      -2.412  12.943  23.359  0.00  0.00    +0.000 C 
ATOM     14  C   UNL     1      -1.492  13.922  22.616  0.00  0.00    +0.000 C 
ATOM     15  C   UNL     1      -0.919  13.096  21.479  0.00  0.00    +0.000 C 
ATOM     16  N   UNL     1      -0.836  11.752  22.027  0.00  0.00    +0.000 N 
ATOM     17  C   UNL     1      -0.046  10.703  21.590  0.00  0.00    +0.000 C 
ATOM     18  O   UNL     1       0.034   9.641  22.210  0.00  0.00    +0.000 OA
ATOM     19  C   UNL     1      -1.771  11.572  23.124  0.00  0.00    +0.000 C 
BRANCH  17  20
ATOM     20  C   UNL     1       0.757  10.858  20.334  0.00  0.00    +0.000 A 
ATOM     21  C   UNL     1       0.773   9.812  19.416  0.00  0.00    +0.000 A 
ATOM     22  C   UNL     1       1.482   9.982  18.229  0.00  0.00    +0.000 A 
ATOM     23  C   UNL     1       2.133  11.191  17.998  0.00  0.00    +0.000 A 
ATOM     24  C   UNL     1       2.058  12.176  18.963  0.00  0.00    +0.000 A 
ATOM     25  N   UNL     1       1.388  12.043  20.125  0.00  0.00    +0.000 NA
ENDBRANCH  17  20
ENDBRANCH   6  13
BRANCH   3  26
ATOM     26  C   UNL     1      -2.834  11.114  18.248  0.00  0.00    +0.000 C 
ATOM     27  C   UNL     1      -3.100   9.888  17.373  0.00  0.00    +0.000 C 
ATOM     28  C   UNL     1      -1.665  11.916  17.678  0.00  0.00    +0.000 C 
ENDBRANCH   3  26
BRANCH   1  30
ATOM     29  C   UNL     1      -6.821  13.955  17.460  0.00  0.00    +0.000 C 
ATOM     30  C   UNL     1      -6.837  12.646  18.240  0.00  0.00    +0.000 C 
ENDBRANCH   1  30
TORSDOF 4
ENDMDL
MODEL 5
REMARK VINA RESULT:      -6.7      2.667      4.065
REMARK  Name = 
REMARK  7 active torsions:
REMARK  status: ('A' for Active; 'I' for Inactive)
REMARK    1  A    between atoms: C_1  and  C_2
REMARK    2  A    between atoms: C_2  and  N_3
REMARK    3  A    between atoms: N_5  and  C_6
REMARK    4  A    between atoms: C_6  and  C_7
REMARK    5  A    between atoms: C_6  and  C_8
REMARK    6  A    between atoms: C_11  and  C_12
REMARK    7  A    between atoms: C_16  and  C_18
REMARK                            x       y       z     vdW  Elec       q    Type
REMARK                         _______ _______ _______ _____ _____    ______ ____
ROOT
ATOM      1  N   UNL     1      -4.926  13.543  22.353  0.00  0.00    +0.000 N 
ATOM      2  C   UNL     1      -3.713  13.722  21.660  0.00  0.00    +0.000 A 
ATOM      3  N   UNL     1      -2.711  14.460  22.265  0.00  0.00    +0.000 N 
ATOM      4  N   UNL     1      -3.484  13.217  20.470  0.00  0.00    +0.000 NA
ATOM      5  C   UNL     1      -4.501  12.452  19.891  0.00  0.00    +0.000 A 
ATOM      6  C   UNL     1      -4.416  11.758  18.641  0.00  0.00    +0.000 A 
ATOM      7  C   UNL     1      -5.615  11.092  18.404  0.00  0.00    +0.000 A 
ATOM      8  S   UNL     1      -6.787  11.343  19.622  0.00  0.00    +0.000 S 
ATOM      9  C   UNL     1      -5.710  12.302  20.501  0.00  0.00    +0.000 A 
ATOM     10  C   UNL     1      -6.019  12.881  21.767  0.00  0.00    +0.000 A 
ATOM     11  O   UNL     1      -7.129  12.817  22.301  0.00  0.00    +0.000 OA
ATOM     12  H   UNL     1      -2.869  14.847  23.182  0.00  0.00    +0.000 HD
ENDROOT
BRANCH   6  13
ATOM     13  C   UNL     1      -3.267  11.652  17.665  0.00  0.00    +0.000 C 
ATOM     14  C   UNL     1      -3.062  10.220  17.154  0.00  0.00    +0.000 C 
ATOM     15  C   UNL     1      -1.926   9.685  18.006  0.00  0.00    +0.000 C 
ATOM     16  N   UNL     1      -1.106  10.856  18.274  0.00  0.00    +0.000 N 
ATOM     17  C   UNL     1       0.224  10.893  18.655  0.00  0.00    +0.000 C 
ATOM     18  O   UNL     1       0.852  11.950  18.736  0.00  0.00    +0.000 OA
ATOM     19  C   UNL     1      -1.881  12.079  18.156  0.00  0.00    +0.000 C 
BRANCH  17  20
ATOM     20  C   UNL     1       0.939   9.613  18.964  0.00  0.00    +0.000 A 
ATOM     21  C   UNL     1       1.683   9.001  17.960  0.00  0.00    +0.000 A 
ATOM     22  C   UNL     1       2.384   7.838  18.267  0.00  0.00    +0.000 A 
ATOM     23  C   UNL     1       2.328   7.339  19.566  0.00  0.00    +0.000 A 
ATOM     24  C   UNL     1       1.568   8.015  20.502  0.00  0.00    +0.000 A 
ATOM     25  N   UNL     1       0.872   9.138  20.236  0.00  0.00    +0.000 NA
ENDBRANCH  17  20
ENDBRANCH   6  13
BRANCH   3  26
ATOM     26  C   UNL     1      -1.659  15.149  21.515  0.00  0.00    +0.000 C 
ATOM     27  C   UNL     1      -1.726  16.649  21.810  0.00  0.00    +0.000 C 
ATOM     28  C   UNL     1      -0.292  14.600  21.925  0.00  0.00    +0.000 C 
ENDBRANCH   3  26
BRANCH   1  30
ATOM     29  C   UNL     1      -5.629  15.538  23.654  0.00  0.00    +0.000 C 
ATOM     30  C   UNL     1      -5.194  14.078  23.688  0.00  0.00    +0.000 C 
ENDBRANCH   1  30
TORSDOF 4
ENDMDL
MODEL 6
REMARK VINA RESULT:      -6.6      3.306      6.967
REMARK  Name = 
REMARK  7 active torsions:
REMARK  status: ('A' for Active; 'I' for Inactive)
REMARK    1  A    between atoms: C_1  and  C_2
REMARK    2  A    between atoms: C_2  and  N_3
REMARK    3  A    between atoms: N_5  and  C_6
REMARK    4  A    between atoms: C_6  and  C_7
REMARK    5  A    between atoms: C_6  and  C_8
REMARK    6  A    between atoms: C_11  and  C_12
REMARK    7  A    between atoms: C_16  and  C_18
REMARK                            x       y       z     vdW  Elec       q    Type
REMARK                         _______ _______ _______ _____ _____    ______ ____
ROOT
ATOM      1  N   UNL     1      -2.735  10.682  17.632  0.00  0.00    +0.000 N 
ATOM      2  C   UNL     1      -1.512  10.982  18.260  0.00  0.00    +0.000 A 
ATOM      3  N   UNL     1      -0.354  10.416  17.756  0.00  0.00    +0.000 N 
ATOM      4  N   UNL     1      -1.415  11.779  19.299  0.00  0.00    +0.000 NA
ATOM      5  C   UNL     1      -2.594  12.360  19.775  0.00  0.00    +0.000 A 
ATOM      6  C   UNL     1      -2.686  13.311  20.842  0.00  0.00    +0.000 A 
ATOM      7  C   UNL     1      -4.018  13.677  21.017  0.00  0.00    +0.000 A 
ATOM      8  S   UNL     1      -5.091  12.866  19.963  0.00  0.00    +0.000 S 
ATOM      9  C   UNL     1      -3.805  12.051  19.232  0.00  0.00    +0.000 A 
ATOM     10  C   UNL     1      -3.959  11.148  18.139  0.00  0.00    +0.000 A 
ATOM     11  O   UNL     1      -5.051  10.801  17.683  0.00  0.00    +0.000 OA
ATOM     12  H   UNL     1      -0.411   9.809  16.953  0.00  0.00    +0.000 HD
ENDROOT
BRANCH   6  13
ATOM     13  C   UNL     1      -1.598  13.925  21.691  0.00  0.00    +0.000 C 
ATOM     14  C   UNL     1      -1.364  15.406  21.364  0.00  0.00    +0.000 C 
ATOM     15  C   UNL     1      -0.153  15.392  20.448  0.00  0.00    +0.000 C 
ATOM     16  N   UNL     1       0.630  14.261  20.917  0.00  0.00    +0.000 N 
ATOM     17  C   UNL     1       1.979  14.021  20.720  0.00  0.00    +0.000 C 
ATOM     18  O   UNL     1       2.564  13.086  21.271  0.00  0.00    +0.000 OA
ATOM     19  C   UNL     1      -0.203  13.297  21.617  0.00  0.00    +0.000 C 
BRANCH  17  20
ATOM     20  C   UNL     1       2.767  14.928  19.826  0.00  0.00    +0.000 A 
ATOM     21  C   UNL     1       2.744  14.701  18.453  0.00  0.00    +0.000 A 
ATOM     22  C   UNL     1       3.440  15.578  17.623  0.00  0.00    +0.000 A 
ATOM     23  C   UNL     1       4.117  16.653  18.193  0.00  0.00    +0.000 A 
ATOM     24  C   UNL     1       4.080  16.804  19.566  0.00  0.00    +0.000 A 
ATOM     25  N   UNL     1       3.423  15.972  20.398  0.00  0.00    +0.000 NA
ENDBRANCH  17  20
ENDBRANCH   6  13
BRANCH   3  26
ATOM     26  C   UNL     1       0.853  10.209  18.558  0.00  0.00    +0.000 C 
ATOM     27  C   UNL     1       1.469   8.854  18.204  0.00  0.00    +0.000 C 
ATOM     28  C   UNL     1       1.857  11.326  18.275  0.00  0.00    +0.000 C 
ENDBRANCH   3  26
BRANCH   1  30
ATOM     29  C   UNL     1      -2.877  10.598  15.153  0.00  0.00    +0.000 C 
ATOM     30  C   UNL     1      -2.864   9.814  16.460  0.00  0.00    +0.000 C 
ENDBRANCH   1  30
TORSDOF 4
ENDMDL
MODEL 7
REMARK VINA RESULT:      -6.6      4.829      6.557
REMARK  Name = 
REMARK  7 active torsions:
REMARK  status: ('A' for Active; 'I' for Inactive)
REMARK    1  A    between atoms: C_1  and  C_2
REMARK    2  A    between atoms: C_2  and  N_3
REMARK    3  A    between atoms: N_5  and  C_6
REMARK    4  A    between atoms: C_6  and  C_7
REMARK    5  A    between atoms: C_6  and  C_8
REMARK    6  A    between atoms: C_11  and  C_12
REMARK    7  A    between atoms: C_16  and  C_18
REMARK                            x       y       z     vdW  Elec       q    Type
REMARK                         _______ _______ _______ _____ _____    ______ ____
ROOT
ATOM      1  N   UNL     1      -5.953  12.840  19.336  0.00  0.00    +0.000 N 
ATOM      2  C   UNL     1      -4.621  12.396  19.436  0.00  0.00    +0.000 A 
ATOM      3  N   UNL     1      -3.966  12.011  18.279  0.00  0.00    +0.000 N 
ATOM      4  N   UNL     1      -3.968  12.333  20.573  0.00  0.00    +0.000 NA
ATOM      5  C   UNL     1      -4.642  12.751  21.724  0.00  0.00    +0.000 A 
ATOM      6  C   UNL     1      -4.080  12.830  23.039  0.00  0.00    +0.000 A 
ATOM      7  C   UNL     1      -5.044  13.307  23.922  0.00  0.00    +0.000 A 
ATOM      8  S   UNL     1      -6.559  13.595  23.187  0.00  0.00    +0.000 S 
ATOM      9  C   UNL     1      -5.949  13.134  21.681  0.00  0.00    +0.000 A 
ATOM     10  C   UNL     1      -6.711  13.162  20.475  0.00  0.00    +0.000 A 
ATOM     11  O   UNL     1      -7.912  13.435  20.428  0.00  0.00    +0.000 OA
ATOM     12  H   UNL     1      -4.452  12.062  17.397  0.00  0.00    +0.000 HD
ENDROOT
BRANCH   6  13
ATOM     13  C   UNL     1      -2.681  12.517  23.517  0.00  0.00    +0.000 C 
ATOM     14  C   UNL     1      -1.833  13.781  23.719  0.00  0.00    +0.000 C 
ATOM     15  C   UNL     1      -1.001  13.870  22.453  0.00  0.00    +0.000 C 
ATOM     16  N   UNL     1      -0.785  12.483  22.075  0.00  0.00    +0.000 N 
ATOM     17  C   UNL     1       0.205  11.969  21.256  0.00  0.00    +0.000 C 
ATOM     18  O   UNL     1       0.365  10.756  21.104  0.00  0.00    +0.000 OA
ATOM     19  C   UNL     1      -1.814  11.620  22.630  0.00  0.00    +0.000 C 
BRANCH  17  20
ATOM     20  C   UNL     1       1.128  12.906  20.538  0.00  0.00    +0.000 A 
ATOM     21  C   UNL     1       0.779  13.348  19.266  0.00  0.00    +0.000 A 
ATOM     22  C   UNL     1       1.618  14.256  18.625  0.00  0.00    +0.000 A 
ATOM     23  C   UNL     1       2.763  14.699  19.282  0.00  0.00    +0.000 A 
ATOM     24  C   UNL     1       3.028  14.210  20.548  0.00  0.00    +0.000 A 
ATOM     25  N   UNL     1       2.242  13.327  21.194  0.00  0.00    +0.000 NA
ENDBRANCH  17  20
ENDBRANCH   6  13
BRANCH   3  26
ATOM     26  C   UNL     1      -2.835  11.081  18.269  0.00  0.00    +0.000 C 
ATOM     27  C   UNL     1      -3.278   9.754  17.649  0.00  0.00    +0.000 C 
ATOM     28  C   UNL     1      -1.687  11.677  17.455  0.00  0.00    +0.000 C 
ENDBRANCH   3  26
BRANCH   1  30
ATOM     29  C   UNL     1      -6.783  14.371  17.565  0.00  0.00    +0.000 C 
ATOM     30  C   UNL     1      -6.693  12.939  18.078  0.00  0.00    +0.000 C 
ENDBRANCH   1  30
TORSDOF 4
ENDMDL
MODEL 8
REMARK VINA RESULT:      -6.4      2.861      9.333
REMARK  Name = 
REMARK  7 active torsions:
REMARK  status: ('A' for Active; 'I' for Inactive)
REMARK    1  A    between atoms: C_1  and  C_2
REMARK    2  A    between atoms: C_2  and  N_3
REMARK    3  A    between atoms: N_5  and  C_6
REMARK    4  A    between atoms: C_6  and  C_7
REMARK    5  A    between atoms: C_6  and  C_8
REMARK    6  A    between atoms: C_11  and  C_12
REMARK    7  A    between atoms: C_16  and  C_18
REMARK                            x       y       z     vdW  Elec       q    Type
REMARK                         _______ _______ _______ _____ _____    ______ ____
ROOT
ATOM      1  N   UNL     1       4.613   3.959  17.475  0.00  0.00    +0.000 N 
ATOM      2  C   UNL     1       4.976   5.243  17.922  0.00  0.00    +0.000 A 
ATOM      3  N   UNL     1       6.156   5.796  17.454  0.00  0.00    +0.000 N 
ATOM      4  N   UNL     1       4.247   5.946  18.758  0.00  0.00    +0.000 NA
ATOM      5  C   UNL     1       3.048   5.378  19.198  0.00  0.00    +0.000 A 
ATOM      6  C   UNL     1       2.083   6.013  20.045  0.00  0.00    +0.000 A 
ATOM      7  C   UNL     1       1.012   5.148  20.249  0.00  0.00    +0.000 A 
ATOM      8  S   UNL     1       1.203   3.633  19.482  0.00  0.00    +0.000 S 
ATOM      9  C   UNL     1       2.687   4.115  18.835  0.00  0.00    +0.000 A 
ATOM     10  C   UNL     1       3.478   3.298  17.974  0.00  0.00    +0.000 A 
ATOM     11  O   UNL     1       3.204   2.129  17.693  0.00  0.00    +0.000 OA
ATOM     12  H   UNL     1       6.722   5.272  16.804  0.00  0.00    +0.000 HD
ENDROOT
BRANCH   6  13
ATOM     13  C   UNL     1       2.087   7.397  20.652  0.00  0.00    +0.000 C 
ATOM     14  C   UNL     1       0.832   7.672  21.492  0.00  0.00    +0.000 C 
ATOM     15  C   UNL     1      -0.066   8.466  20.561  0.00  0.00    +0.000 C 
ATOM     16  N   UNL     1       0.864   9.226  19.741  0.00  0.00    +0.000 N 
ATOM     17  C   UNL     1       0.612  10.378  19.016  0.00  0.00    +0.000 C 
ATOM     18  O   UNL     1       1.511  11.007  18.454  0.00  0.00    +0.000 OA
ATOM     19  C   UNL     1       2.169   8.589  19.695  0.00  0.00    +0.000 C 
BRANCH  17  20
ATOM     20  C   UNL     1      -0.790  10.898  18.920  0.00  0.00    +0.000 A 
ATOM     21  C   UNL     1      -1.637  10.367  17.952  0.00  0.00    +0.000 A 
ATOM     22  C   UNL     1      -2.953  10.820  17.900  0.00  0.00    +0.000 A 
ATOM     23  C   UNL     1      -3.376  11.772  18.823  0.00  0.00    +0.000 A 
ATOM     24  C   UNL     1      -2.468  12.240  19.754  0.00  0.00    +0.000 A 
ATOM     25  N   UNL     1      -1.187  11.828  19.828  0.00  0.00    +0.000 NA
ENDBRANCH  17  20
ENDBRANCH   6  13
BRANCH   3  26
ATOM     26  C   UNL     1       6.902   6.826  18.178  0.00  0.00    +0.000 C 
ATOM     27  C   UNL     1       7.948   6.157  19.073  0.00  0.00    +0.000 C 
ATOM     28  C   UNL     1       7.591   7.759  17.183  0.00  0.00    +0.000 C 
ENDBRANCH   3  26
BRANCH   1  30
ATOM     29  C   UNL     1       5.565   3.866  15.183  0.00  0.00    +0.000 C 
ATOM     30  C   UNL     1       5.398   3.168  16.527  0.00  0.00    +0.000 C 
ENDBRANCH   1  30
TORSDOF 4
ENDMDL
MODEL 9
REMARK VINA RESULT:      -6.4      2.905      5.180
REMARK  Name = 
REMARK  7 active torsions:
REMARK  status: ('A' for Active; 'I' for Inactive)
REMARK    1  A    between atoms: C_1  and  C_2
REMARK    2  A    between atoms: C_2  and  N_3
REMARK    3  A    between atoms: N_5  and  C_6
REMARK    4  A    between atoms: C_6  and  C_7
REMARK    5  A    between atoms: C_6  and  C_8
REMARK    6  A    between atoms: C_11  and  C_12
REMARK    7  A    between atoms: C_16  and  C_18
REMARK                            x       y       z     vdW  Elec       q    Type
REMARK                         _______ _______ _______ _____ _____    ______ ____
ROOT
ATOM      1  N   UNL     1      -5.993  12.501  19.357  0.00  0.00    +0.000 N 
ATOM      2  C   UNL     1      -4.620  12.208  19.259  0.00  0.00    +0.000 A 
ATOM      3  N   UNL     1      -4.113  11.825  18.029  0.00  0.00    +0.000 N 
ATOM      4  N   UNL     1      -3.795  12.285  20.277  0.00  0.00    +0.000 NA
ATOM      5  C   UNL     1      -4.324  12.699  21.503  0.00  0.00    +0.000 A 
ATOM      6  C   UNL     1      -3.577  12.918  22.705  0.00  0.00    +0.000 A 
ATOM      7  C   UNL     1      -4.440  13.343  23.711  0.00  0.00    +0.000 A 
ATOM      8  S   UNL     1      -6.074  13.423  23.218  0.00  0.00    +0.000 S 
ATOM      9  C   UNL     1      -5.657  12.937  21.654  0.00  0.00    +0.000 A 
ATOM     10  C   UNL     1      -6.595  12.810  20.588  0.00  0.00    +0.000 A 
ATOM     11  O   UNL     1      -7.813  12.951  20.724  0.00  0.00    +0.000 OA
ATOM     12  H   UNL     1      -4.733  11.769  17.236  0.00  0.00    +0.000 HD
ENDROOT
BRANCH   6  13
ATOM     13  C   UNL     1      -2.094  12.786  22.964  0.00  0.00    +0.000 C 
ATOM     14  C   UNL     1      -1.246  13.309  21.797  0.00  0.00    +0.000 C 
ATOM     15  C   UNL     1      -0.866  12.056  21.029  0.00  0.00    +0.000 C 
ATOM     16  N   UNL     1      -0.761  11.032  22.056  0.00  0.00    +0.000 N 
ATOM     17  C   UNL     1      -0.080   9.830  21.991  0.00  0.00    +0.000 C 
ATOM     18  O   UNL     1       0.042   9.092  22.972  0.00  0.00    +0.000 OA
ATOM     19  C   UNL     1      -1.545  11.381  23.229  0.00  0.00    +0.000 C 
BRANCH  17  20
ATOM     20  C   UNL     1       0.551   9.408  20.699  0.00  0.00    +0.000 A 
ATOM     21  C   UNL     1       0.306  10.163  19.556  0.00  0.00    +0.000 A 
ATOM     22  C   UNL     1       0.933   9.793  18.368  0.00  0.00    +0.000 A 
ATOM     23  C   UNL     1       1.790   8.695  18.371  0.00  0.00    +0.000 A 
ATOM     24  C   UNL     1       1.979   8.007  19.555  0.00  0.00    +0.000 A 
ATOM     25  N   UNL     1       1.383   8.333  20.719  0.00  0.00    +0.000 NA
ENDBRANCH  17  20
ENDBRANCH   6  13
BRANCH   3  26
ATOM     26  C   UNL     1      -2.899  11.021  17.877  0.00  0.00    +0.000 C 
ATOM     27  C   UNL     1      -3.236   9.732  17.127  0.00  0.00    +0.000 C 
ATOM     28  C   UNL     1      -1.850  11.816  17.099  0.00  0.00    +0.000 C 
ENDBRANCH   3  26
BRANCH   1  30
ATOM     29  C   UNL     1      -6.970  13.746  17.443  0.00  0.00    +0.000 C 
ATOM     30  C   UNL     1      -6.926  12.443  18.232  0.00  0.00    +0.000 C 
ENDBRANCH   1  30
TORSDOF 4
ENDMDL
