MODEL 1
REMARK VINA RESULT:      -7.4      0.000      0.000
REMARK  Name = 
REMARK  2 active torsions:
REMARK  status: ('A' for Active; 'I' for Inactive)
REMARK    1  A    between atoms: C_2  and  C_4
REMARK    2  A    between atoms: C_5  and  C_6
REMARK                            x       y       z     vdW  Elec       q    Type
REMARK                         _______ _______ _______ _____ _____    ______ ____
ROOT
ATOM      1  C   UNL     1       4.094   5.116  17.161  0.00  0.00    +0.000 A 
ATOM      2  C   UNL     1       4.090   6.496  17.414  0.00  0.00    +0.000 A 
ATOM      3  C   UNL     1       3.178   7.047  18.309  0.00  0.00    +0.000 A 
ATOM      4  C   UNL     1       2.263   6.224  18.961  0.00  0.00    +0.000 A 
ATOM      5  C   UNL     1       2.224   4.846  18.707  0.00  0.00    +0.000 A 
ATOM      6  C   UNL     1       1.275   4.036  19.352  0.00  0.00    +0.000 A 
ATOM      7  C   UNL     1       1.205   2.667  19.094  0.00  0.00    +0.000 A 
ATOM      8  C   UNL     1       2.091   2.089  18.194  0.00  0.00    +0.000 A 
ATOM      9  C   UNL     1       3.049   2.879  17.554  0.00  0.00    +0.000 A 
ATOM     10  C   UNL     1       3.142   4.270  17.793  0.00  0.00    +0.000 A 
ENDROOT
BRANCH   1  12
ATOM     11  C   UNL     1       5.646   5.359  15.274  0.00  0.00    +0.000 C 
ATOM     12  C   UNL     1       5.123   4.597  16.248  0.00  0.00    +0.000 C 
BRANCH  11  14
ATOM     13  N   UNL     1       6.377   3.594  13.849  0.00  0.00    +0.000 N 
ATOM     14  C   UNL     1       6.692   4.801  14.391  0.00  0.00    +0.000 C 
ATOM     15  O   UNL     1       7.753   5.361  14.150  0.00  0.00    +0.000 OA
ATOM     16  H   UNL     1       7.057   3.173  13.228  0.00  0.00    +0.000 HD
ATOM     17  H   UNL     1       5.509   3.107  14.015  0.00  0.00    +0.000 HD
ENDBRANCH  11  14
ENDBRANCH   1  12
TORSDOF 2
ENDMDL
MODEL 2
REMARK VINA RESULT:      -7.1      1.022      1.022
REMARK  Name = 
REMARK  2 active torsions:
REMARK  status: ('A' for Active; 'I' for Inactive)
REMARK    1  A    between atoms: C_2  and  C_4
REMARK    2  A    between atoms: C_5  and  C_6
REMARK                            x       y       z     vdW  Elec       q    Type
REMARK                         _______ _______ _______ _____ _____    ______ ____
ROOT
ATOM      1  C   UNL     1       3.660   5.146  17.476  0.00  0.00    +0.000 A 
ATOM      2  C   UNL     1       3.792   6.506  17.795  0.00  0.00    +0.000 A 
ATOM      3  C   UNL     1       3.060   7.060  18.841  0.00  0.00    +0.000 A 
ATOM      4  C   UNL     1       2.191   6.260  19.580  0.00  0.00    +0.000 A 
ATOM      5  C   UNL     1       2.018   4.904  19.266  0.00  0.00    +0.000 A 
ATOM      6  C   UNL     1       1.115   4.120  20.003  0.00  0.00    +0.000 A 
ATOM      7  C   UNL     1       0.911   2.776  19.691  0.00  0.00    +0.000 A 
ATOM      8  C   UNL     1       1.613   2.197  18.642  0.00  0.00    +0.000 A 
ATOM      9  C   UNL     1       2.524   2.961  17.907  0.00  0.00    +0.000 A 
ATOM     10  C   UNL     1       2.750   4.326  18.199  0.00  0.00    +0.000 A 
ENDROOT
BRANCH   1  12
ATOM     11  C   UNL     1       5.607   5.267  15.985  0.00  0.00    +0.000 C 
ATOM     12  C   UNL     1       4.507   4.618  16.396  0.00  0.00    +0.000 C 
BRANCH  11  14
ATOM     13  N   UNL     1       7.582   5.381  14.657  0.00  0.00    +0.000 N 
ATOM     14  C   UNL     1       6.438   4.689  14.908  0.00  0.00    +0.000 C 
ATOM     15  O   UNL     1       6.146   3.676  14.288  0.00  0.00    +0.000 OA
ATOM     16  H   UNL     1       8.192   5.020  13.935  0.00  0.00    +0.000 HD
ATOM     17  H   UNL     1       7.862   6.213  15.154  0.00  0.00    +0.000 HD
ENDBRANCH  11  14
ENDBRANCH   1  12
TORSDOF 2
ENDMDL
MODEL 3
REMARK VINA RESULT:      -7.0      3.593      4.737
REMARK  Name = 
REMARK  2 active torsions:
REMARK  status: ('A' for Active; 'I' for Inactive)
REMARK    1  A    between atoms: C_2  and  C_4
REMARK    2  A    between atoms: C_5  and  C_6
REMARK                            x       y       z     vdW  Elec       q    Type
REMARK                         _______ _______ _______ _____ _____    ______ ____
ROOT
ATOM      1  C   UNL     1       3.191   6.075  17.962  0.00  0.00    +0.000 A 
ATOM      2  C   UNL     1       4.317   6.259  17.145  0.00  0.00    +0.000 A 
ATOM      3  C   UNL     1       4.929   5.170  16.532  0.00  0.00    +0.000 A 
ATOM      4  C   UNL     1       4.421   3.888  16.727  0.00  0.00    +0.000 A 
ATOM      5  C   UNL     1       3.315   3.670  17.561  0.00  0.00    +0.000 A 
ATOM      6  C   UNL     1       2.834   2.366  17.770  0.00  0.00    +0.000 A 
ATOM      7  C   UNL     1       1.750   2.128  18.615  0.00  0.00    +0.000 A 
ATOM      8  C   UNL     1       1.127   3.191  19.255  0.00  0.00    +0.000 A 
ATOM      9  C   UNL     1       1.585   4.495  19.047  0.00  0.00    +0.000 A 
ATOM     10  C   UNL     1       2.684   4.768  18.199  0.00  0.00    +0.000 A 
ENDROOT
BRANCH   1  12
ATOM     11  C   UNL     1       2.293   8.352  17.774  0.00  0.00    +0.000 C 
ATOM     12  C   UNL     1       2.563   7.277  18.531  0.00  0.00    +0.000 C 
BRANCH  11  14
ATOM     13  N   UNL     1       1.922  10.706  17.759  0.00  0.00    +0.000 N 
ATOM     14  C   UNL     1       1.643   9.531  18.384  0.00  0.00    +0.000 C 
ATOM     15  O   UNL     1       0.910   9.478  19.364  0.00  0.00    +0.000 OA
ATOM     16  H   UNL     1       1.492  11.543  18.132  0.00  0.00    +0.000 HD
ATOM     17  H   UNL     1       2.511  10.788  16.944  0.00  0.00    +0.000 HD
ENDBRANCH  11  14
ENDBRANCH   1  12
TORSDOF 2
ENDMDL
MODEL 4
REMARK VINA RESULT:      -6.9      1.047      2.882
REMARK  Name = 
REMARK  2 active torsions:
REMARK  status: ('A' for Active; 'I' for Inactive)
REMARK    1  A    between atoms: C_2  and  C_4
REMARK    2  A    between atoms: C_5  and  C_6
REMARK                            x       y       z     vdW  Elec       q    Type
REMARK                         _______ _______ _______ _____ _____    ______ ____
ROOT
ATOM      1  C   UNL     1       3.623   3.714  17.673  0.00  0.00    +0.000 A 
ATOM      2  C   UNL     1       3.436   2.327  17.777  0.00  0.00    +0.000 A 
ATOM      3  C   UNL     1       2.611   1.799  18.766  0.00  0.00    +0.000 A 
ATOM      4  C   UNL     1       1.964   2.651  19.658  0.00  0.00    +0.000 A 
ATOM      5  C   UNL     1       2.154   4.039  19.595  0.00  0.00    +0.000 A 
ATOM      6  C   UNL     1       1.516   4.880  20.522  0.00  0.00    +0.000 A 
ATOM      7  C   UNL     1       1.712   6.261  20.491  0.00  0.00    +0.000 A 
ATOM      8  C   UNL     1       2.543   6.818  19.528  0.00  0.00    +0.000 A 
ATOM      9  C   UNL     1       3.174   5.996  18.591  0.00  0.00    +0.000 A 
ATOM     10  C   UNL     1       2.997   4.592  18.599  0.00  0.00    +0.000 A 
ENDROOT
BRANCH   1  12
ATOM     11  C   UNL     1       5.797   4.285  16.686  0.00  0.00    +0.000 C 
ATOM     12  C   UNL     1       4.463   4.203  16.569  0.00  0.00    +0.000 C 
BRANCH  11  14
ATOM     13  N   UNL     1       6.288   4.183  14.356  0.00  0.00    +0.000 N 
ATOM     14  C   UNL     1       6.603   4.765  15.544  0.00  0.00    +0.000 C 
ATOM     15  O   UNL     1       7.480   5.615  15.635  0.00  0.00    +0.000 OA
ATOM     16  H   UNL     1       6.805   4.484  13.540  0.00  0.00    +0.000 HD
ATOM     17  H   UNL     1       5.566   3.488  14.240  0.00  0.00    +0.000 HD
ENDBRANCH  11  14
ENDBRANCH   1  12
TORSDOF 2
ENDMDL
MODEL 5
REMARK VINA RESULT:      -6.9      1.575      2.003
REMARK  Name = 
REMARK  2 active torsions:
REMARK  status: ('A' for Active; 'I' for Inactive)
REMARK    1  A    between atoms: C_2  and  C_4
REMARK    2  A    between atoms: C_5  and  C_6
REMARK                            x       y       z     vdW  Elec       q    Type
REMARK                         _______ _______ _______ _____ _____    ______ ____
ROOT
ATOM      1  C   UNL     1       3.065   5.810  18.461  0.00  0.00    +0.000 A 
ATOM      2  C   UNL     1       2.763   6.855  19.347  0.00  0.00    +0.000 A 
ATOM      3  C   UNL     1       1.910   6.642  20.425  0.00  0.00    +0.000 A 
ATOM      4  C   UNL     1       1.351   5.382  20.630  0.00  0.00    +0.000 A 
ATOM      5  C   UNL     1       1.612   4.326  19.745  0.00  0.00    +0.000 A 
ATOM      6  C   UNL     1       1.016   3.070  19.950  0.00  0.00    +0.000 A 
ATOM      7  C   UNL     1       1.245   2.015  19.068  0.00  0.00    +0.000 A 
ATOM      8  C   UNL     1       2.079   2.199  17.973  0.00  0.00    +0.000 A 
ATOM      9  C   UNL     1       2.689   3.438  17.762  0.00  0.00    +0.000 A 
ATOM     10  C   UNL     1       2.474   4.529  18.638  0.00  0.00    +0.000 A 
ENDROOT
BRANCH   1  12
ATOM     11  C   UNL     1       5.345   6.069  17.587  0.00  0.00    +0.000 C 
ATOM     12  C   UNL     1       4.019   6.092  17.378  0.00  0.00    +0.000 C 
BRANCH  11  14
ATOM     13  N   UNL     1       5.655   6.451  15.256  0.00  0.00    +0.000 N 
ATOM     14  C   UNL     1       6.267   6.341  16.465  0.00  0.00    +0.000 C 
ATOM     15  O   UNL     1       7.478   6.464  16.590  0.00  0.00    +0.000 OA
ATOM     16  H   UNL     1       6.242   6.647  14.455  0.00  0.00    +0.000 HD
ATOM     17  H   UNL     1       4.660   6.366  15.115  0.00  0.00    +0.000 HD
ENDBRANCH  11  14
ENDBRANCH   1  12
TORSDOF 2
ENDMDL
MODEL 6
REMARK VINA RESULT:      -6.8      2.071      2.959
REMARK  Name = 
REMARK  2 active torsions:
REMARK  status: ('A' for Active; 'I' for Inactive)
REMARK    1  A    between atoms: C_2  and  C_4
REMARK    2  A    between atoms: C_5  and  C_6
REMARK                            x       y       z     vdW  Elec       q    Type
REMARK                         _______ _______ _______ _____ _____    ______ ____
ROOT
ATOM      1  C   UNL     1       5.953   4.243  16.438  0.00  0.00    +0.000 A 
ATOM      2  C   UNL     1       7.270   4.578  16.787  0.00  0.00    +0.000 A 
ATOM      3  C   UNL     1       7.547   5.151  18.025  0.00  0.00    +0.000 A 
ATOM      4  C   UNL     1       6.512   5.392  18.925  0.00  0.00    +0.000 A 
ATOM      5  C   UNL     1       5.183   5.094  18.592  0.00  0.00    +0.000 A 
ATOM      6  C   UNL     1       4.148   5.371  19.502  0.00  0.00    +0.000 A 
ATOM      7  C   UNL     1       2.818   5.103  19.179  0.00  0.00    +0.000 A 
ATOM      8  C   UNL     1       2.506   4.547  17.945  0.00  0.00    +0.000 A 
ATOM      9  C   UNL     1       3.525   4.254  17.035  0.00  0.00    +0.000 A 
ATOM     10  C   UNL     1       4.883   4.516  17.333  0.00  0.00    +0.000 A 
ENDROOT
BRANCH   1  12
ATOM     11  C   UNL     1       5.975   4.231  13.983  0.00  0.00    +0.000 C 
ATOM     12  C   UNL     1       5.743   3.588  15.137  0.00  0.00    +0.000 C 
BRANCH  11  14
ATOM     13  N   UNL     1       6.890   2.948  12.196  0.00  0.00    +0.000 N 
ATOM     14  C   UNL     1       5.768   3.528  12.699  0.00  0.00    +0.000 C 
ATOM     15  O   UNL     1       4.689   3.457  12.125  0.00  0.00    +0.000 OA
ATOM     16  H   UNL     1       6.799   2.444  11.322  0.00  0.00    +0.000 HD
ATOM     17  H   UNL     1       7.793   2.975  12.645  0.00  0.00    +0.000 HD
ENDBRANCH  11  14
ENDBRANCH   1  12
TORSDOF 2
ENDMDL
MODEL 7
REMARK VINA RESULT:      -6.8      1.392      1.409
REMARK  Name = 
REMARK  2 active torsions:
REMARK  status: ('A' for Active; 'I' for Inactive)
REMARK    1  A    between atoms: C_2  and  C_4
REMARK    2  A    between atoms: C_5  and  C_6
REMARK                            x       y       z     vdW  Elec       q    Type
REMARK                         _______ _______ _______ _____ _____    ______ ____
ROOT
ATOM      1  C   UNL     1       4.246   5.728  17.845  0.00  0.00    +0.000 A 
ATOM      2  C   UNL     1       3.858   7.028  17.487  0.00  0.00    +0.000 A 
ATOM      3  C   UNL     1       2.839   7.676  18.179  0.00  0.00    +0.000 A 
ATOM      4  C   UNL     1       2.199   7.033  19.235  0.00  0.00    +0.000 A 
ATOM      5  C   UNL     1       2.546   5.723  19.597  0.00  0.00    +0.000 A 
ATOM      6  C   UNL     1       1.869   5.078  20.646  0.00  0.00    +0.000 A 
ATOM      7  C   UNL     1       2.183   3.768  21.005  0.00  0.00    +0.000 A 
ATOM      8  C   UNL     1       3.184   3.087  20.323  0.00  0.00    +0.000 A 
ATOM      9  C   UNL     1       3.875   3.719  19.286  0.00  0.00    +0.000 A 
ATOM     10  C   UNL     1       3.577   5.046  18.898  0.00  0.00    +0.000 A 
ENDROOT
BRANCH   1  12
ATOM     11  C   UNL     1       5.400   5.116  15.766  0.00  0.00    +0.000 C 
ATOM     12  C   UNL     1       5.368   5.128  17.107  0.00  0.00    +0.000 C 
BRANCH  11  14
ATOM     13  N   UNL     1       6.226   3.547  14.175  0.00  0.00    +0.000 N 
ATOM     14  C   UNL     1       6.557   4.519  15.067  0.00  0.00    +0.000 C 
ATOM     15  O   UNL     1       7.718   4.857  15.255  0.00  0.00    +0.000 OA
ATOM     16  H   UNL     1       6.983   3.112  13.662  0.00  0.00    +0.000 HD
ATOM     17  H   UNL     1       5.282   3.249  13.985  0.00  0.00    +0.000 HD
ENDBRANCH  11  14
ENDBRANCH   1  12
TORSDOF 2
ENDMDL
MODEL 8
REMARK VINA RESULT:      -6.7      1.753      1.773
REMARK  Name = 
REMARK  2 active torsions:
REMARK  status: ('A' for Active; 'I' for Inactive)
REMARK    1  A    between atoms: C_2  and  C_4
REMARK    2  A    between atoms: C_5  and  C_6
REMARK                            x       y       z     vdW  Elec       q    Type
REMARK                         _______ _______ _______ _____ _____    ______ ____
ROOT
ATOM      1  C   UNL     1       4.164   5.478  18.334  0.00  0.00    +0.000 A 
ATOM      2  C   UNL     1       3.697   6.756  17.992  0.00  0.00    +0.000 A 
ATOM      3  C   UNL     1       2.584   7.294  18.631  0.00  0.00    +0.000 A 
ATOM      4  C   UNL     1       1.928   6.561  19.618  0.00  0.00    +0.000 A 
ATOM      5  C   UNL     1       2.356   5.270  19.960  0.00  0.00    +0.000 A 
ATOM      6  C   UNL     1       1.664   4.534  20.937  0.00  0.00    +0.000 A 
ATOM      7  C   UNL     1       2.060   3.240  21.274  0.00  0.00    +0.000 A 
ATOM      8  C   UNL     1       3.157   2.668  20.643  0.00  0.00    +0.000 A 
ATOM      9  C   UNL     1       3.862   3.392  19.678  0.00  0.00    +0.000 A 
ATOM     10  C   UNL     1       3.484   4.705  19.314  0.00  0.00    +0.000 A 
ENDROOT
BRANCH   1  12
ATOM     11  C   UNL     1       5.858   5.604  16.561  0.00  0.00    +0.000 C 
ATOM     12  C   UNL     1       5.379   4.998  17.659  0.00  0.00    +0.000 C 
BRANCH  11  14
ATOM     13  N   UNL     1       7.830   4.276  16.720  0.00  0.00    +0.000 N 
ATOM     14  C   UNL     1       7.093   5.098  15.926  0.00  0.00    +0.000 C 
ATOM     15  O   UNL     1       7.439   5.378  14.786  0.00  0.00    +0.000 OA
ATOM     16  H   UNL     1       8.682   3.894  16.328  0.00  0.00    +0.000 HD
ATOM     17  H   UNL     1       7.572   4.015  17.659  0.00  0.00    +0.000 HD
ENDBRANCH  11  14
ENDBRANCH   1  12
TORSDOF 2
ENDMDL
MODEL 9
REMARK VINA RESULT:      -6.7      1.291      2.883
REMARK  Name = 
REMARK  2 active torsions:
REMARK  status: ('A' for Active; 'I' for Inactive)
REMARK    1  A    between atoms: C_2  and  C_4
REMARK    2  A    between atoms: C_5  and  C_6
REMARK                            x       y       z     vdW  Elec       q    Type
REMARK                         _______ _______ _______ _____ _____    ______ ____
ROOT
ATOM      1  C   UNL     1       4.179   4.311  17.722  0.00  0.00    +0.000 A 
ATOM      2  C   UNL     1       4.210   3.109  18.445  0.00  0.00    +0.000 A 
ATOM      3  C   UNL     1       3.555   3.003  19.668  0.00  0.00    +0.000 A 
ATOM      4  C   UNL     1       2.862   4.097  20.181  0.00  0.00    +0.000 A 
ATOM      5  C   UNL     1       2.837   5.320  19.495  0.00  0.00    +0.000 A 
ATOM      6  C   UNL     1       2.158   6.422  20.041  0.00  0.00    +0.000 A 
ATOM      7  C   UNL     1       2.142   7.653  19.385  0.00  0.00    +0.000 A 
ATOM      8  C   UNL     1       2.800   7.796  18.170  0.00  0.00    +0.000 A 
ATOM      9  C   UNL     1       3.470   6.706  17.608  0.00  0.00    +0.000 A 
ATOM     10  C   UNL     1       3.506   5.446  18.250  0.00  0.00    +0.000 A 
ENDROOT
BRANCH   1  12
ATOM     11  C   UNL     1       6.163   4.555  16.296  0.00  0.00    +0.000 C 
ATOM     12  C   UNL     1       4.844   4.331  16.411  0.00  0.00    +0.000 C 
BRANCH  11  14
ATOM     13  N   UNL     1       6.324   3.578  14.129  0.00  0.00    +0.000 N 
ATOM     14  C   UNL     1       6.792   4.547  14.959  0.00  0.00    +0.000 C 
ATOM     15  O   UNL     1       7.658   5.338  14.607  0.00  0.00    +0.000 OA
ATOM     16  H   UNL     1       6.716   3.536  13.197  0.00  0.00    +0.000 HD
ATOM     17  H   UNL     1       5.605   2.916  14.379  0.00  0.00    +0.000 HD
ENDBRANCH  11  14
ENDBRANCH   1  12
TORSDOF 2
ENDMDL
