MODEL 1
REMARK VINA RESULT:      -8.0      0.000      0.000
REMARK  Name = 
REMARK  3 active torsions:
REMARK  status: ('A' for Active; 'I' for Inactive)
REMARK    1  A    between atoms: C_1  and  N_2
REMARK    2  A    between atoms: C_3  and  C_5
REMARK    3  A    between atoms: C_15  and  C_16
REMARK                            x       y       z     vdW  Elec       q    Type
REMARK                         _______ _______ _______ _____ _____    ______ ____
ROOT
ATOM      1  C   UNL     1       7.949   6.912  18.221  0.00  0.00    +0.000 C 
ATOM      2  N   UNL     1       6.862   5.981  17.971  0.00  0.00    +0.000 N 
ATOM      3  C   UNL     1       6.209   5.359  19.048  0.00  0.00    +0.000 C 
ATOM      4  O   UNL     1       6.645   5.413  20.201  0.00  0.00    +0.000 OA
ATOM      5  C   UNL     1       6.431   5.793  16.677  0.00  0.00    +0.000 A 
ATOM      6  N   UNL     1       5.837   6.674  15.909  0.00  0.00    +0.000 NA
ATOM      7  N   UNL     1       5.467   6.112  14.702  0.00  0.00    +0.000 NA
ATOM      8  C   UNL     1       5.911   4.875  14.555  0.00  0.00    +0.000 A 
ATOM      9  S   UNL     1       6.792   4.305  15.929  0.00  0.00    +0.000 S 
ENDROOT
BRANCH   3  10
ATOM     10  C   UNL     1       4.949   4.575  18.842  0.00  0.00    +0.000 A 
ATOM     11  C   UNL     1       3.782   5.270  18.492  0.00  0.00    +0.000 A 
ATOM     12  C   UNL     1       2.568   4.589  18.350  0.00  0.00    +0.000 A 
ATOM     13  C   UNL     1       2.514   3.214  18.569  0.00  0.00    +0.000 A 
ATOM     14 CL   UNL     1       1.012   2.384  18.465  0.00  0.00    +0.000 Cl
ATOM     15  C   UNL     1       3.674   2.504  18.864  0.00  0.00    +0.000 A 
ATOM     16  C   UNL     1       4.895   3.178  18.956  0.00  0.00    +0.000 A 
ENDBRANCH   3  10
BRANCH   8  17
ATOM     17  C   UNL     1       5.733   4.052  13.351  0.00  0.00    +0.000 A 
ATOM     18  C   UNL     1       6.855   3.399  12.798  0.00  0.00    +0.000 A 
ATOM     19  C   UNL     1       6.726   2.578  11.675  0.00  0.00    +0.000 A 
ATOM     20  C   UNL     1       5.478   2.401  11.080  0.00  0.00    +0.000 A 
ATOM     21  C   UNL     1       4.379   3.059  11.604  0.00  0.00    +0.000 A 
ATOM     22  F   UNL     1       3.178   2.900  11.032  0.00  0.00    +0.000 F 
ATOM     23  C   UNL     1       4.495   3.880  12.720  0.00  0.00    +0.000 A 
ENDBRANCH   8  17
TORSDOF 2
ENDMDL
MODEL 2
REMARK VINA RESULT:      -8.0      0.956      1.383
REMARK  Name = 
REMARK  3 active torsions:
REMARK  status: ('A' for Active; 'I' for Inactive)
REMARK    1  A    between atoms: C_1  and  N_2
REMARK    2  A    between atoms: C_3  and  C_5
REMARK    3  A    between atoms: C_15  and  C_16
REMARK                            x       y       z     vdW  Elec       q    Type
REMARK                         _______ _______ _______ _____ _____    ______ ____
ROOT
ATOM      1  C   UNL     1       7.889   6.987  18.091  0.00  0.00    +0.000 C 
ATOM      2  N   UNL     1       6.825   6.023  17.870  0.00  0.00    +0.000 N 
ATOM      3  C   UNL     1       6.196   5.409  18.966  0.00  0.00    +0.000 C 
ATOM      4  O   UNL     1       6.637   5.500  20.114  0.00  0.00    +0.000 OA
ATOM      5  C   UNL     1       6.390   5.794  16.584  0.00  0.00    +0.000 A 
ATOM      6  N   UNL     1       5.768   6.642  15.801  0.00  0.00    +0.000 NA
ATOM      7  N   UNL     1       5.405   6.043  14.609  0.00  0.00    +0.000 NA
ATOM      8  C   UNL     1       5.879   4.815  14.487  0.00  0.00    +0.000 A 
ATOM      9  S   UNL     1       6.785   4.299  15.867  0.00  0.00    +0.000 S 
ENDROOT
BRANCH   3  10
ATOM     10  C   UNL     1       4.954   4.588  18.787  0.00  0.00    +0.000 A 
ATOM     11  C   UNL     1       3.760   5.249  18.465  0.00  0.00    +0.000 A 
ATOM     12  C   UNL     1       2.563   4.532  18.349  0.00  0.00    +0.000 A 
ATOM     13  C   UNL     1       2.555   3.156  18.566  0.00  0.00    +0.000 A 
ATOM     14 CL   UNL     1       1.076   2.282  18.495  0.00  0.00    +0.000 Cl
ATOM     15  C   UNL     1       3.742   2.480  18.834  0.00  0.00    +0.000 A 
ATOM     16  C   UNL     1       4.944   3.190  18.900  0.00  0.00    +0.000 A 
ENDBRANCH   3  10
BRANCH   8  17
ATOM     17  C   UNL     1       5.714   3.961  13.303  0.00  0.00    +0.000 A 
ATOM     18  C   UNL     1       4.453   3.903  12.674  0.00  0.00    +0.000 A 
ATOM     19  C   UNL     1       4.260   3.131  11.524  0.00  0.00    +0.000 A 
ATOM     20  C   UNL     1       5.319   2.400  10.989  0.00  0.00    +0.000 A 
ATOM     21  C   UNL     1       6.552   2.434  11.618  0.00  0.00    +0.000 A 
ATOM     22  F   UNL     1       7.571   1.727  11.114  0.00  0.00    +0.000 F 
ATOM     23  C   UNL     1       6.755   3.196  12.763  0.00  0.00    +0.000 A 
ENDBRANCH   8  17
TORSDOF 2
ENDMDL
MODEL 3
REMARK VINA RESULT:      -7.8      0.970      1.715
REMARK  Name = 
REMARK  3 active torsions:
REMARK  status: ('A' for Active; 'I' for Inactive)
REMARK    1  A    between atoms: C_1  and  N_2
REMARK    2  A    between atoms: C_3  and  C_5
REMARK    3  A    between atoms: C_15  and  C_16
REMARK                            x       y       z     vdW  Elec       q    Type
REMARK                         _______ _______ _______ _____ _____    ______ ____
ROOT
ATOM      1  C   UNL     1       8.090   6.972  18.207  0.00  0.00    +0.000 C 
ATOM      2  N   UNL     1       6.990   6.049  17.987  0.00  0.00    +0.000 N 
ATOM      3  C   UNL     1       6.341   5.456  19.084  0.00  0.00    +0.000 C 
ATOM      4  O   UNL     1       6.789   5.528  20.231  0.00  0.00    +0.000 OA
ATOM      5  C   UNL     1       6.543   5.840  16.702  0.00  0.00    +0.000 A 
ATOM      6  N   UNL     1       5.952   6.711  15.922  0.00  0.00    +0.000 NA
ATOM      7  N   UNL     1       5.563   6.130  14.730  0.00  0.00    +0.000 NA
ATOM      8  C   UNL     1       5.991   4.884  14.604  0.00  0.00    +0.000 A 
ATOM      9  S   UNL     1       6.881   4.332  15.981  0.00  0.00    +0.000 S 
ENDROOT
BRANCH   3  10
ATOM     10  C   UNL     1       5.070   4.682  18.907  0.00  0.00    +0.000 A 
ATOM     11  C   UNL     1       5.062   3.326  19.263  0.00  0.00    +0.000 A 
ATOM     12  C   UNL     1       3.917   2.547  19.058  0.00  0.00    +0.000 A 
ATOM     13  C   UNL     1       2.782   3.119  18.485  0.00  0.00    +0.000 A 
ATOM     14 CL   UNL     1       1.398   2.150  18.166  0.00  0.00    +0.000 Cl
ATOM     15  C   UNL     1       2.759   4.476  18.177  0.00  0.00    +0.000 A 
ATOM     16  C   UNL     1       3.886   5.263  18.429  0.00  0.00    +0.000 A 
ENDBRANCH   3  10
BRANCH   8  17
ATOM     17  C   UNL     1       5.792   4.040  13.419  0.00  0.00    +0.000 A 
ATOM     18  C   UNL     1       4.506   3.961  12.846  0.00  0.00    +0.000 A 
ATOM     19  C   UNL     1       4.278   3.198  11.697  0.00  0.00    +0.000 A 
ATOM     20  C   UNL     1       5.326   2.496  11.107  0.00  0.00    +0.000 A 
ATOM     21  C   UNL     1       6.585   2.550  11.681  0.00  0.00    +0.000 A 
ATOM     22  F   UNL     1       7.596   1.870  11.123  0.00  0.00    +0.000 F 
ATOM     23  C   UNL     1       6.823   3.304  12.824  0.00  0.00    +0.000 A 
ENDBRANCH   8  17
TORSDOF 2
ENDMDL
MODEL 4
REMARK VINA RESULT:      -7.7      0.249      1.026
REMARK  Name = 
REMARK  3 active torsions:
REMARK  status: ('A' for Active; 'I' for Inactive)
REMARK    1  A    between atoms: C_1  and  N_2
REMARK    2  A    between atoms: C_3  and  C_5
REMARK    3  A    between atoms: C_15  and  C_16
REMARK                            x       y       z     vdW  Elec       q    Type
REMARK                         _______ _______ _______ _____ _____    ______ ____
ROOT
ATOM      1  C   UNL     1       8.046   7.034  18.181  0.00  0.00    +0.000 C 
ATOM      2  N   UNL     1       6.968   6.083  17.973  0.00  0.00    +0.000 N 
ATOM      3  C   UNL     1       6.356   5.463  19.076  0.00  0.00    +0.000 C 
ATOM      4  O   UNL     1       6.823   5.538  20.215  0.00  0.00    +0.000 OA
ATOM      5  C   UNL     1       6.503   5.871  16.694  0.00  0.00    +0.000 A 
ATOM      6  N   UNL     1       5.873   6.733  15.933  0.00  0.00    +0.000 NA
ATOM      7  N   UNL     1       5.479   6.151  14.743  0.00  0.00    +0.000 NA
ATOM      8  C   UNL     1       5.938   4.919  14.599  0.00  0.00    +0.000 A 
ATOM      9  S   UNL     1       6.868   4.380  15.954  0.00  0.00    +0.000 S 
ENDROOT
BRANCH   3  10
ATOM     10  C   UNL     1       5.103   4.656  18.915  0.00  0.00    +0.000 A 
ATOM     11  C   UNL     1       5.115   3.318  19.336  0.00  0.00    +0.000 A 
ATOM     12  C   UNL     1       3.989   2.507  19.149  0.00  0.00    +0.000 A 
ATOM     13  C   UNL     1       2.854   3.029  18.532  0.00  0.00    +0.000 A 
ATOM     14 CL   UNL     1       1.494   2.018  18.237  0.00  0.00    +0.000 Cl
ATOM     15  C   UNL     1       2.809   4.369  18.159  0.00  0.00    +0.000 A 
ATOM     16  C   UNL     1       3.916   5.190  18.392  0.00  0.00    +0.000 A 
ENDBRANCH   3  10
BRANCH   8  17
ATOM     17  C   UNL     1       5.740   4.079  13.410  0.00  0.00    +0.000 A 
ATOM     18  C   UNL     1       6.833   3.344  12.904  0.00  0.00    +0.000 A 
ATOM     19  C   UNL     1       6.681   2.504  11.796  0.00  0.00    +0.000 A 
ATOM     20  C   UNL     1       5.441   2.389  11.173  0.00  0.00    +0.000 A 
ATOM     21  C   UNL     1       4.372   3.128  11.652  0.00  0.00    +0.000 A 
ATOM     22  F   UNL     1       3.178   3.028  11.051  0.00  0.00    +0.000 F 
ATOM     23  C   UNL     1       4.511   3.967  12.751  0.00  0.00    +0.000 A 
ENDBRANCH   8  17
TORSDOF 2
ENDMDL
MODEL 5
REMARK VINA RESULT:      -7.2      3.013      4.213
REMARK  Name = 
REMARK  3 active torsions:
REMARK  status: ('A' for Active; 'I' for Inactive)
REMARK    1  A    between atoms: C_1  and  N_2
REMARK    2  A    between atoms: C_3  and  C_5
REMARK    3  A    between atoms: C_15  and  C_16
REMARK                            x       y       z     vdW  Elec       q    Type
REMARK                         _______ _______ _______ _____ _____    ______ ____
ROOT
ATOM      1  C   UNL     1       3.409   2.251  20.877  0.00  0.00    +0.000 C 
ATOM      2  N   UNL     1       3.300   3.457  20.074  0.00  0.00    +0.000 N 
ATOM      3  C   UNL     1       2.247   4.358  20.301  0.00  0.00    +0.000 C 
ATOM      4  O   UNL     1       1.286   4.079  21.024  0.00  0.00    +0.000 OA
ATOM      5  C   UNL     1       4.290   3.740  19.159  0.00  0.00    +0.000 A 
ATOM      6  N   UNL     1       5.539   4.039  19.418  0.00  0.00    +0.000 NA
ATOM      7  N   UNL     1       6.227   4.348  18.260  0.00  0.00    +0.000 NA
ATOM      8  C   UNL     1       5.510   4.142  17.168  0.00  0.00    +0.000 A 
ATOM      9  S   UNL     1       3.909   3.583  17.505  0.00  0.00    +0.000 S 
ENDROOT
BRANCH   3  10
ATOM     10  C   UNL     1       2.230   5.710  19.654  0.00  0.00    +0.000 A 
ATOM     11  C   UNL     1       2.019   6.834  20.465  0.00  0.00    +0.000 A 
ATOM     12  C   UNL     1       1.933   8.111  19.898  0.00  0.00    +0.000 A 
ATOM     13  C   UNL     1       2.045   8.265  18.518  0.00  0.00    +0.000 A 
ATOM     14 CL   UNL     1       1.870   9.822  17.809  0.00  0.00    +0.000 Cl
ATOM     15  C   UNL     1       2.308   7.166  17.707  0.00  0.00    +0.000 A 
ATOM     16  C   UNL     1       2.444   5.898  18.280  0.00  0.00    +0.000 A 
ENDBRANCH   3  10
BRANCH   8  17
ATOM     17  C   UNL     1       5.998   4.316  15.793  0.00  0.00    +0.000 A 
ATOM     18  C   UNL     1       7.131   5.125  15.568  0.00  0.00    +0.000 A 
ATOM     19  C   UNL     1       7.651   5.290  14.281  0.00  0.00    +0.000 A 
ATOM     20  C   UNL     1       7.045   4.657  13.198  0.00  0.00    +0.000 A 
ATOM     21  C   UNL     1       5.917   3.883  13.411  0.00  0.00    +0.000 A 
ATOM     22  F   UNL     1       5.325   3.278  12.372  0.00  0.00    +0.000 F 
ATOM     23  C   UNL     1       5.391   3.713  14.686  0.00  0.00    +0.000 A 
ENDBRANCH   8  17
TORSDOF 2
ENDMDL
MODEL 6
REMARK VINA RESULT:      -6.9      3.203      4.342
REMARK  Name = 
REMARK  3 active torsions:
REMARK  status: ('A' for Active; 'I' for Inactive)
REMARK    1  A    between atoms: C_1  and  N_2
REMARK    2  A    between atoms: C_3  and  C_5
REMARK    3  A    between atoms: C_15  and  C_16
REMARK                            x       y       z     vdW  Elec       q    Type
REMARK                         _______ _______ _______ _____ _____    ______ ____
ROOT
ATOM      1  C   UNL     1       3.661   2.246  20.879  0.00  0.00    +0.000 C 
ATOM      2  N   UNL     1       3.491   3.426  20.048  0.00  0.00    +0.000 N 
ATOM      3  C   UNL     1       2.423   4.306  20.290  0.00  0.00    +0.000 C 
ATOM      4  O   UNL     1       1.497   4.023  21.054  0.00  0.00    +0.000 OA
ATOM      5  C   UNL     1       4.439   3.709  19.090  0.00  0.00    +0.000 A 
ATOM      6  N   UNL     1       5.688   4.047  19.294  0.00  0.00    +0.000 NA
ATOM      7  N   UNL     1       6.325   4.341  18.103  0.00  0.00    +0.000 NA
ATOM      8  C   UNL     1       5.575   4.086  17.044  0.00  0.00    +0.000 A 
ATOM      9  S   UNL     1       4.002   3.496  17.456  0.00  0.00    +0.000 S 
ENDROOT
BRANCH   3  10
ATOM     10  C   UNL     1       2.346   5.638  19.607  0.00  0.00    +0.000 A 
ATOM     11  C   UNL     1       2.153   6.781  20.397  0.00  0.00    +0.000 A 
ATOM     12  C   UNL     1       2.013   8.039  19.799  0.00  0.00    +0.000 A 
ATOM     13  C   UNL     1       2.053   8.156  18.411  0.00  0.00    +0.000 A 
ATOM     14 CL   UNL     1       1.811   9.689  17.670  0.00  0.00    +0.000 Cl
ATOM     15  C   UNL     1       2.297   7.039  17.619  0.00  0.00    +0.000 A 
ATOM     16  C   UNL     1       2.487   5.791  18.220  0.00  0.00    +0.000 A 
ENDBRANCH   3  10
BRANCH   8  17
ATOM     17  C   UNL     1       6.007   4.234  15.649  0.00  0.00    +0.000 A 
ATOM     18  C   UNL     1       5.232   3.645  14.628  0.00  0.00    +0.000 A 
ATOM     19  C   UNL     1       5.586   3.791  13.283  0.00  0.00    +0.000 A 
ATOM     20  C   UNL     1       6.722   4.519  12.937  0.00  0.00    +0.000 A 
ATOM     21  C   UNL     1       7.500   5.077  13.937  0.00  0.00    +0.000 A 
ATOM     22  F   UNL     1       8.599   5.771  13.610  0.00  0.00    +0.000 F 
ATOM     23  C   UNL     1       7.159   4.938  15.277  0.00  0.00    +0.000 A 
ENDBRANCH   8  17
TORSDOF 2
ENDMDL
MODEL 7
REMARK VINA RESULT:      -6.9      3.015      4.294
REMARK  Name = 
REMARK  3 active torsions:
REMARK  status: ('A' for Active; 'I' for Inactive)
REMARK    1  A    between atoms: C_1  and  N_2
REMARK    2  A    between atoms: C_3  and  C_5
REMARK    3  A    between atoms: C_15  and  C_16
REMARK                            x       y       z     vdW  Elec       q    Type
REMARK                         _______ _______ _______ _____ _____    ______ ____
ROOT
ATOM      1  C   UNL     1       3.417   2.126  21.026  0.00  0.00    +0.000 C 
ATOM      2  N   UNL     1       3.265   3.333  20.233  0.00  0.00    +0.000 N 
ATOM      3  C   UNL     1       2.177   4.192  20.463  0.00  0.00    +0.000 C 
ATOM      4  O   UNL     1       1.225   3.870  21.180  0.00  0.00    +0.000 OA
ATOM      5  C   UNL     1       4.245   3.661  19.323  0.00  0.00    +0.000 A 
ATOM      6  N   UNL     1       5.482   4.006  19.589  0.00  0.00    +0.000 NA
ATOM      7  N   UNL     1       6.161   4.350  18.435  0.00  0.00    +0.000 NA
ATOM      8  C   UNL     1       5.455   4.125  17.339  0.00  0.00    +0.000 A 
ATOM      9  S   UNL     1       3.876   3.502  17.667  0.00  0.00    +0.000 S 
ENDROOT
BRANCH   3  10
ATOM     10  C   UNL     1       2.109   5.547  19.826  0.00  0.00    +0.000 A 
ATOM     11  C   UNL     1       2.264   5.636  18.435  0.00  0.00    +0.000 A 
ATOM     12  C   UNL     1       2.272   6.885  17.802  0.00  0.00    +0.000 A 
ATOM     13  C   UNL     1       2.135   8.046  18.559  0.00  0.00    +0.000 A 
ATOM     14 CL   UNL     1       2.214   9.585  17.795  0.00  0.00    +0.000 Cl
ATOM     15  C   UNL     1       1.926   7.970  19.933  0.00  0.00    +0.000 A 
ATOM     16  C   UNL     1       1.870   6.720  20.556  0.00  0.00    +0.000 A 
ENDBRANCH   3  10
BRANCH   8  17
ATOM     17  C   UNL     1       5.940   4.329  15.968  0.00  0.00    +0.000 A 
ATOM     18  C   UNL     1       7.097   5.108  15.761  0.00  0.00    +0.000 A 
ATOM     19  C   UNL     1       7.615   5.299  14.476  0.00  0.00    +0.000 A 
ATOM     20  C   UNL     1       6.983   4.721  13.378  0.00  0.00    +0.000 A 
ATOM     21  C   UNL     1       5.832   3.976  13.573  0.00  0.00    +0.000 A 
ATOM     22  F   UNL     1       5.214   3.425  12.519  0.00  0.00    +0.000 F 
ATOM     23  C   UNL     1       5.308   3.781  14.845  0.00  0.00    +0.000 A 
ENDBRANCH   8  17
TORSDOF 2
ENDMDL
MODEL 8
REMARK VINA RESULT:      -6.6      3.174      4.375
REMARK  Name = 
REMARK  3 active torsions:
REMARK  status: ('A' for Active; 'I' for Inactive)
REMARK    1  A    between atoms: C_1  and  N_2
REMARK    2  A    between atoms: C_3  and  C_5
REMARK    3  A    between atoms: C_15  and  C_16
REMARK                            x       y       z     vdW  Elec       q    Type
REMARK                         _______ _______ _______ _____ _____    ______ ____
ROOT
ATOM      1  C   UNL     1       3.723   2.084  20.960  0.00  0.00    +0.000 C 
ATOM      2  N   UNL     1       3.497   3.262  20.141  0.00  0.00    +0.000 N 
ATOM      3  C   UNL     1       2.390   4.091  20.394  0.00  0.00    +0.000 C 
ATOM      4  O   UNL     1       1.481   3.759  21.159  0.00  0.00    +0.000 OA
ATOM      5  C   UNL     1       4.427   3.596  19.183  0.00  0.00    +0.000 A 
ATOM      6  N   UNL     1       5.661   3.989  19.386  0.00  0.00    +0.000 NA
ATOM      7  N   UNL     1       6.280   4.323  18.196  0.00  0.00    +0.000 NA
ATOM      8  C   UNL     1       5.538   4.043  17.137  0.00  0.00    +0.000 A 
ATOM      9  S   UNL     1       3.995   3.378  17.548  0.00  0.00    +0.000 S 
ENDROOT
BRANCH   3  10
ATOM     10  C   UNL     1       2.251   5.424  19.723  0.00  0.00    +0.000 A 
ATOM     11  C   UNL     1       2.262   5.468  18.322  0.00  0.00    +0.000 A 
ATOM     12  C   UNL     1       2.197   6.696  17.651  0.00  0.00    +0.000 A 
ATOM     13  C   UNL     1       2.132   7.881  18.380  0.00  0.00    +0.000 A 
ATOM     14 CL   UNL     1       2.124   9.394  17.563  0.00  0.00    +0.000 Cl
ATOM     15  C   UNL     1       2.066   7.849  19.770  0.00  0.00    +0.000 A 
ATOM     16  C   UNL     1       2.080   6.620  20.436  0.00  0.00    +0.000 A 
ENDBRANCH   3  10
BRANCH   8  17
ATOM     17  C   UNL     1       5.958   4.223  15.741  0.00  0.00    +0.000 A 
ATOM     18  C   UNL     1       5.160   3.681  14.713  0.00  0.00    +0.000 A 
ATOM     19  C   UNL     1       5.502   3.858  13.369  0.00  0.00    +0.000 A 
ATOM     20  C   UNL     1       6.649   4.573  13.031  0.00  0.00    +0.000 A 
ATOM     21  C   UNL     1       7.450   5.085  14.038  0.00  0.00    +0.000 A 
ATOM     22  F   UNL     1       8.559   5.766  13.719  0.00  0.00    +0.000 F 
ATOM     23  C   UNL     1       7.120   4.914  15.377  0.00  0.00    +0.000 A 
ENDBRANCH   8  17
TORSDOF 2
ENDMDL
MODEL 9
REMARK VINA RESULT:      -6.5      4.966      7.422
REMARK  Name = 
REMARK  3 active torsions:
REMARK  status: ('A' for Active; 'I' for Inactive)
REMARK    1  A    between atoms: C_1  and  N_2
REMARK    2  A    between atoms: C_3  and  C_5
REMARK    3  A    between atoms: C_15  and  C_16
REMARK                            x       y       z     vdW  Elec       q    Type
REMARK                         _______ _______ _______ _____ _____    ______ ____
ROOT
ATOM      1  C   UNL     1       2.310   2.467  19.647  0.00  0.00    +0.000 C 
ATOM      2  N   UNL     1       3.190   3.566  19.290  0.00  0.00    +0.000 N 
ATOM      3  C   UNL     1       4.581   3.368  19.253  0.00  0.00    +0.000 C 
ATOM      4  O   UNL     1       5.113   2.350  19.705  0.00  0.00    +0.000 OA
ATOM      5  C   UNL     1       2.636   4.765  18.903  0.00  0.00    +0.000 A 
ATOM      6  N   UNL     1       1.930   4.994  17.823  0.00  0.00    +0.000 NA
ATOM      7  N   UNL     1       1.607   6.334  17.714  0.00  0.00    +0.000 NA
ATOM      8  C   UNL     1       1.966   7.035  18.776  0.00  0.00    +0.000 A 
ATOM      9  S   UNL     1       2.768   6.083  19.977  0.00  0.00    +0.000 S 
ENDROOT
BRANCH   3  10
ATOM     10  C   UNL     1       5.497   4.404  18.675  0.00  0.00    +0.000 A 
ATOM     11  C   UNL     1       6.445   4.999  19.520  0.00  0.00    +0.000 A 
ATOM     12  C   UNL     1       7.280   6.015  19.041  0.00  0.00    +0.000 A 
ATOM     13  C   UNL     1       7.162   6.447  17.721  0.00  0.00    +0.000 A 
ATOM     14 CL   UNL     1       8.136   7.743  17.149  0.00  0.00    +0.000 Cl
ATOM     15  C   UNL     1       6.262   5.828  16.858  0.00  0.00    +0.000 A 
ATOM     16  C   UNL     1       5.464   4.779  17.324  0.00  0.00    +0.000 A 
ENDBRANCH   3  10
BRANCH   8  17
ATOM     17  C   UNL     1       1.694   8.465  18.975  0.00  0.00    +0.000 A 
ATOM     18  C   UNL     1       2.024   9.372  17.946  0.00  0.00    +0.000 A 
ATOM     19  C   UNL     1       1.750  10.737  18.077  0.00  0.00    +0.000 A 
ATOM     20  C   UNL     1       1.150  11.219  19.238  0.00  0.00    +0.000 A 
ATOM     21  C   UNL     1       0.848  10.336  20.261  0.00  0.00    +0.000 A 
ATOM     22  F   UNL     1       0.278  10.794  21.384  0.00  0.00    +0.000 F 
ATOM     23  C   UNL     1       1.117   8.977  20.142  0.00  0.00    +0.000 A 
ENDBRANCH   8  17
TORSDOF 2
ENDMDL
