MODEL 1
REMARK VINA RESULT:      -7.1      0.000      0.000
REMARK  Name = 
REMARK  3 active torsions:
REMARK  status: ('A' for Active; 'I' for Inactive)
REMARK    1  A    between atoms: C_1  and  C_2
REMARK    2  A    between atoms: C_8  and  C_10
REMARK    3  A    between atoms: C_15  and  N_16
REMARK                            x       y       z     vdW  Elec       q    Type
REMARK                         _______ _______ _______ _____ _____    ______ ____
ROOT
ATOM      1  C   UNL     1       6.424   4.016  12.911  0.00  0.00    +0.000 C 
ATOM      2  C   UNL     1       7.133   4.740  14.028  0.00  0.00    +0.000 C 
ATOM      3  O   UNL     1       8.063   5.501  13.778  0.00  0.00    +0.000 OA
ATOM      4  N   UNL     1       6.663   4.530  15.314  0.00  0.00    +0.000 N 
ATOM      5  C   UNL     1       7.230   5.280  16.441  0.00  0.00    +0.000 C 
ATOM      6  C   UNL     1       6.126   6.009  17.230  0.00  0.00    +0.000 C 
ATOM      7  N   UNL     1       5.022   5.098  17.589  0.00  0.00    +0.000 N 
ATOM      8  C   UNL     1       4.531   5.110  18.906  0.00  0.00    +0.000 C 
ATOM      9  O   UNL     1       5.015   5.859  19.762  0.00  0.00    +0.000 OA
ATOM     10  C   UNL     1       4.485   4.335  16.452  0.00  0.00    +0.000 C 
ATOM     11  C   UNL     1       5.592   3.610  15.685  0.00  0.00    +0.000 C 
ENDROOT
BRANCH   8  12
ATOM     12  C   UNL     1       3.415   4.198  19.330  0.00  0.00    +0.000 A 
ATOM     13  N   UNL     1       2.143   4.696  19.310  0.00  0.00    +0.000 NA
ATOM     14  C   UNL     1       1.167   3.831  19.653  0.00  0.00    +0.000 A 
ATOM     15  C   UNL     1       1.436   2.537  20.053  0.00  0.00    +0.000 A 
ATOM     16  N   UNL     1       2.694   2.050  20.133  0.00  0.00    +0.000 NA
ATOM     17  C   UNL     1       3.695   2.891  19.775  0.00  0.00    +0.000 A 
BRANCH  17  18
ATOM     18  N   UNL     1       4.961   2.312  19.783  0.00  0.00    +0.000 N 
ATOM     19  H   UNL     1       5.581   2.865  19.199  0.00  0.00    +0.000 HD
ATOM     20  H   UNL     1       4.921   1.323  19.530  0.00  0.00    +0.000 HD
ENDBRANCH  17  18
ENDBRANCH   8  12
TORSDOF 2
ENDMDL
MODEL 2
REMARK VINA RESULT:      -6.8      0.832      1.555
REMARK  Name = 
REMARK  3 active torsions:
REMARK  status: ('A' for Active; 'I' for Inactive)
REMARK    1  A    between atoms: C_1  and  C_2
REMARK    2  A    between atoms: C_8  and  C_10
REMARK    3  A    between atoms: C_15  and  N_16
REMARK                            x       y       z     vdW  Elec       q    Type
REMARK                         _______ _______ _______ _____ _____    ______ ____
ROOT
ATOM      1  C   UNL     1       6.363   4.048  12.972  0.00  0.00    +0.000 C 
ATOM      2  C   UNL     1       7.101   4.699  14.114  0.00  0.00    +0.000 C 
ATOM      3  O   UNL     1       8.070   5.419  13.893  0.00  0.00    +0.000 OA
ATOM      4  N   UNL     1       6.613   4.473  15.391  0.00  0.00    +0.000 N 
ATOM      5  C   UNL     1       7.210   5.157  16.544  0.00  0.00    +0.000 C 
ATOM      6  C   UNL     1       6.139   5.916  17.351  0.00  0.00    +0.000 C 
ATOM      7  N   UNL     1       4.988   5.053  17.675  0.00  0.00    +0.000 N 
ATOM      8  C   UNL     1       4.490   5.048  18.989  0.00  0.00    +0.000 C 
ATOM      9  O   UNL     1       5.005   5.744  19.871  0.00  0.00    +0.000 OA
ATOM     10  C   UNL     1       4.420   4.355  16.511  0.00  0.00    +0.000 C 
ATOM     11  C   UNL     1       5.493   3.598  15.727  0.00  0.00    +0.000 C 
ENDROOT
BRANCH   8  12
ATOM     12  C   UNL     1       3.325   4.182  19.378  0.00  0.00    +0.000 A 
ATOM     13  N   UNL     1       3.357   2.868  19.005  0.00  0.00    +0.000 NA
ATOM     14  C   UNL     1       2.315   2.115  19.414  0.00  0.00    +0.000 A 
ATOM     15  C   UNL     1       1.255   2.646  20.121  0.00  0.00    +0.000 A 
ATOM     16  N   UNL     1       1.184   3.956  20.446  0.00  0.00    +0.000 NA
ATOM     17  C   UNL     1       2.227   4.734  20.065  0.00  0.00    +0.000 A 
BRANCH  17  18
ATOM     18  N   UNL     1       2.151   6.052  20.507  0.00  0.00    +0.000 N 
ATOM     19  H   UNL     1       2.880   6.212  21.196  0.00  0.00    +0.000 HD
ATOM     20  H   UNL     1       1.212   6.283  20.834  0.00  0.00    +0.000 HD
ENDBRANCH  17  18
ENDBRANCH   8  12
TORSDOF 2
ENDMDL
MODEL 3
REMARK VINA RESULT:      -6.7      1.150      1.803
REMARK  Name = 
REMARK  3 active torsions:
REMARK  status: ('A' for Active; 'I' for Inactive)
REMARK    1  A    between atoms: C_1  and  C_2
REMARK    2  A    between atoms: C_8  and  C_10
REMARK    3  A    between atoms: C_15  and  N_16
REMARK                            x       y       z     vdW  Elec       q    Type
REMARK                         _______ _______ _______ _____ _____    ______ ____
ROOT
ATOM      1  C   UNL     1       5.627   3.639  12.650  0.00  0.00    +0.000 C 
ATOM      2  C   UNL     1       6.666   4.312  13.510  0.00  0.00    +0.000 C 
ATOM      3  O   UNL     1       7.556   4.982  12.994  0.00  0.00    +0.000 OA
ATOM      4  N   UNL     1       6.540   4.167  14.882  0.00  0.00    +0.000 N 
ATOM      5  C   UNL     1       7.448   4.878  15.789  0.00  0.00    +0.000 C 
ATOM      6  C   UNL     1       6.659   5.717  16.813  0.00  0.00    +0.000 C 
ATOM      7  N   UNL     1       5.619   4.918  17.486  0.00  0.00    +0.000 N 
ATOM      8  C   UNL     1       5.499   4.995  18.884  0.00  0.00    +0.000 C 
ATOM      9  O   UNL     1       6.255   5.709  19.552  0.00  0.00    +0.000 OA
ATOM     10  C   UNL     1       4.735   4.190  16.561  0.00  0.00    +0.000 C 
ATOM     11  C   UNL     1       5.533   3.355  15.559  0.00  0.00    +0.000 C 
ENDROOT
BRANCH   8  12
ATOM     12  C   UNL     1       4.463   4.195  19.623  0.00  0.00    +0.000 A 
ATOM     13  N   UNL     1       4.695   2.861  19.798  0.00  0.00    +0.000 NA
ATOM     14  C   UNL     1       3.764   2.190  20.507  0.00  0.00    +0.000 A 
ATOM     15  C   UNL     1       2.619   2.799  20.982  0.00  0.00    +0.000 A 
ATOM     16  N   UNL     1       2.350   4.105  20.764  0.00  0.00    +0.000 NA
ATOM     17  C   UNL     1       3.278   4.810  20.072  0.00  0.00    +0.000 A 
BRANCH  17  18
ATOM     18  N   UNL     1       3.000   6.169  19.959  0.00  0.00    +0.000 N 
ATOM     19  H   UNL     1       1.994   6.298  19.907  0.00  0.00    +0.000 HD
ATOM     20  H   UNL     1       3.515   6.593  19.186  0.00  0.00    +0.000 HD
ENDBRANCH  17  18
ENDBRANCH   8  12
TORSDOF 2
ENDMDL
MODEL 4
REMARK VINA RESULT:      -6.6      2.526      6.079
REMARK  Name = 
REMARK  3 active torsions:
REMARK  status: ('A' for Active; 'I' for Inactive)
REMARK    1  A    between atoms: C_1  and  C_2
REMARK    2  A    between atoms: C_8  and  C_10
REMARK    3  A    between atoms: C_15  and  N_16
REMARK                            x       y       z     vdW  Elec       q    Type
REMARK                         _______ _______ _______ _____ _____    ______ ____
ROOT
ATOM      1  C   UNL     1       0.958   4.060  20.374  0.00  0.00    +0.000 C 
ATOM      2  C   UNL     1       1.708   3.147  19.437  0.00  0.00    +0.000 C 
ATOM      3  O   UNL     1       1.160   2.152  18.972  0.00  0.00    +0.000 OA
ATOM      4  N   UNL     1       3.006   3.507  19.111  0.00  0.00    +0.000 N 
ATOM      5  C   UNL     1       3.764   2.730  18.123  0.00  0.00    +0.000 C 
ATOM      6  C   UNL     1       4.294   3.637  16.996  0.00  0.00    +0.000 C 
ATOM      7  N   UNL     1       5.005   4.812  17.533  0.00  0.00    +0.000 N 
ATOM      8  C   UNL     1       6.253   5.159  16.988  0.00  0.00    +0.000 C 
ATOM      9  O   UNL     1       6.763   4.493  16.080  0.00  0.00    +0.000 OA
ATOM     10  C   UNL     1       4.241   5.563  18.541  0.00  0.00    +0.000 C 
ATOM     11  C   UNL     1       3.731   4.651  19.657  0.00  0.00    +0.000 C 
ENDROOT
BRANCH   8  12
ATOM     12  C   UNL     1       7.027   6.341  17.502  0.00  0.00    +0.000 A 
ATOM     13  N   UNL     1       6.933   7.514  16.808  0.00  0.00    +0.000 NA
ATOM     14  C   UNL     1       7.606   8.561  17.328  0.00  0.00    +0.000 A 
ATOM     15  C   UNL     1       8.385   8.446  18.462  0.00  0.00    +0.000 A 
ATOM     16  N   UNL     1       8.534   7.277  19.124  0.00  0.00    +0.000 NA
ATOM     17  C   UNL     1       7.853   6.211  18.635  0.00  0.00    +0.000 A 
BRANCH  17  18
ATOM     18  N   UNL     1       7.962   5.058  19.407  0.00  0.00    +0.000 N 
ATOM     19  H   UNL     1       7.686   4.257  18.846  0.00  0.00    +0.000 HD
ATOM     20  H   UNL     1       7.451   5.147  20.286  0.00  0.00    +0.000 HD
ENDBRANCH  17  18
ENDBRANCH   8  12
TORSDOF 2
ENDMDL
MODEL 5
REMARK VINA RESULT:      -6.4      1.877      6.178
REMARK  Name = 
REMARK  3 active torsions:
REMARK  status: ('A' for Active; 'I' for Inactive)
REMARK    1  A    between atoms: C_1  and  C_2
REMARK    2  A    between atoms: C_8  and  C_10
REMARK    3  A    between atoms: C_15  and  N_16
REMARK                            x       y       z     vdW  Elec       q    Type
REMARK                         _______ _______ _______ _____ _____    ______ ____
ROOT
ATOM      1  C   UNL     1       0.231   2.498  18.966  0.00  0.00    +0.000 C 
ATOM      2  C   UNL     1       1.236   3.169  19.868  0.00  0.00    +0.000 C 
ATOM      3  O   UNL     1       1.093   3.132  21.087  0.00  0.00    +0.000 OA
ATOM      4  N   UNL     1       2.320   3.781  19.261  0.00  0.00    +0.000 N 
ATOM      5  C   UNL     1       3.394   4.361  20.074  0.00  0.00    +0.000 C 
ATOM      6  C   UNL     1       4.765   3.787  19.668  0.00  0.00    +0.000 C 
ATOM      7  N   UNL     1       4.981   3.871  18.212  0.00  0.00    +0.000 N 
ATOM      8  C   UNL     1       6.207   4.365  17.733  0.00  0.00    +0.000 C 
ATOM      9  O   UNL     1       7.094   4.737  18.510  0.00  0.00    +0.000 OA
ATOM     10  C   UNL     1       3.882   3.309  17.413  0.00  0.00    +0.000 C 
ATOM     11  C   UNL     1       2.530   3.896  17.820  0.00  0.00    +0.000 C 
ENDROOT
BRANCH   8  12
ATOM     12  C   UNL     1       6.479   4.482  16.260  0.00  0.00    +0.000 A 
ATOM     13  N   UNL     1       6.023   3.483  15.448  0.00  0.00    +0.000 NA
ATOM     14  C   UNL     1       6.247   3.649  14.128  0.00  0.00    +0.000 A 
ATOM     15  C   UNL     1       6.941   4.734  13.629  0.00  0.00    +0.000 A 
ATOM     16  N   UNL     1       7.448   5.699  14.428  0.00  0.00    +0.000 NA
ATOM     17  C   UNL     1       7.221   5.568  15.758  0.00  0.00    +0.000 A 
BRANCH  17  18
ATOM     18  N   UNL     1       7.679   6.636  16.525  0.00  0.00    +0.000 N 
ATOM     19  H   UNL     1       8.138   7.308  15.918  0.00  0.00    +0.000 HD
ATOM     20  H   UNL     1       8.258   6.315  17.303  0.00  0.00    +0.000 HD
ENDBRANCH  17  18
ENDBRANCH   8  12
TORSDOF 2
ENDMDL
MODEL 6
REMARK VINA RESULT:      -6.3      2.027      2.756
REMARK  Name = 
REMARK  3 active torsions:
REMARK  status: ('A' for Active; 'I' for Inactive)
REMARK    1  A    between atoms: C_1  and  C_2
REMARK    2  A    between atoms: C_8  and  C_10
REMARK    3  A    between atoms: C_15  and  N_16
REMARK                            x       y       z     vdW  Elec       q    Type
REMARK                         _______ _______ _______ _____ _____    ______ ____
ROOT
ATOM      1  C   UNL     1       7.832   7.577  17.822  0.00  0.00    +0.000 C 
ATOM      2  C   UNL     1       7.286   6.672  16.746  0.00  0.00    +0.000 C 
ATOM      3  O   UNL     1       7.869   6.570  15.671  0.00  0.00    +0.000 OA
ATOM      4  N   UNL     1       6.140   5.955  17.046  0.00  0.00    +0.000 N 
ATOM      5  C   UNL     1       5.609   4.974  16.091  0.00  0.00    +0.000 C 
ATOM      6  C   UNL     1       5.442   3.594  16.754  0.00  0.00    +0.000 C 
ATOM      7  N   UNL     1       4.694   3.686  18.022  0.00  0.00    +0.000 N 
ATOM      8  C   UNL     1       3.650   2.777  18.265  0.00  0.00    +0.000 C 
ATOM      9  O   UNL     1       3.346   1.916  17.432  0.00  0.00    +0.000 OA
ATOM     10  C   UNL     1       5.224   4.692  18.955  0.00  0.00    +0.000 C 
ATOM     11  C   UNL     1       5.375   6.059  18.285  0.00  0.00    +0.000 C 
ENDROOT
BRANCH   8  12
ATOM     12  C   UNL     1       2.849   2.830  19.535  0.00  0.00    +0.000 A 
ATOM     13  N   UNL     1       1.586   3.345  19.470  0.00  0.00    +0.000 NA
ATOM     14  C   UNL     1       0.884   3.332  20.622  0.00  0.00    +0.000 A 
ATOM     15  C   UNL     1       1.424   2.875  21.808  0.00  0.00    +0.000 A 
ATOM     16  N   UNL     1       2.693   2.418  21.898  0.00  0.00    +0.000 NA
ATOM     17  C   UNL     1       3.415   2.401  20.751  0.00  0.00    +0.000 A 
BRANCH  17  18
ATOM     18  N   UNL     1       4.679   1.832  20.878  0.00  0.00    +0.000 N 
ATOM     19  H   UNL     1       5.103   2.155  21.743  0.00  0.00    +0.000 HD
ATOM     20  H   UNL     1       5.249   1.998  20.047  0.00  0.00    +0.000 HD
ENDBRANCH  17  18
ENDBRANCH   8  12
TORSDOF 2
ENDMDL
MODEL 7
REMARK VINA RESULT:      -6.3      1.981      6.211
REMARK  Name = 
REMARK  3 active torsions:
REMARK  status: ('A' for Active; 'I' for Inactive)
REMARK    1  A    between atoms: C_1  and  C_2
REMARK    2  A    between atoms: C_8  and  C_10
REMARK    3  A    between atoms: C_15  and  N_16
REMARK                            x       y       z     vdW  Elec       q    Type
REMARK                         _______ _______ _______ _____ _____    ______ ____
ROOT
ATOM      1  C   UNL     1       3.283   1.574  21.611  0.00  0.00    +0.000 C 
ATOM      2  C   UNL     1       2.609   2.894  21.334  0.00  0.00    +0.000 C 
ATOM      3  O   UNL     1       1.880   3.405  22.180  0.00  0.00    +0.000 OA
ATOM      4  N   UNL     1       2.881   3.500  20.118  0.00  0.00    +0.000 N 
ATOM      5  C   UNL     1       2.348   4.834  19.820  0.00  0.00    +0.000 C 
ATOM      6  C   UNL     1       3.478   5.801  19.418  0.00  0.00    +0.000 C 
ATOM      7  N   UNL     1       4.334   5.230  18.362  0.00  0.00    +0.000 N 
ATOM      8  C   UNL     1       4.667   6.023  17.251  0.00  0.00    +0.000 C 
ATOM      9  O   UNL     1       4.246   7.181  17.143  0.00  0.00    +0.000 OA
ATOM     10  C   UNL     1       4.836   3.881  18.666  0.00  0.00    +0.000 C 
ATOM     11  C   UNL     1       3.702   2.931  19.053  0.00  0.00    +0.000 C 
ENDROOT
BRANCH   8  12
ATOM     12  C   UNL     1       5.528   5.490  16.140  0.00  0.00    +0.000 A 
ATOM     13  N   UNL     1       4.969   4.590  15.279  0.00  0.00    +0.000 NA
ATOM     14  C   UNL     1       5.761   4.171  14.270  0.00  0.00    +0.000 A 
ATOM     15  C   UNL     1       7.072   4.584  14.143  0.00  0.00    +0.000 A 
ATOM     16  N   UNL     1       7.654   5.429  15.023  0.00  0.00    +0.000 NA
ATOM     17  C   UNL     1       6.877   5.882  16.036  0.00  0.00    +0.000 A 
BRANCH  17  18
ATOM     18  N   UNL     1       7.493   6.822  16.857  0.00  0.00    +0.000 N 
ATOM     19  H   UNL     1       7.057   6.798  17.773  0.00  0.00    +0.000 HD
ATOM     20  H   UNL     1       7.502   7.747  16.423  0.00  0.00    +0.000 HD
ENDBRANCH  17  18
ENDBRANCH   8  12
TORSDOF 2
ENDMDL
MODEL 8
REMARK VINA RESULT:      -6.2      1.118      1.152
REMARK  Name = 
REMARK  3 active torsions:
REMARK  status: ('A' for Active; 'I' for Inactive)
REMARK    1  A    between atoms: C_1  and  C_2
REMARK    2  A    between atoms: C_8  and  C_10
REMARK    3  A    between atoms: C_15  and  N_16
REMARK                            x       y       z     vdW  Elec       q    Type
REMARK                         _______ _______ _______ _____ _____    ______ ____
ROOT
ATOM      1  C   UNL     1       4.894   3.614  12.762  0.00  0.00    +0.000 C 
ATOM      2  C   UNL     1       6.098   3.973  13.596  0.00  0.00    +0.000 C 
ATOM      3  O   UNL     1       7.127   4.368  13.056  0.00  0.00    +0.000 OA
ATOM      4  N   UNL     1       5.967   3.871  14.971  0.00  0.00    +0.000 N 
ATOM      5  C   UNL     1       7.057   4.304  15.853  0.00  0.00    +0.000 C 
ATOM      6  C   UNL     1       6.555   5.331  16.886  0.00  0.00    +0.000 C 
ATOM      7  N   UNL     1       5.349   4.852  17.587  0.00  0.00    +0.000 N 
ATOM      8  C   UNL     1       5.287   4.962  18.987  0.00  0.00    +0.000 C 
ATOM      9  O   UNL     1       6.226   5.440  19.634  0.00  0.00    +0.000 OA
ATOM     10  C   UNL     1       4.278   4.397  16.688  0.00  0.00    +0.000 C 
ATOM     11  C   UNL     1       4.789   3.372  15.675  0.00  0.00    +0.000 C 
ENDROOT
BRANCH   8  12
ATOM     12  C   UNL     1       4.087   4.483  19.754  0.00  0.00    +0.000 A 
ATOM     13  N   UNL     1       3.229   5.425  20.248  0.00  0.00    +0.000 NA
ATOM     14  C   UNL     1       2.141   4.952  20.890  0.00  0.00    +0.000 A 
ATOM     15  C   UNL     1       1.930   3.601  21.085  0.00  0.00    +0.000 A 
ATOM     16  N   UNL     1       2.801   2.662  20.653  0.00  0.00    +0.000 NA
ATOM     17  C   UNL     1       3.894   3.107  19.987  0.00  0.00    +0.000 A 
BRANCH  17  18
ATOM     18  N   UNL     1       4.708   2.098  19.479  0.00  0.00    +0.000 N 
ATOM     19  H   UNL     1       4.187   1.226  19.471  0.00  0.00    +0.000 HD
ATOM     20  H   UNL     1       5.596   2.048  19.980  0.00  0.00    +0.000 HD
ENDBRANCH  17  18
ENDBRANCH   8  12
TORSDOF 2
ENDMDL
MODEL 9
REMARK VINA RESULT:      -6.2      1.190      1.889
REMARK  Name = 
REMARK  3 active torsions:
REMARK  status: ('A' for Active; 'I' for Inactive)
REMARK    1  A    between atoms: C_1  and  C_2
REMARK    2  A    between atoms: C_8  and  C_10
REMARK    3  A    between atoms: C_15  and  N_16
REMARK                            x       y       z     vdW  Elec       q    Type
REMARK                         _______ _______ _______ _____ _____    ______ ____
ROOT
ATOM      1  C   UNL     1       7.106   4.388  12.262  0.00  0.00    +0.000 C 
ATOM      2  C   UNL     1       7.646   5.061  13.499  0.00  0.00    +0.000 C 
ATOM      3  O   UNL     1       8.537   5.901  13.406  0.00  0.00    +0.000 OA
ATOM      4  N   UNL     1       7.069   4.715  14.709  0.00  0.00    +0.000 N 
ATOM      5  C   UNL     1       7.465   5.403  15.943  0.00  0.00    +0.000 C 
ATOM      6  C   UNL     1       6.237   5.990  16.666  0.00  0.00    +0.000 C 
ATOM      7  N   UNL     1       5.174   4.982  16.838  0.00  0.00    +0.000 N 
ATOM      8  C   UNL     1       4.556   4.851  18.093  0.00  0.00    +0.000 C 
ATOM      9  O   UNL     1       4.896   5.557  19.050  0.00  0.00    +0.000 OA
ATOM     10  C   UNL     1       4.809   4.283  15.596  0.00  0.00    +0.000 C 
ATOM     11  C   UNL     1       6.036   3.699  14.896  0.00  0.00    +0.000 C 
ENDROOT
BRANCH   8  12
ATOM     12  C   UNL     1       3.474   3.835  18.328  0.00  0.00    +0.000 A 
ATOM     13  N   UNL     1       3.852   2.578  18.702  0.00  0.00    +0.000 NA
ATOM     14  C   UNL     1       2.849   1.710  18.948  0.00  0.00    +0.000 A 
ATOM     15  C   UNL     1       1.522   2.052  18.781  0.00  0.00    +0.000 A 
ATOM     16  N   UNL     1       1.137   3.275  18.355  0.00  0.00    +0.000 NA
ATOM     17  C   UNL     1       2.123   4.175  18.119  0.00  0.00    +0.000 A 
BRANCH  17  18
ATOM     18  N   UNL     1       1.670   5.446  17.777  0.00  0.00    +0.000 N 
ATOM     19  H   UNL     1       0.720   5.376  17.426  0.00  0.00    +0.000 HD
ATOM     20  H   UNL     1       2.317   5.913  17.138  0.00  0.00    +0.000 HD
ENDBRANCH  17  18
ENDBRANCH   8  12
TORSDOF 2
ENDMDL
