MODEL 1
REMARK VINA RESULT:      -8.2      0.000      0.000
REMARK  Name = 
REMARK  2 active torsions:
REMARK  status: ('A' for Active; 'I' for Inactive)
REMARK    1  A    between atoms: C_1  and  C_2
REMARK    2  A    between atoms: C_6  and  C_7
REMARK                            x       y       z     vdW  Elec       q    Type
REMARK                         _______ _______ _______ _____ _____    ______ ____
ROOT
ATOM      1  C   UNL     1       2.511   6.308  19.700  0.00  0.00    +0.000 C 
ATOM      2  O   UNL     1       1.927   5.551  20.477  0.00  0.00    +0.000 OA
ATOM      3  N   UNL     1       3.692   5.936  19.046  0.00  0.00    +0.000 N 
ATOM      4  C   UNL     1       4.278   4.628  19.347  0.00  0.00    +0.000 C 
ATOM      5  C   UNL     1       5.764   4.546  18.974  0.00  0.00    +0.000 C 
ATOM      6  C   UNL     1       5.928   4.871  17.513  0.00  0.00    +0.000 A 
ATOM      7  C   UNL     1       6.897   4.252  16.715  0.00  0.00    +0.000 A 
ATOM      8  C   UNL     1       6.991   4.571  15.360  0.00  0.00    +0.000 A 
ATOM      9  C   UNL     1       6.135   5.516  14.797  0.00  0.00    +0.000 A 
ATOM     10  C   UNL     1       5.192   6.161  15.596  0.00  0.00    +0.000 A 
ATOM     11  C   UNL     1       5.087   5.845  16.955  0.00  0.00    +0.000 A 
ATOM     12  C   UNL     1       4.144   6.624  17.832  0.00  0.00    +0.000 C 
ENDROOT
BRANCH   1  18
ATOM     13  C   UNL     1      -0.959  11.528  22.554  0.00  0.00    +0.000 C 
ATOM     14  C   UNL     1      -0.422  10.337  21.764  0.00  0.00    +0.000 C 
ATOM     15  C   UNL     1       0.684   9.596  22.545  0.00  0.00    +0.000 C 
ATOM     16  C   UNL     1       1.122   8.310  21.818  0.00  0.00    +0.000 C 
ATOM     17  C   UNL     1       1.336   8.543  20.348  0.00  0.00    +0.000 A 
ATOM     18  C   UNL     1       1.973   7.647  19.411  0.00  0.00    +0.000 A 
ATOM     19  C   UNL     1       2.063   8.249  18.165  0.00  0.00    +0.000 A 
ATOM     20  S   UNL     1       1.245   9.743  18.071  0.00  0.00    +0.000 S 
ATOM     21  C   UNL     1       0.858   9.681  19.722  0.00  0.00    +0.000 A 
ATOM     22  C   UNL     1       0.109  10.795  20.390  0.00  0.00    +0.000 C 
ENDBRANCH   1  18
TORSDOF 1
ENDMDL
MODEL 2
REMARK VINA RESULT:      -8.1      6.085      8.300
REMARK  Name = 
REMARK  2 active torsions:
REMARK  status: ('A' for Active; 'I' for Inactive)
REMARK    1  A    between atoms: C_1  and  C_2
REMARK    2  A    between atoms: C_6  and  C_7
REMARK                            x       y       z     vdW  Elec       q    Type
REMARK                         _______ _______ _______ _____ _____    ______ ____
ROOT
ATOM      1  C   UNL     1      -0.814  11.831  22.220  0.00  0.00    +0.000 C 
ATOM      2  O   UNL     1      -0.306  11.077  23.051  0.00  0.00    +0.000 OA
ATOM      3  N   UNL     1      -0.947  11.472  20.873  0.00  0.00    +0.000 N 
ATOM      4  C   UNL     1      -0.409  10.183  20.434  0.00  0.00    +0.000 C 
ATOM      5  C   UNL     1      -0.171  10.126  18.920  0.00  0.00    +0.000 C 
ATOM      6  C   UNL     1      -1.460  10.427  18.203  0.00  0.00    +0.000 A 
ATOM      7  C   UNL     1      -1.802   9.815  16.992  0.00  0.00    +0.000 A 
ATOM      8  C   UNL     1      -3.022  10.111  16.381  0.00  0.00    +0.000 A 
ATOM      9  C   UNL     1      -3.897  11.027  16.962  0.00  0.00    +0.000 A 
ATOM     10  C   UNL     1      -3.545  11.666  18.150  0.00  0.00    +0.000 A 
ATOM     11  C   UNL     1      -2.327  11.373  18.772  0.00  0.00    +0.000 A 
ATOM     12  C   UNL     1      -1.906  12.148  19.992  0.00  0.00    +0.000 C 
ENDROOT
BRANCH   1  18
ATOM     13  C   UNL     1      -6.591  15.165  23.935  0.00  0.00    +0.000 C 
ATOM     14  C   UNL     1      -5.317  14.588  23.323  0.00  0.00    +0.000 C 
ATOM     15  C   UNL     1      -5.032  13.167  23.854  0.00  0.00    +0.000 C 
ATOM     16  C   UNL     1      -3.834  12.525  23.129  0.00  0.00    +0.000 C 
ATOM     17  C   UNL     1      -2.675  13.477  23.012  0.00  0.00    +0.000 A 
ATOM     18  C   UNL     1      -1.323  13.154  22.619  0.00  0.00    +0.000 A 
ATOM     19  C   UNL     1      -0.519  14.279  22.715  0.00  0.00    +0.000 A 
ATOM     20  S   UNL     1      -1.386  15.705  23.071  0.00  0.00    +0.000 S 
ATOM     21  C   UNL     1      -2.834  14.835  23.227  0.00  0.00    +0.000 A 
ATOM     22  C   UNL     1      -4.116  15.515  23.604  0.00  0.00    +0.000 C 
ENDBRANCH   1  18
TORSDOF 1
ENDMDL
MODEL 3
REMARK VINA RESULT:      -7.9      2.084      6.873
REMARK  Name = 
REMARK  2 active torsions:
REMARK  status: ('A' for Active; 'I' for Inactive)
REMARK    1  A    between atoms: C_1  and  C_2
REMARK    2  A    between atoms: C_6  and  C_7
REMARK                            x       y       z     vdW  Elec       q    Type
REMARK                         _______ _______ _______ _____ _____    ______ ____
ROOT
ATOM      1  C   UNL     1       2.245   5.522  20.385  0.00  0.00    +0.000 C 
ATOM      2  O   UNL     1       2.444   5.067  21.513  0.00  0.00    +0.000 OA
ATOM      3  N   UNL     1       1.696   6.794  20.183  0.00  0.00    +0.000 N 
ATOM      4  C   UNL     1       1.292   7.578  21.352  0.00  0.00    +0.000 C 
ATOM      5  C   UNL     1       0.287   8.683  21.004  0.00  0.00    +0.000 C 
ATOM      6  C   UNL     1       0.880   9.580  19.950  0.00  0.00    +0.000 A 
ATOM      7  C   UNL     1       0.629  10.956  19.913  0.00  0.00    +0.000 A 
ATOM      8  C   UNL     1       1.224  11.747  18.930  0.00  0.00    +0.000 A 
ATOM      9  C   UNL     1       2.056  11.173  17.971  0.00  0.00    +0.000 A 
ATOM     10  C   UNL     1       2.282   9.797  17.983  0.00  0.00    +0.000 A 
ATOM     11  C   UNL     1       1.694   8.996  18.968  0.00  0.00    +0.000 A 
ATOM     12  C   UNL     1       1.852   7.500  18.907  0.00  0.00    +0.000 C 
ENDROOT
BRANCH   1  18
ATOM     13  C   UNL     1       7.166   4.732  15.632  0.00  0.00    +0.000 C 
ATOM     14  C   UNL     1       5.921   5.006  16.471  0.00  0.00    +0.000 C 
ATOM     15  C   UNL     1       6.277   5.206  17.960  0.00  0.00    +0.000 C 
ATOM     16  C   UNL     1       5.046   5.630  18.782  0.00  0.00    +0.000 C 
ATOM     17  C   UNL     1       3.840   4.793  18.455  0.00  0.00    +0.000 A 
ATOM     18  C   UNL     1       2.596   4.740  19.188  0.00  0.00    +0.000 A 
ATOM     19  C   UNL     1       1.757   3.787  18.631  0.00  0.00    +0.000 A 
ATOM     20  S   UNL     1       2.353   3.124  17.176  0.00  0.00    +0.000 S 
ATOM     21  C   UNL     1       3.798   4.001  17.321  0.00  0.00    +0.000 A 
ATOM     22  C   UNL     1       4.901   3.859  16.315  0.00  0.00    +0.000 C 
ENDBRANCH   1  18
TORSDOF 1
ENDMDL
MODEL 4
REMARK VINA RESULT:      -7.9      4.033      5.593
REMARK  Name = 
REMARK  2 active torsions:
REMARK  status: ('A' for Active; 'I' for Inactive)
REMARK    1  A    between atoms: C_1  and  C_2
REMARK    2  A    between atoms: C_6  and  C_7
REMARK                            x       y       z     vdW  Elec       q    Type
REMARK                         _______ _______ _______ _____ _____    ______ ____
ROOT
ATOM      1  C   UNL     1       6.223   5.563  17.066  0.00  0.00    +0.000 C 
ATOM      2  O   UNL     1       7.167   5.608  17.856  0.00  0.00    +0.000 OA
ATOM      3  N   UNL     1       6.406   5.308  15.701  0.00  0.00    +0.000 N 
ATOM      4  C   UNL     1       7.771   5.150  15.194  0.00  0.00    +0.000 C 
ATOM      5  C   UNL     1       7.868   5.370  13.680  0.00  0.00    +0.000 C 
ATOM      6  C   UNL     1       6.935   4.419  12.978  0.00  0.00    +0.000 A 
ATOM      7  C   UNL     1       7.242   3.853  11.736  0.00  0.00    +0.000 A 
ATOM      8  C   UNL     1       6.353   2.956  11.141  0.00  0.00    +0.000 A 
ATOM      9  C   UNL     1       5.152   2.633  11.768  0.00  0.00    +0.000 A 
ATOM     10  C   UNL     1       4.826   3.221  12.990  0.00  0.00    +0.000 A 
ATOM     11  C   UNL     1       5.712   4.118  13.597  0.00  0.00    +0.000 A 
ATOM     12  C   UNL     1       5.304   4.833  14.857  0.00  0.00    +0.000 C 
ENDROOT
BRANCH   1  18
ATOM     13  C   UNL     1       0.549   2.144  18.953  0.00  0.00    +0.000 C 
ATOM     14  C   UNL     1       1.653   2.982  18.313  0.00  0.00    +0.000 C 
ATOM     15  C   UNL     1       3.052   2.514  18.767  0.00  0.00    +0.000 C 
ATOM     16  C   UNL     1       4.168   3.257  18.009  0.00  0.00    +0.000 C 
ATOM     17  C   UNL     1       3.911   4.738  17.944  0.00  0.00    +0.000 A 
ATOM     18  C   UNL     1       4.842   5.763  17.535  0.00  0.00    +0.000 A 
ATOM     19  C   UNL     1       4.267   7.016  17.692  0.00  0.00    +0.000 A 
ATOM     20  S   UNL     1       2.618   6.958  18.123  0.00  0.00    +0.000 S 
ATOM     21  C   UNL     1       2.663   5.265  18.231  0.00  0.00    +0.000 A 
ATOM     22  C   UNL     1       1.456   4.477  18.643  0.00  0.00    +0.000 C 
ENDBRANCH   1  18
TORSDOF 1
ENDMDL
MODEL 5
REMARK VINA RESULT:      -7.8      2.092      7.853
REMARK  Name = 
REMARK  2 active torsions:
REMARK  status: ('A' for Active; 'I' for Inactive)
REMARK    1  A    between atoms: C_1  and  C_2
REMARK    2  A    between atoms: C_6  and  C_7
REMARK                            x       y       z     vdW  Elec       q    Type
REMARK                         _______ _______ _______ _____ _____    ______ ____
ROOT
ATOM      1  C   UNL     1       2.049   8.303  18.220  0.00  0.00    +0.000 C 
ATOM      2  O   UNL     1       1.888   8.470  17.011  0.00  0.00    +0.000 OA
ATOM      3  N   UNL     1       1.611   9.239  19.165  0.00  0.00    +0.000 N 
ATOM      4  C   UNL     1       0.998  10.481  18.691  0.00  0.00    +0.000 C 
ATOM      5  C   UNL     1       1.022  11.594  19.746  0.00  0.00    +0.000 C 
ATOM      6  C   UNL     1       0.330  11.110  20.993  0.00  0.00    +0.000 A 
ATOM      7  C   UNL     1      -0.427  11.962  21.805  0.00  0.00    +0.000 A 
ATOM      8  C   UNL     1      -1.069  11.458  22.936  0.00  0.00    +0.000 A 
ATOM      9  C   UNL     1      -0.949  10.112  23.274  0.00  0.00    +0.000 A 
ATOM     10  C   UNL     1      -0.167   9.266  22.488  0.00  0.00    +0.000 A 
ATOM     11  C   UNL     1       0.477   9.761  21.349  0.00  0.00    +0.000 A 
ATOM     12  C   UNL     1       1.407   8.869  20.570  0.00  0.00    +0.000 C 
ENDROOT
BRANCH   1  18
ATOM     13  C   UNL     1       7.670   4.399  17.443  0.00  0.00    +0.000 C 
ATOM     14  C   UNL     1       6.287   5.043  17.507  0.00  0.00    +0.000 C 
ATOM     15  C   UNL     1       6.382   6.583  17.505  0.00  0.00    +0.000 C 
ATOM     16  C   UNL     1       4.988   7.234  17.418  0.00  0.00    +0.000 C 
ATOM     17  C   UNL     1       4.011   6.592  18.364  0.00  0.00    +0.000 A 
ATOM     18  C   UNL     1       2.704   7.086  18.729  0.00  0.00    +0.000 A 
ATOM     19  C   UNL     1       2.138   6.266  19.694  0.00  0.00    +0.000 A 
ATOM     20  S   UNL     1       3.048   4.857  20.006  0.00  0.00    +0.000 S 
ATOM     21  C   UNL     1       4.277   5.368  18.954  0.00  0.00    +0.000 A 
ATOM     22  C   UNL     1       5.522   4.556  18.756  0.00  0.00    +0.000 C 
ENDBRANCH   1  18
TORSDOF 1
ENDMDL
MODEL 6
REMARK VINA RESULT:      -7.6      5.135     10.434
REMARK  Name = 
REMARK  2 active torsions:
REMARK  status: ('A' for Active; 'I' for Inactive)
REMARK    1  A    between atoms: C_1  and  C_2
REMARK    2  A    between atoms: C_6  and  C_7
REMARK                            x       y       z     vdW  Elec       q    Type
REMARK                         _______ _______ _______ _____ _____    ______ ____
ROOT
ATOM      1  C   UNL     1      -1.081  13.462  22.585  0.00  0.00    +0.000 C 
ATOM      2  O   UNL     1      -0.398  14.306  23.166  0.00  0.00    +0.000 OA
ATOM      3  N   UNL     1      -2.402  13.187  22.961  0.00  0.00    +0.000 N 
ATOM      4  C   UNL     1      -2.961  13.886  24.120  0.00  0.00    +0.000 C 
ATOM      5  C   UNL     1      -4.179  13.166  24.713  0.00  0.00    +0.000 C 
ATOM      6  C   UNL     1      -5.227  13.000  23.645  0.00  0.00    +0.000 A 
ATOM      7  C   UNL     1      -6.596  13.065  23.926  0.00  0.00    +0.000 A 
ATOM      8  C   UNL     1      -7.527  12.929  22.896  0.00  0.00    +0.000 A 
ATOM      9  C   UNL     1      -7.101  12.713  21.586  0.00  0.00    +0.000 A 
ATOM     10  C   UNL     1      -5.739  12.612  21.306  0.00  0.00    +0.000 A 
ATOM     11  C   UNL     1      -4.798  12.751  22.333  0.00  0.00    +0.000 A 
ATOM     12  C   UNL     1      -3.338  12.530  22.042  0.00  0.00    +0.000 C 
ENDROOT
BRANCH   1  18
ATOM     13  C   UNL     1       1.410   7.290  20.814  0.00  0.00    +0.000 C 
ATOM     14  C   UNL     1       1.122   8.748  21.165  0.00  0.00    +0.000 C 
ATOM     15  C   UNL     1      -0.117   8.874  22.077  0.00  0.00    +0.000 C 
ATOM     16  C   UNL     1      -0.321  10.324  22.553  0.00  0.00    +0.000 C 
ATOM     17  C   UNL     1      -0.176  11.309  21.426  0.00  0.00    +0.000 A 
ATOM     18  C   UNL     1      -0.534  12.708  21.445  0.00  0.00    +0.000 A 
ATOM     19  C   UNL     1      -0.335  13.266  20.191  0.00  0.00    +0.000 A 
ATOM     20  S   UNL     1       0.431  12.210  19.091  0.00  0.00    +0.000 S 
ATOM     21  C   UNL     1       0.404  10.946  20.222  0.00  0.00    +0.000 A 
ATOM     22  C   UNL     1       0.929   9.584  19.883  0.00  0.00    +0.000 C 
ENDBRANCH   1  18
TORSDOF 1
ENDMDL
MODEL 7
REMARK VINA RESULT:      -7.5      2.616      7.149
REMARK  Name = 
REMARK  2 active torsions:
REMARK  status: ('A' for Active; 'I' for Inactive)
REMARK    1  A    between atoms: C_1  and  C_2
REMARK    2  A    between atoms: C_6  and  C_7
REMARK                            x       y       z     vdW  Elec       q    Type
REMARK                         _______ _______ _______ _____ _____    ______ ____
ROOT
ATOM      1  C   UNL     1       2.344   7.921  18.099  0.00  0.00    +0.000 C 
ATOM      2  O   UNL     1       2.146   8.066  16.892  0.00  0.00    +0.000 OA
ATOM      3  N   UNL     1       1.877   8.842  19.045  0.00  0.00    +0.000 N 
ATOM      4  C   UNL     1       1.185  10.043  18.573  0.00  0.00    +0.000 C 
ATOM      5  C   UNL     1       1.171  11.167  19.617  0.00  0.00    +0.000 C 
ATOM      6  C   UNL     1       0.535  10.659  20.884  0.00  0.00    +0.000 A 
ATOM      7  C   UNL     1      -0.250  11.477  21.705  0.00  0.00    +0.000 A 
ATOM      8  C   UNL     1      -0.837  10.951  22.856  0.00  0.00    +0.000 A 
ATOM      9  C   UNL     1      -0.634   9.617  23.204  0.00  0.00    +0.000 A 
ATOM     10  C   UNL     1       0.175   8.807  22.408  0.00  0.00    +0.000 A 
ATOM     11  C   UNL     1       0.765   9.324  21.250  0.00  0.00    +0.000 A 
ATOM     12  C   UNL     1       1.725   8.477  20.458  0.00  0.00    +0.000 C 
ENDROOT
BRANCH   1  18
ATOM     13  C   UNL     1       1.590   2.247  21.929  0.00  0.00    +0.000 C 
ATOM     14  C   UNL     1       1.923   3.593  21.291  0.00  0.00    +0.000 C 
ATOM     15  C   UNL     1       0.834   4.025  20.287  0.00  0.00    +0.000 C 
ATOM     16  C   UNL     1       1.091   5.447  19.754  0.00  0.00    +0.000 C 
ATOM     17  C   UNL     1       2.528   5.646  19.358  0.00  0.00    +0.000 A 
ATOM     18  C   UNL     1       3.077   6.748  18.604  0.00  0.00    +0.000 A 
ATOM     19  C   UNL     1       4.426   6.534  18.362  0.00  0.00    +0.000 A 
ATOM     20  S   UNL     1       5.052   5.169  19.171  0.00  0.00    +0.000 S 
ATOM     21  C   UNL     1       3.515   4.762  19.762  0.00  0.00    +0.000 A 
ATOM     22  C   UNL     1       3.299   3.534  20.594  0.00  0.00    +0.000 C 
ENDBRANCH   1  18
TORSDOF 1
ENDMDL
MODEL 8
REMARK VINA RESULT:      -7.5      2.195      3.681
REMARK  Name = 
REMARK  2 active torsions:
REMARK  status: ('A' for Active; 'I' for Inactive)
REMARK    1  A    between atoms: C_1  and  C_2
REMARK    2  A    between atoms: C_6  and  C_7
REMARK                            x       y       z     vdW  Elec       q    Type
REMARK                         _______ _______ _______ _____ _____    ______ ____
ROOT
ATOM      1  C   UNL     1       2.894   7.778  17.992  0.00  0.00    +0.000 C 
ATOM      2  O   UNL     1       3.965   8.242  17.597  0.00  0.00    +0.000 OA
ATOM      3  N   UNL     1       2.679   6.399  18.109  0.00  0.00    +0.000 N 
ATOM      4  C   UNL     1       3.744   5.485  17.690  0.00  0.00    +0.000 C 
ATOM      5  C   UNL     1       3.229   4.070  17.401  0.00  0.00    +0.000 C 
ATOM      6  C   UNL     1       2.531   3.536  18.623  0.00  0.00    +0.000 A 
ATOM      7  C   UNL     1       2.578   2.184  18.979  0.00  0.00    +0.000 A 
ATOM      8  C   UNL     1       1.935   1.745  20.137  0.00  0.00    +0.000 A 
ATOM      9  C   UNL     1       1.229   2.643  20.935  0.00  0.00    +0.000 A 
ATOM     10  C   UNL     1       1.149   3.985  20.566  0.00  0.00    +0.000 A 
ATOM     11  C   UNL     1       1.795   4.436  19.409  0.00  0.00    +0.000 A 
ATOM     12  C   UNL     1       1.611   5.861  18.958  0.00  0.00    +0.000 C 
ENDROOT
BRANCH   1  18
ATOM     13  C   UNL     1      -0.751   9.916  23.431  0.00  0.00    +0.000 C 
ATOM     14  C   UNL     1      -0.184   9.317  22.146  0.00  0.00    +0.000 C 
ATOM     15  C   UNL     1       1.348   9.150  22.232  0.00  0.00    +0.000 C 
ATOM     16  C   UNL     1       1.904   8.410  21.000  0.00  0.00    +0.000 C 
ATOM     17  C   UNL     1       1.326   8.945  19.718  0.00  0.00    +0.000 A 
ATOM     18  C   UNL     1       1.786   8.668  18.378  0.00  0.00    +0.000 A 
ATOM     19  C   UNL     1       1.058   9.413  17.462  0.00  0.00    +0.000 A 
ATOM     20  S   UNL     1      -0.250  10.257  18.161  0.00  0.00    +0.000 S 
ATOM     21  C   UNL     1       0.199   9.748  19.716  0.00  0.00    +0.000 A 
ATOM     22  C   UNL     1      -0.559  10.191  20.931  0.00  0.00    +0.000 C 
ENDBRANCH   1  18
TORSDOF 1
ENDMDL
MODEL 9
REMARK VINA RESULT:      -7.5      2.971      4.829
REMARK  Name = 
REMARK  2 active torsions:
REMARK  status: ('A' for Active; 'I' for Inactive)
REMARK    1  A    between atoms: C_1  and  C_2
REMARK    2  A    between atoms: C_6  and  C_7
REMARK                            x       y       z     vdW  Elec       q    Type
REMARK                         _______ _______ _______ _____ _____    ______ ____
ROOT
ATOM      1  C   UNL     1       1.798  10.214  18.364  0.00  0.00    +0.000 C 
ATOM      2  O   UNL     1       2.597  10.962  17.799  0.00  0.00    +0.000 OA
ATOM      3  N   UNL     1       1.981   8.826  18.409  0.00  0.00    +0.000 N 
ATOM      4  C   UNL     1       3.129   8.247  17.708  0.00  0.00    +0.000 C 
ATOM      5  C   UNL     1       2.951   6.752  17.415  0.00  0.00    +0.000 C 
ATOM      6  C   UNL     1       2.700   6.020  18.706  0.00  0.00    +0.000 A 
ATOM      7  C   UNL     1       3.175   4.723  18.933  0.00  0.00    +0.000 A 
ATOM      8  C   UNL     1       2.937   4.098  20.158  0.00  0.00    +0.000 A 
ATOM      9  C   UNL     1       2.213   4.751  21.154  0.00  0.00    +0.000 A 
ATOM     10  C   UNL     1       1.708   6.029  20.920  0.00  0.00    +0.000 A 
ATOM     11  C   UNL     1       1.945   6.666  19.697  0.00  0.00    +0.000 A 
ATOM     12  C   UNL     1       1.303   7.997  19.411  0.00  0.00    +0.000 C 
ENDROOT
BRANCH   1  18
ATOM     13  C   UNL     1      -4.969  11.200  17.544  0.00  0.00    +0.000 C 
ATOM     14  C   UNL     1      -3.453  11.263  17.712  0.00  0.00    +0.000 C 
ATOM     15  C   UNL     1      -2.783   9.943  17.274  0.00  0.00    +0.000 C 
ATOM     16  C   UNL     1      -1.247  10.056  17.300  0.00  0.00    +0.000 C 
ATOM     17  C   UNL     1      -0.755  10.708  18.562  0.00  0.00    +0.000 A 
ATOM     18  C   UNL     1       0.608  10.760  19.038  0.00  0.00    +0.000 A 
ATOM     19  C   UNL     1       0.654  11.369  20.283  0.00  0.00    +0.000 A 
ATOM     20  S   UNL     1      -0.843  12.026  20.773  0.00  0.00    +0.000 S 
ATOM     21  C   UNL     1      -1.613  11.407  19.394  0.00  0.00    +0.000 A 
ATOM     22  C   UNL     1      -3.084  11.590  19.174  0.00  0.00    +0.000 C 
ENDBRANCH   1  18
TORSDOF 1
ENDMDL
