MODEL 1
REMARK VINA RESULT:      -7.7      0.000      0.000
REMARK  Name = 
REMARK  13 active torsions:
REMARK  status: ('A' for Active; 'I' for Inactive)
REMARK    1  A    between atoms: C_1  and  C_2
REMARK    2  A    between atoms: C_2  and  O_3
REMARK    3  A    between atoms: O_3  and  C_4
REMARK    4  A    between atoms: C_7  and  C_8
REMARK    5  A    between atoms: C_8  and  C_9
REMARK    6  A    between atoms: C_9  and  N_10
REMARK    7  A    between atoms: N_10  and  S_11
REMARK    8  A    between atoms: S_11  and  C_14
REMARK    9  A    between atoms: C_15  and  C_16
REMARK   10  A    between atoms: C_20  and  C_21
REMARK   11  A    between atoms: C_27  and  O_28
REMARK   12  A    between atoms: O_28  and  C_29
REMARK   13  A    between atoms: C_29  and  C_30
REMARK                            x       y       z     vdW  Elec       q    Type
REMARK                         _______ _______ _______ _____ _____    ______ ____
ROOT
ATOM      1  N   UNL     1       4.671   6.045  19.624  0.00  0.00    +0.000 NA
ATOM      2  H   UNL     1       4.840   6.462  20.548  0.00  0.00    +0.000 HD
ENDROOT
BRANCH   1   3
ATOM      3  S   UNL     1       5.886   4.883  19.290  0.00  0.00    +0.000 S 
ATOM      4  O   UNL     1       7.042   5.303  20.058  0.00  0.00    +0.000 OA
ATOM      5  O   UNL     1       5.244   3.618  19.599  0.00  0.00    +0.000 OA
BRANCH   3   6
ATOM      6  C   UNL     1       6.324   4.915  17.626  0.00  0.00    +0.000 A 
ATOM      7  C   UNL     1       7.181   5.843  17.140  0.00  0.00    +0.000 A 
ATOM      8  C   UNL     1       7.855   6.941  17.937  0.00  0.00    +0.000 C 
ATOM      9  N   UNL     1       7.538   5.917  15.805  0.00  0.00    +0.000 NA
ATOM     10  C   UNL     1       6.961   5.093  15.007  0.00  0.00    +0.000 A 
ATOM     11  S   UNL     1       7.249   5.028  13.282  0.00  0.00    +0.000 S 
ATOM     12  C   UNL     1       6.088   3.734  13.111  0.00  0.00    +0.000 A 
ATOM     13  C   UNL     1       5.789   3.124  11.788  0.00  0.00    +0.000 C 
ATOM     14  C   UNL     1       5.553   3.404  14.297  0.00  0.00    +0.000 A 
ATOM     15  N   UNL     1       6.034   4.144  15.361  0.00  0.00    +0.000 N 
ATOM     16  C   UNL     1       5.644   4.001  16.679  0.00  0.00    +0.000 A 
ATOM     17  O   UNL     1       4.790   3.201  17.058  0.00  0.00    +0.000 OA
ENDBRANCH   3   6
ENDBRANCH   1   3
BRANCH   1  18
ATOM     18  C   UNL     1       3.305   5.465  19.472  0.00  0.00    +0.000 C 
BRANCH  18  19
ATOM     19  C   UNL     1       2.544   6.102  18.309  0.00  0.00    +0.000 C 
BRANCH  19  23
ATOM     20  C   UNL     1       1.117  10.091  19.289  0.00  0.00    +0.000 A 
ATOM     21  C   UNL     1       1.528   9.756  17.986  0.00  0.00    +0.000 A 
ATOM     22  C   UNL     1       2.011   8.482  17.679  0.00  0.00    +0.000 A 
ATOM     23  C   UNL     1       2.111   7.506  18.666  0.00  0.00    +0.000 A 
ATOM     24  C   UNL     1       1.744   7.846  19.976  0.00  0.00    +0.000 A 
ATOM     25  C   UNL     1       1.281   9.136  20.305  0.00  0.00    +0.000 A 
BRANCH  20  26
ATOM     26  O   UNL     1       0.567  11.319  19.584  0.00  0.00    +0.000 OA
BRANCH  26  28
ATOM     27  C   UNL     1      -1.632  12.095  20.268  0.00  0.00    +0.000 C 
ATOM     28  C   UNL     1      -0.788  11.508  19.152  0.00  0.00    +0.000 C 
ENDBRANCH  26  28
ENDBRANCH  20  26
BRANCH  25  29
ATOM     29  O   UNL     1       0.996   9.261  21.642  0.00  0.00    +0.000 OA
BRANCH  29  30
ATOM     30  C   UNL     1      -0.339   8.994  22.063  0.00  0.00    +0.000 C 
ATOM     31  C   UNL     1      -0.685   9.958  23.191  0.00  0.00    +0.000 C 
ENDBRANCH  29  30
ENDBRANCH  25  29
ENDBRANCH  19  23
ENDBRANCH  18  19
ENDBRANCH   1  18
TORSDOF 9
ENDMDL
MODEL 2
REMARK VINA RESULT:      -7.6      2.167      4.568
REMARK  Name = 
REMARK  13 active torsions:
REMARK  status: ('A' for Active; 'I' for Inactive)
REMARK    1  A    between atoms: C_1  and  C_2
REMARK    2  A    between atoms: C_2  and  O_3
REMARK    3  A    between atoms: O_3  and  C_4
REMARK    4  A    between atoms: C_7  and  C_8
REMARK    5  A    between atoms: C_8  and  C_9
REMARK    6  A    between atoms: C_9  and  N_10
REMARK    7  A    between atoms: N_10  and  S_11
REMARK    8  A    between atoms: S_11  and  C_14
REMARK    9  A    between atoms: C_15  and  C_16
REMARK   10  A    between atoms: C_20  and  C_21
REMARK   11  A    between atoms: C_27  and  O_28
REMARK   12  A    between atoms: O_28  and  C_29
REMARK   13  A    between atoms: C_29  and  C_30
REMARK                            x       y       z     vdW  Elec       q    Type
REMARK                         _______ _______ _______ _____ _____    ______ ____
ROOT
ATOM      1  N   UNL     1       6.781   6.753  16.565  0.00  0.00    +0.000 NA
ATOM      2  H   UNL     1       7.644   7.297  16.444  0.00  0.00    +0.000 HD
ENDROOT
BRANCH   1   3
ATOM      3  S   UNL     1       7.162   5.210  17.206  0.00  0.00    +0.000 S 
ATOM      4  O   UNL     1       7.808   4.494  16.123  0.00  0.00    +0.000 OA
ATOM      5  O   UNL     1       7.914   5.515  18.409  0.00  0.00    +0.000 OA
BRANCH   3   6
ATOM      6  C   UNL     1       5.731   4.349  17.622  0.00  0.00    +0.000 A 
ATOM      7  C   UNL     1       4.915   3.835  16.672  0.00  0.00    +0.000 A 
ATOM      8  C   UNL     1       5.119   3.928  15.174  0.00  0.00    +0.000 C 
ATOM      9  N   UNL     1       3.744   3.159  16.967  0.00  0.00    +0.000 NA
ATOM     10  C   UNL     1       3.413   3.090  18.204  0.00  0.00    +0.000 A 
ATOM     11  S   UNL     1       1.966   2.302  18.795  0.00  0.00    +0.000 S 
ATOM     12  C   UNL     1       2.368   2.738  20.439  0.00  0.00    +0.000 A 
ATOM     13  C   UNL     1       1.495   2.359  21.581  0.00  0.00    +0.000 C 
ATOM     14  C   UNL     1       3.522   3.422  20.489  0.00  0.00    +0.000 A 
ATOM     15  N   UNL     1       4.119   3.618  19.258  0.00  0.00    +0.000 N 
ATOM     16  C   UNL     1       5.307   4.290  19.040  0.00  0.00    +0.000 A 
ATOM     17  O   UNL     1       5.967   4.821  19.932  0.00  0.00    +0.000 OA
ENDBRANCH   3   6
ENDBRANCH   1   3
BRANCH   1  18
ATOM     18  C   UNL     1       5.749   7.448  17.390  0.00  0.00    +0.000 C 
BRANCH  18  19
ATOM     19  C   UNL     1       4.363   7.369  16.750  0.00  0.00    +0.000 C 
BRANCH  19  23
ATOM     20  C   UNL     1       1.421   8.387  19.787  0.00  0.00    +0.000 A 
ATOM     21  C   UNL     1       2.152   7.186  19.843  0.00  0.00    +0.000 A 
ATOM     22  C   UNL     1       3.077   6.849  18.853  0.00  0.00    +0.000 A 
ATOM     23  C   UNL     1       3.293   7.694  17.768  0.00  0.00    +0.000 A 
ATOM     24  C   UNL     1       2.537   8.871  17.683  0.00  0.00    +0.000 A 
ATOM     25  C   UNL     1       1.581   9.211  18.660  0.00  0.00    +0.000 A 
BRANCH  20  26
ATOM     26  O   UNL     1       0.565   8.765  20.797  0.00  0.00    +0.000 OA
BRANCH  26  28
ATOM     27  C   UNL     1       0.172   9.537  23.068  0.00  0.00    +0.000 C 
ATOM     28  C   UNL     1       1.176   8.973  22.078  0.00  0.00    +0.000 C 
ENDBRANCH  26  28
ENDBRANCH  20  26
BRANCH  25  29
ATOM     29  O   UNL     1       0.942  10.392  18.375  0.00  0.00    +0.000 OA
BRANCH  29  30
ATOM     30  C   UNL     1       1.254  11.526  19.181  0.00  0.00    +0.000 C 
ATOM     31  C   UNL     1       2.196  12.426  18.391  0.00  0.00    +0.000 C 
ENDBRANCH  29  30
ENDBRANCH  25  29
ENDBRANCH  19  23
ENDBRANCH  18  19
ENDBRANCH   1  18
TORSDOF 9
ENDMDL
MODEL 3
REMARK VINA RESULT:      -7.5      4.705      7.016
REMARK  Name = 
REMARK  13 active torsions:
REMARK  status: ('A' for Active; 'I' for Inactive)
REMARK    1  A    between atoms: C_1  and  C_2
REMARK    2  A    between atoms: C_2  and  O_3
REMARK    3  A    between atoms: O_3  and  C_4
REMARK    4  A    between atoms: C_7  and  C_8
REMARK    5  A    between atoms: C_8  and  C_9
REMARK    6  A    between atoms: C_9  and  N_10
REMARK    7  A    between atoms: N_10  and  S_11
REMARK    8  A    between atoms: S_11  and  C_14
REMARK    9  A    between atoms: C_15  and  C_16
REMARK   10  A    between atoms: C_20  and  C_21
REMARK   11  A    between atoms: C_27  and  O_28
REMARK   12  A    between atoms: O_28  and  C_29
REMARK   13  A    between atoms: C_29  and  C_30
REMARK                            x       y       z     vdW  Elec       q    Type
REMARK                         _______ _______ _______ _____ _____    ______ ____
ROOT
ATOM      1  N   UNL     1       6.477   7.649  17.607  0.00  0.00    +0.000 NA
ATOM      2  H   UNL     1       5.725   8.349  17.613  0.00  0.00    +0.000 HD
ENDROOT
BRANCH   1   3
ATOM      3  S   UNL     1       6.125   6.438  16.446  0.00  0.00    +0.000 S 
ATOM      4  O   UNL     1       5.282   7.085  15.460  0.00  0.00    +0.000 OA
ATOM      5  O   UNL     1       7.434   5.947  16.056  0.00  0.00    +0.000 OA
BRANCH   3   6
ATOM      6  C   UNL     1       5.216   5.158  17.152  0.00  0.00    +0.000 A 
ATOM      7  C   UNL     1       5.130   3.944  16.560  0.00  0.00    +0.000 A 
ATOM      8  C   UNL     1       5.784   3.538  15.256  0.00  0.00    +0.000 C 
ATOM      9  N   UNL     1       4.390   2.899  17.084  0.00  0.00    +0.000 NA
ATOM     10  C   UNL     1       3.714   3.146  18.146  0.00  0.00    +0.000 A 
ATOM     11  S   UNL     1       2.696   1.977  18.960  0.00  0.00    +0.000 S 
ATOM     12  C   UNL     1       2.236   3.169  20.152  0.00  0.00    +0.000 A 
ATOM     13  C   UNL     1       1.298   2.842  21.259  0.00  0.00    +0.000 C 
ATOM     14  C   UNL     1       2.837   4.345  19.916  0.00  0.00    +0.000 A 
ATOM     15  N   UNL     1       3.667   4.347  18.810  0.00  0.00    +0.000 N 
ATOM     16  C   UNL     1       4.396   5.429  18.356  0.00  0.00    +0.000 A 
ATOM     17  O   UNL     1       4.368   6.543  18.879  0.00  0.00    +0.000 OA
ENDBRANCH   3   6
ENDBRANCH   1   3
BRANCH   1  18
ATOM     18  C   UNL     1       7.834   8.233  17.392  0.00  0.00    +0.000 C 
BRANCH  18  19
ATOM     19  C   UNL     1       8.590   8.414  18.708  0.00  0.00    +0.000 C 
BRANCH  19  23
ATOM     20  C   UNL     1       9.456  12.638  19.277  0.00  0.00    +0.000 A 
ATOM     21  C   UNL     1       9.394  12.065  17.994  0.00  0.00    +0.000 A 
ATOM     22  C   UNL     1       9.142  10.705  17.814  0.00  0.00    +0.000 A 
ATOM     23  C   UNL     1       8.957   9.867  18.911  0.00  0.00    +0.000 A 
ATOM     24  C   UNL     1       9.060  10.422  20.194  0.00  0.00    +0.000 A 
ATOM     25  C   UNL     1       9.340  11.789  20.391  0.00  0.00    +0.000 A 
BRANCH  20  26
ATOM     26  O   UNL     1       9.626  13.992  19.462  0.00  0.00    +0.000 OA
BRANCH  26  28
ATOM     27  C   UNL     1       8.345  15.679  18.272  0.00  0.00    +0.000 C 
ATOM     28  C   UNL     1       8.420  14.768  19.484  0.00  0.00    +0.000 C 
ENDBRANCH  26  28
ENDBRANCH  20  26
BRANCH  25  29
ATOM     29  O   UNL     1       9.417  12.119  21.721  0.00  0.00    +0.000 OA
BRANCH  29  30
ATOM     30  C   UNL     1       8.257  11.912  22.523  0.00  0.00    +0.000 C 
ATOM     31  C   UNL     1       8.558  12.404  23.933  0.00  0.00    +0.000 C 
ENDBRANCH  29  30
ENDBRANCH  25  29
ENDBRANCH  19  23
ENDBRANCH  18  19
ENDBRANCH   1  18
TORSDOF 9
ENDMDL
MODEL 4
REMARK VINA RESULT:      -7.5      0.868      2.029
REMARK  Name = 
REMARK  13 active torsions:
REMARK  status: ('A' for Active; 'I' for Inactive)
REMARK    1  A    between atoms: C_1  and  C_2
REMARK    2  A    between atoms: C_2  and  O_3
REMARK    3  A    between atoms: O_3  and  C_4
REMARK    4  A    between atoms: C_7  and  C_8
REMARK    5  A    between atoms: C_8  and  C_9
REMARK    6  A    between atoms: C_9  and  N_10
REMARK    7  A    between atoms: N_10  and  S_11
REMARK    8  A    between atoms: S_11  and  C_14
REMARK    9  A    between atoms: C_15  and  C_16
REMARK   10  A    between atoms: C_20  and  C_21
REMARK   11  A    between atoms: C_27  and  O_28
REMARK   12  A    between atoms: O_28  and  C_29
REMARK   13  A    between atoms: C_29  and  C_30
REMARK                            x       y       z     vdW  Elec       q    Type
REMARK                         _______ _______ _______ _____ _____    ______ ____
ROOT
ATOM      1  N   UNL     1       4.588   6.062  19.510  0.00  0.00    +0.000 NA
ATOM      2  H   UNL     1       4.282   5.987  20.488  0.00  0.00    +0.000 HD
ENDROOT
BRANCH   1   3
ATOM      3  S   UNL     1       5.799   4.891  19.196  0.00  0.00    +0.000 S 
ATOM      4  O   UNL     1       6.941   5.296  19.992  0.00  0.00    +0.000 OA
ATOM      5  O   UNL     1       5.138   3.631  19.483  0.00  0.00    +0.000 OA
BRANCH   3   6
ATOM      6  C   UNL     1       6.274   4.929  17.542  0.00  0.00    +0.000 A 
ATOM      7  C   UNL     1       7.095   5.894  17.066  0.00  0.00    +0.000 A 
ATOM      8  C   UNL     1       7.695   7.032  17.867  0.00  0.00    +0.000 C 
ATOM      9  N   UNL     1       7.480   5.973  15.739  0.00  0.00    +0.000 NA
ATOM     10  C   UNL     1       6.964   5.114  14.938  0.00  0.00    +0.000 A 
ATOM     11  S   UNL     1       7.296   5.046  13.220  0.00  0.00    +0.000 S 
ATOM     12  C   UNL     1       6.205   3.694  13.036  0.00  0.00    +0.000 A 
ATOM     13  C   UNL     1       5.969   3.058  11.713  0.00  0.00    +0.000 C 
ATOM     14  C   UNL     1       5.659   3.350  14.212  0.00  0.00    +0.000 A 
ATOM     15  N   UNL     1       6.077   4.123  15.280  0.00  0.00    +0.000 N 
ATOM     16  C   UNL     1       5.663   3.973  16.589  0.00  0.00    +0.000 A 
ATOM     17  O   UNL     1       4.841   3.135  16.957  0.00  0.00    +0.000 OA
ENDBRANCH   3   6
ENDBRANCH   1   3
BRANCH   1  18
ATOM     18  C   UNL     1       3.470   5.970  18.526  0.00  0.00    +0.000 C 
BRANCH  18  19
ATOM     19  C   UNL     1       3.172   7.320  17.875  0.00  0.00    +0.000 C 
BRANCH  19  23
ATOM     20  C   UNL     1       0.375   9.643  20.261  0.00  0.00    +0.000 A 
ATOM     21  C   UNL     1       1.123   8.591  20.820  0.00  0.00    +0.000 A 
ATOM     22  C   UNL     1       2.001   7.829  20.047  0.00  0.00    +0.000 A 
ATOM     23  C   UNL     1       2.151   8.085  18.686  0.00  0.00    +0.000 A 
ATOM     24  C   UNL     1       1.377   9.104  18.113  0.00  0.00    +0.000 A 
ATOM     25  C   UNL     1       0.467   9.863  18.876  0.00  0.00    +0.000 A 
BRANCH  20  26
ATOM     26  O   UNL     1      -0.433  10.450  21.030  0.00  0.00    +0.000 OA
BRANCH  26  28
ATOM     27  C   UNL     1      -1.405  11.063  23.172  0.00  0.00    +0.000 C 
ATOM     28  C   UNL     1      -0.397  10.194  22.441  0.00  0.00    +0.000 C 
ENDBRANCH  26  28
ENDBRANCH  20  26
BRANCH  25  29
ATOM     29  O   UNL     1      -0.200  10.792  18.118  0.00  0.00    +0.000 OA
BRANCH  29  30
ATOM     30  C   UNL     1      -1.555  10.515  17.771  0.00  0.00    +0.000 C 
ATOM     31  C   UNL     1      -2.427  11.633  18.327  0.00  0.00    +0.000 C 
ENDBRANCH  29  30
ENDBRANCH  25  29
ENDBRANCH  19  23
ENDBRANCH  18  19
ENDBRANCH   1  18
TORSDOF 9
ENDMDL
MODEL 5
REMARK VINA RESULT:      -7.5      4.462      9.870
REMARK  Name = 
REMARK  13 active torsions:
REMARK  status: ('A' for Active; 'I' for Inactive)
REMARK    1  A    between atoms: C_1  and  C_2
REMARK    2  A    between atoms: C_2  and  O_3
REMARK    3  A    between atoms: O_3  and  C_4
REMARK    4  A    between atoms: C_7  and  C_8
REMARK    5  A    between atoms: C_8  and  C_9
REMARK    6  A    between atoms: C_9  and  N_10
REMARK    7  A    between atoms: N_10  and  S_11
REMARK    8  A    between atoms: S_11  and  C_14
REMARK    9  A    between atoms: C_15  and  C_16
REMARK   10  A    between atoms: C_20  and  C_21
REMARK   11  A    between atoms: C_27  and  O_28
REMARK   12  A    between atoms: O_28  and  C_29
REMARK   13  A    between atoms: C_29  and  C_30
REMARK                            x       y       z     vdW  Elec       q    Type
REMARK                         _______ _______ _______ _____ _____    ______ ____
ROOT
ATOM      1  N   UNL     1       0.929   9.901  17.914  0.00  0.00    +0.000 NA
ATOM      2  H   UNL     1       0.080   9.333  17.805  0.00  0.00    +0.000 HD
ENDROOT
BRANCH   1   3
ATOM      3  S   UNL     1       0.783  10.887  19.308  0.00  0.00    +0.000 S 
ATOM      4  O   UNL     1       1.026  10.003  20.431  0.00  0.00    +0.000 OA
ATOM      5  O   UNL     1       1.700  11.982  19.050  0.00  0.00    +0.000 OA
BRANCH   3   6
ATOM      6  C   UNL     1      -0.818  11.500  19.461  0.00  0.00    +0.000 A 
ATOM      7  C   UNL     1      -1.175  12.289  20.502  0.00  0.00    +0.000 A 
ATOM      8  C   UNL     1      -0.274  12.736  21.634  0.00  0.00    +0.000 C 
ATOM      9  N   UNL     1      -2.457  12.780  20.672  0.00  0.00    +0.000 NA
ATOM     10  C   UNL     1      -3.339  12.397  19.823  0.00  0.00    +0.000 A 
ATOM     11  S   UNL     1      -5.021  12.880  19.865  0.00  0.00    +0.000 S 
ATOM     12  C   UNL     1      -5.363  11.906  18.455  0.00  0.00    +0.000 A 
ATOM     13  C   UNL     1      -6.729  11.830  17.872  0.00  0.00    +0.000 C 
ATOM     14  C   UNL     1      -4.257  11.286  18.016  0.00  0.00    +0.000 A 
ATOM     15  N   UNL     1      -3.123  11.555  18.760  0.00  0.00    +0.000 N 
ATOM     16  C   UNL     1      -1.863  11.042  18.517  0.00  0.00    +0.000 A 
ATOM     17  O   UNL     1      -1.608  10.252  17.608  0.00  0.00    +0.000 OA
ENDBRANCH   3   6
ENDBRANCH   1   3
BRANCH   1  18
ATOM     18  C   UNL     1       2.186   9.097  17.943  0.00  0.00    +0.000 C 
BRANCH  18  19
ATOM     19  C   UNL     1       1.948   7.689  18.487  0.00  0.00    +0.000 C 
BRANCH  19  23
ATOM     20  C   UNL     1       4.868   4.881  16.904  0.00  0.00    +0.000 A 
ATOM     21  C   UNL     1       5.080   6.271  16.852  0.00  0.00    +0.000 A 
ATOM     22  C   UNL     1       4.130   7.172  17.337  0.00  0.00    +0.000 A 
ATOM     23  C   UNL     1       2.931   6.714  17.877  0.00  0.00    +0.000 A 
ATOM     24  C   UNL     1       2.694   5.333  17.893  0.00  0.00    +0.000 A 
ATOM     25  C   UNL     1       3.633   4.414  17.383  0.00  0.00    +0.000 A 
BRANCH  20  26
ATOM     26  O   UNL     1       5.831   3.983  16.501  0.00  0.00    +0.000 OA
BRANCH  26  28
ATOM     27  C   UNL     1       6.210   4.029  14.101  0.00  0.00    +0.000 C 
ATOM     28  C   UNL     1       6.715   4.447  15.471  0.00  0.00    +0.000 C 
ENDBRANCH  26  28
ENDBRANCH  20  26
BRANCH  25  29
ATOM     29  O   UNL     1       3.195   3.116  17.477  0.00  0.00    +0.000 OA
BRANCH  29  30
ATOM     30  C   UNL     1       1.922   2.887  18.077  0.00  0.00    +0.000 C 
ATOM     31  C   UNL     1       2.139   2.126  19.379  0.00  0.00    +0.000 C 
ENDBRANCH  29  30
ENDBRANCH  25  29
ENDBRANCH  19  23
ENDBRANCH  18  19
ENDBRANCH   1  18
TORSDOF 9
ENDMDL
MODEL 6
REMARK VINA RESULT:      -7.4      4.829      7.401
REMARK  Name = 
REMARK  13 active torsions:
REMARK  status: ('A' for Active; 'I' for Inactive)
REMARK    1  A    between atoms: C_1  and  C_2
REMARK    2  A    between atoms: C_2  and  O_3
REMARK    3  A    between atoms: O_3  and  C_4
REMARK    4  A    between atoms: C_7  and  C_8
REMARK    5  A    between atoms: C_8  and  C_9
REMARK    6  A    between atoms: C_9  and  N_10
REMARK    7  A    between atoms: N_10  and  S_11
REMARK    8  A    between atoms: S_11  and  C_14
REMARK    9  A    between atoms: C_15  and  C_16
REMARK   10  A    between atoms: C_20  and  C_21
REMARK   11  A    between atoms: C_27  and  O_28
REMARK   12  A    between atoms: O_28  and  C_29
REMARK   13  A    between atoms: C_29  and  C_30
REMARK                            x       y       z     vdW  Elec       q    Type
REMARK                         _______ _______ _______ _____ _____    ______ ____
ROOT
ATOM      1  N   UNL     1       7.631   6.947  16.982  0.00  0.00    +0.000 NA
ATOM      2  H   UNL     1       8.313   6.890  16.216  0.00  0.00    +0.000 HD
ENDROOT
BRANCH   1   3
ATOM      3  S   UNL     1       7.488   5.417  17.740  0.00  0.00    +0.000 S 
ATOM      4  O   UNL     1       8.163   4.486  16.856  0.00  0.00    +0.000 OA
ATOM      5  O   UNL     1       8.014   5.645  19.074  0.00  0.00    +0.000 OA
BRANCH   3   6
ATOM      6  C   UNL     1       5.839   4.936  17.845  0.00  0.00    +0.000 A 
ATOM      7  C   UNL     1       5.000   5.056  16.789  0.00  0.00    +0.000 A 
ATOM      8  C   UNL     1       5.357   5.602  15.422  0.00  0.00    +0.000 C 
ATOM      9  N   UNL     1       3.663   4.704  16.843  0.00  0.00    +0.000 NA
ATOM     10  C   UNL     1       3.215   4.310  17.978  0.00  0.00    +0.000 A 
ATOM     11  S   UNL     1       1.555   3.837  18.272  0.00  0.00    +0.000 S 
ATOM     12  C   UNL     1       1.913   3.529  19.954  0.00  0.00    +0.000 A 
ATOM     13  C   UNL     1       0.868   3.054  20.899  0.00  0.00    +0.000 C 
ATOM     14  C   UNL     1       3.205   3.772  20.226  0.00  0.00    +0.000 A 
ATOM     15  N   UNL     1       3.943   4.198  19.137  0.00  0.00    +0.000 N 
ATOM     16  C   UNL     1       5.288   4.514  19.154  0.00  0.00    +0.000 A 
ATOM     17  O   UNL     1       5.989   4.476  20.165  0.00  0.00    +0.000 OA
ENDBRANCH   3   6
ENDBRANCH   1   3
BRANCH   1  18
ATOM     18  C   UNL     1       7.935   8.021  17.973  0.00  0.00    +0.000 C 
BRANCH  18  19
ATOM     19  C   UNL     1       8.127   9.379  17.299  0.00  0.00    +0.000 C 
BRANCH  19  23
ATOM     20  C   UNL     1       9.915  12.222  20.062  0.00  0.00    +0.000 A 
ATOM     21  C   UNL     1       9.739  10.870  20.408  0.00  0.00    +0.000 A 
ATOM     22  C   UNL     1       9.141   9.964  19.530  0.00  0.00    +0.000 A 
ATOM     23  C   UNL     1       8.687  10.383  18.282  0.00  0.00    +0.000 A 
ATOM     24  C   UNL     1       8.819  11.737  17.947  0.00  0.00    +0.000 A 
ATOM     25  C   UNL     1       9.396  12.668  18.834  0.00  0.00    +0.000 A 
BRANCH  20  26
ATOM     26  O   UNL     1      10.574  13.105  20.888  0.00  0.00    +0.000 OA
BRANCH  26  28
ATOM     27  C   UNL     1       9.885  15.317  21.622  0.00  0.00    +0.000 C 
ATOM     28  C   UNL     1       9.744  13.818  21.816  0.00  0.00    +0.000 C 
ENDBRANCH  26  28
ENDBRANCH  20  26
BRANCH  25  29
ATOM     29  O   UNL     1       9.411  13.939  18.319  0.00  0.00    +0.000 OA
BRANCH  29  30
ATOM     30  C   UNL     1       8.156  14.553  18.031  0.00  0.00    +0.000 C 
ATOM     31  C   UNL     1       8.307  16.057  18.219  0.00  0.00    +0.000 C 
ENDBRANCH  29  30
ENDBRANCH  25  29
ENDBRANCH  19  23
ENDBRANCH  18  19
ENDBRANCH   1  18
TORSDOF 9
ENDMDL
MODEL 7
REMARK VINA RESULT:      -7.4      4.690     10.135
REMARK  Name = 
REMARK  13 active torsions:
REMARK  status: ('A' for Active; 'I' for Inactive)
REMARK    1  A    between atoms: C_1  and  C_2
REMARK    2  A    between atoms: C_2  and  O_3
REMARK    3  A    between atoms: O_3  and  C_4
REMARK    4  A    between atoms: C_7  and  C_8
REMARK    5  A    between atoms: C_8  and  C_9
REMARK    6  A    between atoms: C_9  and  N_10
REMARK    7  A    between atoms: N_10  and  S_11
REMARK    8  A    between atoms: S_11  and  C_14
REMARK    9  A    between atoms: C_15  and  C_16
REMARK   10  A    between atoms: C_20  and  C_21
REMARK   11  A    between atoms: C_27  and  O_28
REMARK   12  A    between atoms: O_28  and  C_29
REMARK   13  A    between atoms: C_29  and  C_30
REMARK                            x       y       z     vdW  Elec       q    Type
REMARK                         _______ _______ _______ _____ _____    ______ ____
ROOT
ATOM      1  N   UNL     1       0.353  10.199  17.852  0.00  0.00    +0.000 NA
ATOM      2  H   UNL     1      -0.515  10.295  17.312  0.00  0.00    +0.000 HD
ENDROOT
BRANCH   1   3
ATOM      3  S   UNL     1       0.091  10.736  19.458  0.00  0.00    +0.000 S 
ATOM      4  O   UNL     1       0.092   9.534  20.270  0.00  0.00    +0.000 OA
ATOM      5  O   UNL     1       1.126  11.734  19.658  0.00  0.00    +0.000 OA
BRANCH   3   6
ATOM      6  C   UNL     1      -1.457  11.471  19.615  0.00  0.00    +0.000 A 
ATOM      7  C   UNL     1      -1.810  12.140  20.737  0.00  0.00    +0.000 A 
ATOM      8  C   UNL     1      -0.948  12.340  21.966  0.00  0.00    +0.000 C 
ATOM      9  N   UNL     1      -3.054  12.723  20.910  0.00  0.00    +0.000 NA
ATOM     10  C   UNL     1      -3.909  12.545  19.971  0.00  0.00    +0.000 A 
ATOM     11  S   UNL     1      -5.542  13.176  19.994  0.00  0.00    +0.000 S 
ATOM     12  C   UNL     1      -5.876  12.441  18.444  0.00  0.00    +0.000 A 
ATOM     13  C   UNL     1      -7.203  12.576  17.788  0.00  0.00    +0.000 C 
ATOM     14  C   UNL     1      -4.802  11.785  17.979  0.00  0.00    +0.000 A 
ATOM     15  N   UNL     1      -3.699  11.841  18.811  0.00  0.00    +0.000 N 
ATOM     16  C   UNL     1      -2.476  11.248  18.562  0.00  0.00    +0.000 A 
ATOM     17  O   UNL     1      -2.233  10.570  17.565  0.00  0.00    +0.000 OA
ENDBRANCH   3   6
ENDBRANCH   1   3
BRANCH   1  18
ATOM     18  C   UNL     1       0.926   8.822  17.823  0.00  0.00    +0.000 C 
BRANCH  18  19
ATOM     19  C   UNL     1       2.452   8.842  17.749  0.00  0.00    +0.000 C 
BRANCH  19  23
ATOM     20  C   UNL     1       3.960   4.984  19.075  0.00  0.00    +0.000 A 
ATOM     21  C   UNL     1       2.914   5.638  19.751  0.00  0.00    +0.000 A 
ATOM     22  C   UNL     1       2.448   6.888  19.340  0.00  0.00    +0.000 A 
ATOM     23  C   UNL     1       3.023   7.533  18.247  0.00  0.00    +0.000 A 
ATOM     24  C   UNL     1       4.094   6.908  17.595  0.00  0.00    +0.000 A 
ATOM     25  C   UNL     1       4.592   5.658  18.016  0.00  0.00    +0.000 A 
BRANCH  20  26
ATOM     26  O   UNL     1       4.373   3.718  19.424  0.00  0.00    +0.000 OA
BRANCH  26  28
ATOM     27  C   UNL     1       3.408   1.751  18.373  0.00  0.00    +0.000 C 
ATOM     28  C   UNL     1       3.333   2.736  19.526  0.00  0.00    +0.000 C 
ENDBRANCH  26  28
ENDBRANCH  20  26
BRANCH  25  29
ATOM     29  O   UNL     1       5.653   5.237  17.255  0.00  0.00    +0.000 OA
BRANCH  29  30
ATOM     30  C   UNL     1       6.827   6.045  17.248  0.00  0.00    +0.000 C 
ATOM     31  C   UNL     1       7.552   5.843  18.572  0.00  0.00    +0.000 C 
ENDBRANCH  29  30
ENDBRANCH  25  29
ENDBRANCH  19  23
ENDBRANCH  18  19
ENDBRANCH   1  18
TORSDOF 9
ENDMDL
MODEL 8
REMARK VINA RESULT:      -7.4      4.464      9.633
REMARK  Name = 
REMARK  13 active torsions:
REMARK  status: ('A' for Active; 'I' for Inactive)
REMARK    1  A    between atoms: C_1  and  C_2
REMARK    2  A    between atoms: C_2  and  O_3
REMARK    3  A    between atoms: O_3  and  C_4
REMARK    4  A    between atoms: C_7  and  C_8
REMARK    5  A    between atoms: C_8  and  C_9
REMARK    6  A    between atoms: C_9  and  N_10
REMARK    7  A    between atoms: N_10  and  S_11
REMARK    8  A    between atoms: S_11  and  C_14
REMARK    9  A    between atoms: C_15  and  C_16
REMARK   10  A    between atoms: C_20  and  C_21
REMARK   11  A    between atoms: C_27  and  O_28
REMARK   12  A    between atoms: O_28  and  C_29
REMARK   13  A    between atoms: C_29  and  C_30
REMARK                            x       y       z     vdW  Elec       q    Type
REMARK                         _______ _______ _______ _____ _____    ______ ____
ROOT
ATOM      1  N   UNL     1       0.679  10.220  18.108  0.00  0.00    +0.000 NA
ATOM      2  H   UNL     1       0.050   9.949  17.341  0.00  0.00    +0.000 HD
ENDROOT
BRANCH   1   3
ATOM      3  S   UNL     1      -0.217  11.023  19.328  0.00  0.00    +0.000 S 
ATOM      4  O   UNL     1      -1.309  11.679  18.635  0.00  0.00    +0.000 OA
ATOM      5  O   UNL     1      -0.508   9.971  20.286  0.00  0.00    +0.000 OA
BRANCH   3   6
ATOM      6  C   UNL     1       0.732  12.244  20.084  0.00  0.00    +0.000 A 
ATOM      7  C   UNL     1       0.386  12.764  21.284  0.00  0.00    +0.000 A 
ATOM      8  C   UNL     1      -0.823  12.377  22.111  0.00  0.00    +0.000 C 
ATOM      9  N   UNL     1       1.109  13.764  21.911  0.00  0.00    +0.000 NA
ATOM     10  C   UNL     1       2.110  14.242  21.267  0.00  0.00    +0.000 A 
ATOM     11  S   UNL     1       3.145  15.521  21.864  0.00  0.00    +0.000 S 
ATOM     12  C   UNL     1       4.090  15.478  20.395  0.00  0.00    +0.000 A 
ATOM     13  C   UNL     1       5.249  16.386  20.187  0.00  0.00    +0.000 C 
ATOM     14  C   UNL     1       3.625  14.546  19.549  0.00  0.00    +0.000 A 
ATOM     15  N   UNL     1       2.531  13.845  20.022  0.00  0.00    +0.000 N 
ATOM     16  C   UNL     1       1.869  12.839  19.344  0.00  0.00    +0.000 A 
ATOM     17  O   UNL     1       2.168  12.464  18.211  0.00  0.00    +0.000 OA
ENDBRANCH   3   6
ENDBRANCH   1   3
BRANCH   1  18
ATOM     18  C   UNL     1       1.464   9.080  18.666  0.00  0.00    +0.000 C 
BRANCH  18  19
ATOM     19  C   UNL     1       2.387   8.459  17.619  0.00  0.00    +0.000 C 
BRANCH  19  23
ATOM     20  C   UNL     1       4.120   4.754  19.098  0.00  0.00    +0.000 A 
ATOM     21  C   UNL     1       3.106   5.426  19.804  0.00  0.00    +0.000 A 
ATOM     22  C   UNL     1       2.569   6.628  19.342  0.00  0.00    +0.000 A 
ATOM     23  C   UNL     1       3.037   7.207  18.165  0.00  0.00    +0.000 A 
ATOM     24  C   UNL     1       4.078   6.566  17.479  0.00  0.00    +0.000 A 
ATOM     25  C   UNL     1       4.648   5.366  17.948  0.00  0.00    +0.000 A 
BRANCH  20  26
ATOM     26  O   UNL     1       4.601   3.529  19.504  0.00  0.00    +0.000 OA
BRANCH  26  28
ATOM     27  C   UNL     1       3.460   1.709  18.367  0.00  0.00    +0.000 C 
ATOM     28  C   UNL     1       3.614   2.499  19.655  0.00  0.00    +0.000 C 
ENDBRANCH  26  28
ENDBRANCH  20  26
BRANCH  25  29
ATOM     29  O   UNL     1       5.662   4.919  17.140  0.00  0.00    +0.000 OA
BRANCH  29  30
ATOM     30  C   UNL     1       5.335   3.970  16.127  0.00  0.00    +0.000 C 
ATOM     31  C   UNL     1       6.319   4.142  14.977  0.00  0.00    +0.000 C 
ENDBRANCH  29  30
ENDBRANCH  25  29
ENDBRANCH  19  23
ENDBRANCH  18  19
ENDBRANCH   1  18
TORSDOF 9
ENDMDL
MODEL 9
REMARK VINA RESULT:      -7.3      4.819      9.541
REMARK  Name = 
REMARK  13 active torsions:
REMARK  status: ('A' for Active; 'I' for Inactive)
REMARK    1  A    between atoms: C_1  and  C_2
REMARK    2  A    between atoms: C_2  and  O_3
REMARK    3  A    between atoms: O_3  and  C_4
REMARK    4  A    between atoms: C_7  and  C_8
REMARK    5  A    between atoms: C_8  and  C_9
REMARK    6  A    between atoms: C_9  and  N_10
REMARK    7  A    between atoms: N_10  and  S_11
REMARK    8  A    between atoms: S_11  and  C_14
REMARK    9  A    between atoms: C_15  and  C_16
REMARK   10  A    between atoms: C_20  and  C_21
REMARK   11  A    between atoms: C_27  and  O_28
REMARK   12  A    between atoms: O_28  and  C_29
REMARK   13  A    between atoms: C_29  and  C_30
REMARK                            x       y       z     vdW  Elec       q    Type
REMARK                         _______ _______ _______ _____ _____    ______ ____
ROOT
ATOM      1  N   UNL     1       1.868  10.461  18.148  0.00  0.00    +0.000 NA
ATOM      2  H   UNL     1       1.972  11.082  17.337  0.00  0.00    +0.000 HD
ENDROOT
BRANCH   1   3
ATOM      3  S   UNL     1       0.668  11.088  19.199  0.00  0.00    +0.000 S 
ATOM      4  O   UNL     1      -0.388  11.572  18.332  0.00  0.00    +0.000 OA
ATOM      5  O   UNL     1       0.400   9.987  20.107  0.00  0.00    +0.000 OA
BRANCH   3   6
ATOM      6  C   UNL     1       1.273  12.433  20.088  0.00  0.00    +0.000 A 
ATOM      7  C   UNL     1       0.681  12.844  21.234  0.00  0.00    +0.000 A 
ATOM      8  C   UNL     1      -0.537  12.222  21.884  0.00  0.00    +0.000 C 
ATOM      9  N   UNL     1       1.122  13.935  21.962  0.00  0.00    +0.000 NA
ATOM     10  C   UNL     1       2.098  14.604  21.466  0.00  0.00    +0.000 A 
ATOM     11  S   UNL     1       2.797  16.026  22.210  0.00  0.00    +0.000 S 
ATOM     12  C   UNL     1       3.922  16.199  20.884  0.00  0.00    +0.000 A 
ATOM     13  C   UNL     1       4.915  17.305  20.844  0.00  0.00    +0.000 C 
ATOM     14  C   UNL     1       3.750  15.228  19.974  0.00  0.00    +0.000 A 
ATOM     15  N   UNL     1       2.746  14.329  20.287  0.00  0.00    +0.000 N 
ATOM     16  C   UNL     1       2.372  13.244  19.517  0.00  0.00    +0.000 A 
ATOM     17  O   UNL     1       2.882  12.965  18.432  0.00  0.00    +0.000 OA
ENDBRANCH   3   6
ENDBRANCH   1   3
BRANCH   1  18
ATOM     18  C   UNL     1       1.587   9.042  17.782  0.00  0.00    +0.000 C 
BRANCH  18  19
ATOM     19  C   UNL     1       2.806   8.147  17.998  0.00  0.00    +0.000 C 
BRANCH  19  23
ATOM     20  C   UNL     1       1.447   4.463  19.867  0.00  0.00    +0.000 A 
ATOM     21  C   UNL     1       1.641   5.639  20.614  0.00  0.00    +0.000 A 
ATOM     22  C   UNL     1       2.103   6.814  20.017  0.00  0.00    +0.000 A 
ATOM     23  C   UNL     1       2.398   6.848  18.657  0.00  0.00    +0.000 A 
ATOM     24  C   UNL     1       2.248   5.669  17.915  0.00  0.00    +0.000 A 
ATOM     25  C   UNL     1       1.809   4.469  18.510  0.00  0.00    +0.000 A 
BRANCH  20  26
ATOM     26  O   UNL     1       0.918   3.323  20.430  0.00  0.00    +0.000 OA
BRANCH  26  28
ATOM     27  C   UNL     1       2.924   2.485  21.515  0.00  0.00    +0.000 C 
ATOM     28  C   UNL     1       1.486   2.937  21.689  0.00  0.00    +0.000 C 
ENDBRANCH  26  28
ENDBRANCH  20  26
BRANCH  25  29
ATOM     29  O   UNL     1       1.751   3.433  17.612  0.00  0.00    +0.000 OA
BRANCH  29  30
ATOM     30  C   UNL     1       2.983   2.917  17.113  0.00  0.00    +0.000 C 
ATOM     31  C   UNL     1       3.424   1.776  18.020  0.00  0.00    +0.000 C 
ENDBRANCH  29  30
ENDBRANCH  25  29
ENDBRANCH  19  23
ENDBRANCH  18  19
ENDBRANCH   1  18
TORSDOF 9
ENDMDL
