MODEL 1
REMARK VINA RESULT:      -8.5      0.000      0.000
REMARK  Name = 
REMARK  4 active torsions:
REMARK  status: ('A' for Active; 'I' for Inactive)
REMARK    1  A    between atoms: C_2  and  C_3
REMARK    2  A    between atoms: C_3  and  C_4
REMARK    3  A    between atoms: C_20  and  C_21
REMARK    4  A    between atoms: C_26  and  N_27
REMARK                            x       y       z     vdW  Elec       q    Type
REMARK                         _______ _______ _______ _____ _____    ______ ____
ROOT
ATOM      1  O   UNL     1       4.699   5.506  16.671  0.00  0.00    +0.000 OA
ATOM      2  C   UNL     1       4.494   5.254  17.859  0.00  0.00    +0.000 C 
ATOM      3  N   UNL     1       3.969   6.203  18.721  0.00  0.00    +0.000 N 
ATOM      4  C   UNL     1       3.736   7.555  18.213  0.00  0.00    +0.000 C 
ATOM      5  C   UNL     1       2.231   7.821  18.081  0.00  0.00    +0.000 C 
ATOM      6  N   UNL     1       1.582   7.647  19.395  0.00  0.00    +0.000 N 
ATOM      7  C   UNL     1       1.029   8.687  20.127  0.00  0.00    +0.000 A 
ATOM      8  N   UNL     1       1.030   8.669  21.415  0.00  0.00    +0.000 NA
ATOM      9  C   UNL     1       0.551   9.653  22.232  0.00  0.00    +0.000 A 
ATOM     10  O   UNL     1       0.724   9.590  23.449  0.00  0.00    +0.000 OA
ATOM     11  C   UNL     1      -0.210  10.826  21.733  0.00  0.00    +0.000 A 
ATOM     12  C   UNL     1      -0.699  11.759  22.679  0.00  0.00    +0.000 A 
ATOM     13  C   UNL     1      -1.418  12.899  22.292  0.00  0.00    +0.000 A 
ATOM     14  C   UNL     1      -1.676  13.088  20.931  0.00  0.00    +0.000 A 
ATOM     15  C   UNL     1      -1.184  12.158  20.000  0.00  0.00    +0.000 A 
ATOM     16  C   UNL     1      -0.425  11.033  20.373  0.00  0.00    +0.000 A 
ATOM     17  S   UNL     1       0.314   9.970  19.177  0.00  0.00    +0.000 S 
ATOM     18  C   UNL     1       1.821   6.314  19.997  0.00  0.00    +0.000 C 
ATOM     19  C   UNL     1       3.321   5.934  20.014  0.00  0.00    +0.000 C 
ENDROOT
BRANCH  13  20
ATOM     20  C   UNL     1      -1.902  13.916  23.301  0.00  0.00    +0.000 C 
ATOM     21  F   UNL     1      -3.001  13.517  23.991  0.00  0.00    +0.000 F 
ATOM     22  F   UNL     1      -0.951  14.200  24.232  0.00  0.00    +0.000 F 
ATOM     23  F   UNL     1      -2.227  15.101  22.717  0.00  0.00    +0.000 F 
ENDBRANCH  13  20
BRANCH  15  24
ATOM     24  N   UNL     1      -1.494  12.426  18.603  0.00  0.00    +0.000 N 
ATOM     25  O   UNL     1      -0.701  13.144  17.986  0.00  0.00    +0.000 OA
ATOM     26  O   UNL     1      -2.556  11.968  18.164  0.00  0.00    +0.000 OA
ENDBRANCH  15  24
BRANCH   2  27
ATOM     27  C   UNL     1       4.791   3.876  18.438  0.00  0.00    +0.000 C 
BRANCH  27  28
ATOM     28  C   UNL     1       3.899   2.761  17.849  0.00  0.00    +0.000 C 
ATOM     29  C   UNL     1       3.376   1.757  18.903  0.00  0.00    +0.000 C 
ATOM     30  C   UNL     1       2.039   2.090  19.569  0.00  0.00    +0.000 C 
ATOM     31  C   UNL     1       1.002   2.626  18.594  0.00  0.00    +0.000 C 
ATOM     32  C   UNL     1       1.568   3.811  17.827  0.00  0.00    +0.000 C 
ATOM     33  C   UNL     1       2.767   3.366  17.001  0.00  0.00    +0.000 C 
ENDBRANCH  27  28
ENDBRANCH   2  27
TORSDOF 4
ENDMDL
MODEL 2
REMARK VINA RESULT:      -7.9      2.579      4.066
REMARK  Name = 
REMARK  4 active torsions:
REMARK  status: ('A' for Active; 'I' for Inactive)
REMARK    1  A    between atoms: C_2  and  C_3
REMARK    2  A    between atoms: C_3  and  C_4
REMARK    3  A    between atoms: C_20  and  C_21
REMARK    4  A    between atoms: C_26  and  N_27
REMARK                            x       y       z     vdW  Elec       q    Type
REMARK                         _______ _______ _______ _____ _____    ______ ____
ROOT
ATOM      1  O   UNL     1       3.994   5.199  20.058  0.00  0.00    +0.000 OA
ATOM      2  C   UNL     1       3.487   5.505  18.978  0.00  0.00    +0.000 C 
ATOM      3  N   UNL     1       2.352   6.296  18.909  0.00  0.00    +0.000 N 
ATOM      4  C   UNL     1       1.704   6.699  20.157  0.00  0.00    +0.000 C 
ATOM      5  C   UNL     1       1.915   8.198  20.404  0.00  0.00    +0.000 C 
ATOM      6  N   UNL     1       1.368   8.968  19.270  0.00  0.00    +0.000 N 
ATOM      7  C   UNL     1       0.251   9.785  19.358  0.00  0.00    +0.000 A 
ATOM      8  N   UNL     1      -0.539   9.945  18.353  0.00  0.00    +0.000 NA
ATOM      9  C   UNL     1      -1.683  10.690  18.341  0.00  0.00    +0.000 A 
ATOM     10  O   UNL     1      -2.432  10.665  17.365  0.00  0.00    +0.000 OA
ATOM     11  C   UNL     1      -2.086  11.578  19.460  0.00  0.00    +0.000 A 
ATOM     12  C   UNL     1      -3.269  12.342  19.317  0.00  0.00    +0.000 A 
ATOM     13  C   UNL     1      -3.727  13.198  20.329  0.00  0.00    +0.000 A 
ATOM     14  C   UNL     1      -2.965  13.310  21.495  0.00  0.00    +0.000 A 
ATOM     15  C   UNL     1      -1.793  12.546  21.630  0.00  0.00    +0.000 A 
ATOM     16  C   UNL     1      -1.346  11.653  20.638  0.00  0.00    +0.000 A 
ATOM     17  S   UNL     1       0.036  10.591  20.896  0.00  0.00    +0.000 S 
ATOM     18  C   UNL     1       1.941   8.573  17.961  0.00  0.00    +0.000 C 
ATOM     19  C   UNL     1       1.888   7.045  17.730  0.00  0.00    +0.000 C 
ENDROOT
BRANCH  13  20
ATOM     20  C   UNL     1      -5.015  13.978  20.191  0.00  0.00    +0.000 C 
ATOM     21  F   UNL     1      -5.884  13.778  21.215  0.00  0.00    +0.000 F 
ATOM     22  F   UNL     1      -4.792  15.320  20.138  0.00  0.00    +0.000 F 
ATOM     23  F   UNL     1      -5.687  13.660  19.053  0.00  0.00    +0.000 F 
ENDBRANCH  13  20
BRANCH  15  24
ATOM     24  N   UNL     1      -1.056  12.718  22.872  0.00  0.00    +0.000 N 
ATOM     25  O   UNL     1      -1.314  11.928  23.786  0.00  0.00    +0.000 OA
ATOM     26  O   UNL     1      -0.278  13.679  22.938  0.00  0.00    +0.000 OA
ENDBRANCH  15  24
BRANCH   2  27
ATOM     27  C   UNL     1       4.096   5.043  17.659  0.00  0.00    +0.000 C 
BRANCH  27  28
ATOM     28  C   UNL     1       5.264   5.933  17.181  0.00  0.00    +0.000 C 
ATOM     29  C   UNL     1       6.660   5.390  17.563  0.00  0.00    +0.000 C 
ATOM     30  C   UNL     1       7.333   4.451  16.559  0.00  0.00    +0.000 C 
ATOM     31  C   UNL     1       7.171   4.903  15.116  0.00  0.00    +0.000 C 
ATOM     32  C   UNL     1       5.700   5.119  14.797  0.00  0.00    +0.000 C 
ATOM     33  C   UNL     1       5.139   6.229  15.677  0.00  0.00    +0.000 C 
ENDBRANCH  27  28
ENDBRANCH   2  27
TORSDOF 4
ENDMDL
MODEL 3
REMARK VINA RESULT:      -7.8      5.271     10.329
REMARK  Name = 
REMARK  4 active torsions:
REMARK  status: ('A' for Active; 'I' for Inactive)
REMARK    1  A    between atoms: C_2  and  C_3
REMARK    2  A    between atoms: C_3  and  C_4
REMARK    3  A    between atoms: C_20  and  C_21
REMARK    4  A    between atoms: C_26  and  N_27
REMARK                            x       y       z     vdW  Elec       q    Type
REMARK                         _______ _______ _______ _____ _____    ______ ____
ROOT
ATOM      1  O   UNL     1      -0.934  10.631  23.834  0.00  0.00    +0.000 OA
ATOM      2  C   UNL     1      -0.660  11.161  22.757  0.00  0.00    +0.000 C 
ATOM      3  N   UNL     1       0.291  10.621  21.905  0.00  0.00    +0.000 N 
ATOM      4  C   UNL     1       1.036   9.443  22.347  0.00  0.00    +0.000 C 
ATOM      5  C   UNL     1       0.599   8.207  21.550  0.00  0.00    +0.000 C 
ATOM      6  N   UNL     1       0.820   8.445  20.110  0.00  0.00    +0.000 N 
ATOM      7  C   UNL     1       1.772   7.776  19.355  0.00  0.00    +0.000 A 
ATOM      8  N   UNL     1       2.358   8.351  18.362  0.00  0.00    +0.000 NA
ATOM      9  C   UNL     1       3.334   7.803  17.580  0.00  0.00    +0.000 A 
ATOM     10  O   UNL     1       3.919   8.490  16.742  0.00  0.00    +0.000 OA
ATOM     11  C   UNL     1       3.735   6.376  17.660  0.00  0.00    +0.000 A 
ATOM     12  C   UNL     1       4.726   5.907  16.764  0.00  0.00    +0.000 A 
ATOM     13  C   UNL     1       5.170   4.578  16.779  0.00  0.00    +0.000 A 
ATOM     14  C   UNL     1       4.585   3.695  17.692  0.00  0.00    +0.000 A 
ATOM     15  C   UNL     1       3.604   4.171  18.580  0.00  0.00    +0.000 A 
ATOM     16  C   UNL     1       3.181   5.513  18.601  0.00  0.00    +0.000 A 
ATOM     17  S   UNL     1       2.068   6.118  19.826  0.00  0.00    +0.000 S 
ATOM     18  C   UNL     1       0.136   9.658  19.603  0.00  0.00    +0.000 C 
ATOM     19  C   UNL     1       0.427  10.906  20.469  0.00  0.00    +0.000 C 
ENDROOT
BRANCH  13  20
ATOM     20  C   UNL     1       6.260   4.090  15.851  0.00  0.00    +0.000 C 
ATOM     21  F   UNL     1       7.496   4.099  16.413  0.00  0.00    +0.000 F 
ATOM     22  F   UNL     1       6.040   2.814  15.436  0.00  0.00    +0.000 F 
ATOM     23  F   UNL     1       6.348   4.846  14.724  0.00  0.00    +0.000 F 
ENDBRANCH  13  20
BRANCH  15  24
ATOM     24  N   UNL     1       3.045   3.192  19.499  0.00  0.00    +0.000 N 
ATOM     25  O   UNL     1       1.962   2.689  19.184  0.00  0.00    +0.000 OA
ATOM     26  O   UNL     1       3.664   2.988  20.551  0.00  0.00    +0.000 OA
ENDBRANCH  15  24
BRANCH   2  27
ATOM     27  C   UNL     1      -1.368  12.429  22.296  0.00  0.00    +0.000 C 
BRANCH  27  28
ATOM     28  C   UNL     1      -2.907  12.338  22.391  0.00  0.00    +0.000 C 
ATOM     29  C   UNL     1      -3.484  12.882  23.718  0.00  0.00    +0.000 C 
ATOM     30  C   UNL     1      -3.850  14.368  23.753  0.00  0.00    +0.000 C 
ATOM     31  C   UNL     1      -4.542  14.844  22.485  0.00  0.00    +0.000 C 
ATOM     32  C   UNL     1      -3.703  14.492  21.266  0.00  0.00    +0.000 C 
ATOM     33  C   UNL     1      -3.564  12.979  21.156  0.00  0.00    +0.000 C 
ENDBRANCH  27  28
ENDBRANCH   2  27
TORSDOF 4
ENDMDL
MODEL 4
REMARK VINA RESULT:      -7.7      5.307     10.454
REMARK  Name = 
REMARK  4 active torsions:
REMARK  status: ('A' for Active; 'I' for Inactive)
REMARK    1  A    between atoms: C_2  and  C_3
REMARK    2  A    between atoms: C_3  and  C_4
REMARK    3  A    between atoms: C_20  and  C_21
REMARK    4  A    between atoms: C_26  and  N_27
REMARK                            x       y       z     vdW  Elec       q    Type
REMARK                         _______ _______ _______ _____ _____    ______ ____
ROOT
ATOM      1  O   UNL     1      -0.823  10.382  23.823  0.00  0.00    +0.000 OA
ATOM      2  C   UNL     1      -0.564  10.938  22.755  0.00  0.00    +0.000 C 
ATOM      3  N   UNL     1       0.386  10.428  21.885  0.00  0.00    +0.000 N 
ATOM      4  C   UNL     1       1.150   9.251  22.297  0.00  0.00    +0.000 C 
ATOM      5  C   UNL     1       0.722   8.026  21.478  0.00  0.00    +0.000 C 
ATOM      6  N   UNL     1       0.928   8.296  20.042  0.00  0.00    +0.000 N 
ATOM      7  C   UNL     1       1.882   7.655  19.265  0.00  0.00    +0.000 A 
ATOM      8  N   UNL     1       2.452   8.258  18.280  0.00  0.00    +0.000 NA
ATOM      9  C   UNL     1       3.428   7.738  17.478  0.00  0.00    +0.000 A 
ATOM     10  O   UNL     1       3.997   8.450  16.650  0.00  0.00    +0.000 OA
ATOM     11  C   UNL     1       3.849   6.315  17.526  0.00  0.00    +0.000 A 
ATOM     12  C   UNL     1       4.837   5.877  16.612  0.00  0.00    +0.000 A 
ATOM     13  C   UNL     1       5.299   4.553  16.597  0.00  0.00    +0.000 A 
ATOM     14  C   UNL     1       4.733   3.645  17.497  0.00  0.00    +0.000 A 
ATOM     15  C   UNL     1       3.754   4.090  18.402  0.00  0.00    +0.000 A 
ATOM     16  C   UNL     1       3.313   5.426  18.454  0.00  0.00    +0.000 A 
ATOM     17  S   UNL     1       2.203   5.991  19.700  0.00  0.00    +0.000 S 
ATOM     18  C   UNL     1       0.224   9.509  19.565  0.00  0.00    +0.000 C 
ATOM     19  C   UNL     1       0.507  10.744  20.453  0.00  0.00    +0.000 C 
ENDROOT
BRANCH  13  20
ATOM     20  C   UNL     1       6.387   4.099  15.650  0.00  0.00    +0.000 C 
ATOM     21  F   UNL     1       6.153   2.879  15.101  0.00  0.00    +0.000 F 
ATOM     22  F   UNL     1       6.547   4.961  14.609  0.00  0.00    +0.000 F 
ATOM     23  F   UNL     1       7.597   4.016  16.264  0.00  0.00    +0.000 F 
ENDBRANCH  13  20
BRANCH  15  24
ATOM     24  N   UNL     1       3.214   3.085  19.306  0.00  0.00    +0.000 N 
ATOM     25  O   UNL     1       2.233   2.450  18.908  0.00  0.00    +0.000 OA
ATOM     26  O   UNL     1       3.740   2.991  20.422  0.00  0.00    +0.000 OA
ENDBRANCH  15  24
BRANCH   2  27
ATOM     27  C   UNL     1      -1.292  12.206  22.326  0.00  0.00    +0.000 C 
BRANCH  27  28
ATOM     28  C   UNL     1      -2.017  12.917  23.490  0.00  0.00    +0.000 C 
ATOM     29  C   UNL     1      -1.678  14.421  23.610  0.00  0.00    +0.000 C 
ATOM     30  C   UNL     1      -2.568  15.394  22.832  0.00  0.00    +0.000 C 
ATOM     31  C   UNL     1      -4.045  15.040  22.903  0.00  0.00    +0.000 C 
ATOM     32  C   UNL     1      -4.260  13.598  22.469  0.00  0.00    +0.000 C 
ATOM     33  C   UNL     1      -3.532  12.659  23.422  0.00  0.00    +0.000 C 
ENDBRANCH  27  28
ENDBRANCH   2  27
TORSDOF 4
ENDMDL
MODEL 5
REMARK VINA RESULT:      -7.6      2.833      4.376
REMARK  Name = 
REMARK  4 active torsions:
REMARK  status: ('A' for Active; 'I' for Inactive)
REMARK    1  A    between atoms: C_2  and  C_3
REMARK    2  A    between atoms: C_3  and  C_4
REMARK    3  A    between atoms: C_20  and  C_21
REMARK    4  A    between atoms: C_26  and  N_27
REMARK                            x       y       z     vdW  Elec       q    Type
REMARK                         _______ _______ _______ _____ _____    ______ ____
ROOT
ATOM      1  O   UNL     1       3.794   5.927  19.950  0.00  0.00    +0.000 OA
ATOM      2  C   UNL     1       3.459   6.423  18.874  0.00  0.00    +0.000 C 
ATOM      3  N   UNL     1       2.284   7.147  18.745  0.00  0.00    +0.000 N 
ATOM      4  C   UNL     1       1.392   7.243  19.900  0.00  0.00    +0.000 C 
ATOM      5  C   UNL     1       1.414   8.666  20.471  0.00  0.00    +0.000 C 
ATOM      6  N   UNL     1       1.006   9.625  19.426  0.00  0.00    +0.000 N 
ATOM      7  C   UNL     1      -0.181  10.342  19.457  0.00  0.00    +0.000 A 
ATOM      8  N   UNL     1      -0.792  10.665  18.370  0.00  0.00    +0.000 NA
ATOM      9  C   UNL     1      -1.980  11.331  18.285  0.00  0.00    +0.000 A 
ATOM     10  O   UNL     1      -2.540  11.470  17.197  0.00  0.00    +0.000 OA
ATOM     11  C   UNL     1      -2.657  11.941  19.458  0.00  0.00    +0.000 A 
ATOM     12  C   UNL     1      -3.862  12.651  19.242  0.00  0.00    +0.000 A 
ATOM     13  C   UNL     1      -4.570  13.248  20.295  0.00  0.00    +0.000 A 
ATOM     14  C   UNL     1      -4.039  13.156  21.585  0.00  0.00    +0.000 A 
ATOM     15  C   UNL     1      -2.843  12.446  21.789  0.00  0.00    +0.000 A 
ATOM     16  C   UNL     1      -2.146  11.808  20.746  0.00  0.00    +0.000 A 
ATOM     17  S   UNL     1      -0.738  10.794  21.052  0.00  0.00    +0.000 S 
ATOM     18  C   UNL     1       1.836   9.546  18.201  0.00  0.00    +0.000 C 
ATOM     19  C   UNL     1       1.968   8.099  17.669  0.00  0.00    +0.000 C 
ENDROOT
BRANCH  13  20
ATOM     20  C   UNL     1      -5.880  13.968  20.068  0.00  0.00    +0.000 C 
ATOM     21  F   UNL     1      -6.009  14.478  18.816  0.00  0.00    +0.000 F 
ATOM     22  F   UNL     1      -6.949  13.148  20.256  0.00  0.00    +0.000 F 
ATOM     23  F   UNL     1      -6.046  15.011  20.924  0.00  0.00    +0.000 F 
ENDBRANCH  13  20
BRANCH  15  24
ATOM     24  N   UNL     1      -2.356  12.395  23.160  0.00  0.00    +0.000 N 
ATOM     25  O   UNL     1      -2.914  11.596  23.918  0.00  0.00    +0.000 OA
ATOM     26  O   UNL     1      -1.469  13.199  23.473  0.00  0.00    +0.000 OA
ENDBRANCH  15  24
BRANCH   2  27
ATOM     27  C   UNL     1       4.331   6.283  17.632  0.00  0.00    +0.000 C 
BRANCH  27  28
ATOM     28  C   UNL     1       5.023   4.907  17.525  0.00  0.00    +0.000 C 
ATOM     29  C   UNL     1       4.652   4.119  16.246  0.00  0.00    +0.000 C 
ATOM     30  C   UNL     1       5.533   4.346  15.016  0.00  0.00    +0.000 C 
ATOM     31  C   UNL     1       7.016   4.411  15.346  0.00  0.00    +0.000 C 
ATOM     32  C   UNL     1       7.268   5.451  16.427  0.00  0.00    +0.000 C 
ATOM     33  C   UNL     1       6.544   5.050  17.706  0.00  0.00    +0.000 C 
ENDBRANCH  27  28
ENDBRANCH   2  27
TORSDOF 4
ENDMDL
MODEL 6
REMARK VINA RESULT:      -7.6      5.235     10.480
REMARK  Name = 
REMARK  4 active torsions:
REMARK  status: ('A' for Active; 'I' for Inactive)
REMARK    1  A    between atoms: C_2  and  C_3
REMARK    2  A    between atoms: C_3  and  C_4
REMARK    3  A    between atoms: C_20  and  C_21
REMARK    4  A    between atoms: C_26  and  N_27
REMARK                            x       y       z     vdW  Elec       q    Type
REMARK                         _______ _______ _______ _____ _____    ______ ____
ROOT
ATOM      1  O   UNL     1      -1.044  10.726  23.729  0.00  0.00    +0.000 OA
ATOM      2  C   UNL     1      -0.731  11.255  22.662  0.00  0.00    +0.000 C 
ATOM      3  N   UNL     1       0.236  10.704  21.837  0.00  0.00    +0.000 N 
ATOM      4  C   UNL     1       0.951   9.514  22.296  0.00  0.00    +0.000 C 
ATOM      5  C   UNL     1       0.519   8.288  21.482  0.00  0.00    +0.000 C 
ATOM      6  N   UNL     1       0.785   8.526  20.050  0.00  0.00    +0.000 N 
ATOM      7  C   UNL     1       1.749   7.846  19.320  0.00  0.00    +0.000 A 
ATOM      8  N   UNL     1       2.372   8.416  18.347  0.00  0.00    +0.000 NA
ATOM      9  C   UNL     1       3.362   7.856  17.591  0.00  0.00    +0.000 A 
ATOM     10  O   UNL     1       3.981   8.537  16.774  0.00  0.00    +0.000 OA
ATOM     11  C   UNL     1       3.740   6.423  17.678  0.00  0.00    +0.000 A 
ATOM     12  C   UNL     1       4.749   5.943  16.809  0.00  0.00    +0.000 A 
ATOM     13  C   UNL     1       5.174   4.606  16.833  0.00  0.00    +0.000 A 
ATOM     14  C   UNL     1       4.550   3.730  17.726  0.00  0.00    +0.000 A 
ATOM     15  C   UNL     1       3.551   4.217  18.586  0.00  0.00    +0.000 A 
ATOM     16  C   UNL     1       3.146   5.565  18.600  0.00  0.00    +0.000 A 
ATOM     17  S   UNL     1       2.007   6.182  19.795  0.00  0.00    +0.000 S 
ATOM     18  C   UNL     1       0.134   9.750  19.528  0.00  0.00    +0.000 C 
ATOM     19  C   UNL     1       0.418  10.992  20.406  0.00  0.00    +0.000 C 
ENDROOT
BRANCH  13  20
ATOM     20  C   UNL     1       6.283   4.106  15.935  0.00  0.00    +0.000 C 
ATOM     21  F   UNL     1       7.487   4.018  16.557  0.00  0.00    +0.000 F 
ATOM     22  F   UNL     1       6.017   2.866  15.442  0.00  0.00    +0.000 F 
ATOM     23  F   UNL     1       6.470   4.912  14.856  0.00  0.00    +0.000 F 
ENDBRANCH  13  20
BRANCH  15  24
ATOM     24  N   UNL     1       2.951   3.243  19.485  0.00  0.00    +0.000 N 
ATOM     25  O   UNL     1       3.586   2.965  20.507  0.00  0.00    +0.000 OA
ATOM     26  O   UNL     1       1.886   2.724  19.126  0.00  0.00    +0.000 OA
ENDBRANCH  15  24
BRANCH   2  27
ATOM     27  C   UNL     1      -1.407  12.535  22.186  0.00  0.00    +0.000 C 
BRANCH  27  28
ATOM     28  C   UNL     1      -1.287  13.700  23.193  0.00  0.00    +0.000 C 
ATOM     29  C   UNL     1      -0.679  14.987  22.590  0.00  0.00    +0.000 C 
ATOM     30  C   UNL     1      -1.657  15.990  21.973  0.00  0.00    +0.000 C 
ATOM     31  C   UNL     1      -2.920  16.179  22.800  0.00  0.00    +0.000 C 
ATOM     32  C   UNL     1      -3.576  14.834  23.069  0.00  0.00    +0.000 C 
ATOM     33  C   UNL     1      -2.637  13.956  23.886  0.00  0.00    +0.000 C 
ENDBRANCH  27  28
ENDBRANCH   2  27
TORSDOF 4
ENDMDL
MODEL 7
REMARK VINA RESULT:      -7.6      4.911      9.965
REMARK  Name = 
REMARK  4 active torsions:
REMARK  status: ('A' for Active; 'I' for Inactive)
REMARK    1  A    between atoms: C_2  and  C_3
REMARK    2  A    between atoms: C_3  and  C_4
REMARK    3  A    between atoms: C_20  and  C_21
REMARK    4  A    between atoms: C_26  and  N_27
REMARK                            x       y       z     vdW  Elec       q    Type
REMARK                         _______ _______ _______ _____ _____    ______ ____
ROOT
ATOM      1  O   UNL     1      -0.708  13.361  18.762  0.00  0.00    +0.000 OA
ATOM      2  C   UNL     1      -0.916  12.653  19.749  0.00  0.00    +0.000 C 
ATOM      3  N   UNL     1      -0.636  11.296  19.739  0.00  0.00    +0.000 N 
ATOM      4  C   UNL     1      -0.164  10.689  18.495  0.00  0.00    +0.000 C 
ATOM      5  C   UNL     1       1.317  10.308  18.618  0.00  0.00    +0.000 C 
ATOM      6  N   UNL     1       1.493   9.372  19.746  0.00  0.00    +0.000 N 
ATOM      7  C   UNL     1       1.846   8.040  19.595  0.00  0.00    +0.000 A 
ATOM      8  N   UNL     1       1.428   7.143  20.420  0.00  0.00    +0.000 NA
ATOM      9  C   UNL     1       1.680   5.803  20.344  0.00  0.00    +0.000 A 
ATOM     10  O   UNL     1       1.119   5.020  21.110  0.00  0.00    +0.000 OA
ATOM     11  C   UNL     1       2.637   5.208  19.376  0.00  0.00    +0.000 A 
ATOM     12  C   UNL     1       2.854   3.810  19.422  0.00  0.00    +0.000 A 
ATOM     13  C   UNL     1       3.732   3.167  18.538  0.00  0.00    +0.000 A 
ATOM     14  C   UNL     1       4.429   3.949  17.611  0.00  0.00    +0.000 A 
ATOM     15  C   UNL     1       4.203   5.336  17.572  0.00  0.00    +0.000 A 
ATOM     16  C   UNL     1       3.293   5.986  18.426  0.00  0.00    +0.000 A 
ATOM     17  S   UNL     1       2.913   7.698  18.251  0.00  0.00    +0.000 S 
ATOM     18  C   UNL     1       0.986   9.902  21.033  0.00  0.00    +0.000 C 
ATOM     19  C   UNL     1      -0.460  10.440  20.922  0.00  0.00    +0.000 C 
ENDROOT
BRANCH  13  20
ATOM     20  C   UNL     1       3.929   1.668  18.559  0.00  0.00    +0.000 C 
ATOM     21  F   UNL     1       4.770   1.246  19.538  0.00  0.00    +0.000 F 
ATOM     22  F   UNL     1       2.757   1.005  18.753  0.00  0.00    +0.000 F 
ATOM     23  F   UNL     1       4.441   1.202  17.389  0.00  0.00    +0.000 F 
ENDBRANCH  13  20
BRANCH  15  24
ATOM     24  N   UNL     1       4.965   6.080  16.580  0.00  0.00    +0.000 N 
ATOM     25  O   UNL     1       4.900   5.678  15.414  0.00  0.00    +0.000 OA
ATOM     26  O   UNL     1       5.666   7.013  16.990  0.00  0.00    +0.000 OA
ENDBRANCH  15  24
BRANCH   2  27
ATOM     27  C   UNL     1      -1.474  13.240  21.040  0.00  0.00    +0.000 C 
BRANCH  27  28
ATOM     28  C   UNL     1      -2.922  12.793  21.338  0.00  0.00    +0.000 C 
ATOM     29  C   UNL     1      -3.158  12.381  22.810  0.00  0.00    +0.000 C 
ATOM     30  C   UNL     1      -3.598  13.486  23.773  0.00  0.00    +0.000 C 
ATOM     31  C   UNL     1      -4.634  14.425  23.174  0.00  0.00    +0.000 C 
ATOM     32  C   UNL     1      -4.130  14.987  21.854  0.00  0.00    +0.000 C 
ATOM     33  C   UNL     1      -3.926  13.854  20.856  0.00  0.00    +0.000 C 
ENDBRANCH  27  28
ENDBRANCH   2  27
TORSDOF 4
ENDMDL
MODEL 8
REMARK VINA RESULT:      -7.6      4.935      9.988
REMARK  Name = 
REMARK  4 active torsions:
REMARK  status: ('A' for Active; 'I' for Inactive)
REMARK    1  A    between atoms: C_2  and  C_3
REMARK    2  A    between atoms: C_3  and  C_4
REMARK    3  A    between atoms: C_20  and  C_21
REMARK    4  A    between atoms: C_26  and  N_27
REMARK                            x       y       z     vdW  Elec       q    Type
REMARK                         _______ _______ _______ _____ _____    ______ ____
ROOT
ATOM      1  O   UNL     1      -0.733  13.374  18.704  0.00  0.00    +0.000 OA
ATOM      2  C   UNL     1      -0.947  12.666  19.689  0.00  0.00    +0.000 C 
ATOM      3  N   UNL     1      -0.667  11.309  19.680  0.00  0.00    +0.000 N 
ATOM      4  C   UNL     1      -0.187  10.702  18.439  0.00  0.00    +0.000 C 
ATOM      5  C   UNL     1       1.293  10.322  18.571  0.00  0.00    +0.000 C 
ATOM      6  N   UNL     1       1.463   9.385  19.699  0.00  0.00    +0.000 N 
ATOM      7  C   UNL     1       1.817   8.052  19.549  0.00  0.00    +0.000 A 
ATOM      8  N   UNL     1       1.394   7.155  20.371  0.00  0.00    +0.000 NA
ATOM      9  C   UNL     1       1.646   5.815  20.296  0.00  0.00    +0.000 A 
ATOM     10  O   UNL     1       1.081   5.032  21.059  0.00  0.00    +0.000 OA
ATOM     11  C   UNL     1       2.608   5.221  19.333  0.00  0.00    +0.000 A 
ATOM     12  C   UNL     1       2.826   3.823  19.379  0.00  0.00    +0.000 A 
ATOM     13  C   UNL     1       3.709   3.181  18.500  0.00  0.00    +0.000 A 
ATOM     14  C   UNL     1       4.411   3.963  17.578  0.00  0.00    +0.000 A 
ATOM     15  C   UNL     1       4.186   5.350  17.538  0.00  0.00    +0.000 A 
ATOM     16  C   UNL     1       3.271   6.000  18.388  0.00  0.00    +0.000 A 
ATOM     17  S   UNL     1       2.891   7.711  18.211  0.00  0.00    +0.000 S 
ATOM     18  C   UNL     1       0.948   9.914  20.984  0.00  0.00    +0.000 C 
ATOM     19  C   UNL     1      -0.498  10.452  20.864  0.00  0.00    +0.000 C 
ENDROOT
BRANCH  13  20
ATOM     20  C   UNL     1       3.906   1.682  18.522  0.00  0.00    +0.000 C 
ATOM     21  F   UNL     1       2.759   0.987  18.738  0.00  0.00    +0.000 F 
ATOM     22  F   UNL     1       4.415   1.219  17.349  0.00  0.00    +0.000 F 
ATOM     23  F   UNL     1       4.776   1.294  19.493  0.00  0.00    +0.000 F 
ENDBRANCH  13  20
BRANCH  15  24
ATOM     24  N   UNL     1       4.953   6.094  16.551  0.00  0.00    +0.000 N 
ATOM     25  O   UNL     1       4.880   5.704  15.381  0.00  0.00    +0.000 OA
ATOM     26  O   UNL     1       5.666   7.015  16.968  0.00  0.00    +0.000 OA
ENDBRANCH  15  24
BRANCH   2  27
ATOM     27  C   UNL     1      -1.512  13.252  20.978  0.00  0.00    +0.000 C 
BRANCH  27  28
ATOM     28  C   UNL     1      -2.823  14.040  20.766  0.00  0.00    +0.000 C 
ATOM     29  C   UNL     1      -4.028  13.155  20.371  0.00  0.00    +0.000 C 
ATOM     30  C   UNL     1      -4.877  12.596  21.515  0.00  0.00    +0.000 C 
ATOM     31  C   UNL     1      -5.133  13.610  22.620  0.00  0.00    +0.000 C 
ATOM     32  C   UNL     1      -3.818  14.188  23.116  0.00  0.00    +0.000 C 
ATOM     33  C   UNL     1      -3.121  14.931  21.984  0.00  0.00    +0.000 C 
ENDBRANCH  27  28
ENDBRANCH   2  27
TORSDOF 4
ENDMDL
MODEL 9
REMARK VINA RESULT:      -7.5      4.879     10.050
REMARK  Name = 
REMARK  4 active torsions:
REMARK  status: ('A' for Active; 'I' for Inactive)
REMARK    1  A    between atoms: C_2  and  C_3
REMARK    2  A    between atoms: C_3  and  C_4
REMARK    3  A    between atoms: C_20  and  C_21
REMARK    4  A    between atoms: C_26  and  N_27
REMARK                            x       y       z     vdW  Elec       q    Type
REMARK                         _______ _______ _______ _____ _____    ______ ____
ROOT
ATOM      1  O   UNL     1      -2.483  12.453  23.982  0.00  0.00    +0.000 OA
ATOM      2  C   UNL     1      -2.200  12.891  22.866  0.00  0.00    +0.000 C 
ATOM      3  N   UNL     1      -1.202  12.317  22.095  0.00  0.00    +0.000 N 
ATOM      4  C   UNL     1      -0.420  11.221  22.667  0.00  0.00    +0.000 C 
ATOM      5  C   UNL     1      -0.780   9.897  21.981  0.00  0.00    +0.000 C 
ATOM      6  N   UNL     1      -0.526  10.007  20.531  0.00  0.00    +0.000 N 
ATOM      7  C   UNL     1       0.476   9.314  19.868  0.00  0.00    +0.000 A 
ATOM      8  N   UNL     1       1.066   9.819  18.840  0.00  0.00    +0.000 NA
ATOM      9  C   UNL     1       2.088   9.245  18.139  0.00  0.00    +0.000 A 
ATOM     10  O   UNL     1       2.667   9.875  17.255  0.00  0.00    +0.000 OA
ATOM     11  C   UNL     1       2.548   7.851  18.366  0.00  0.00    +0.000 A 
ATOM     12  C   UNL     1       3.584   7.345  17.545  0.00  0.00    +0.000 A 
ATOM     13  C   UNL     1       4.084   6.045  17.699  0.00  0.00    +0.000 A 
ATOM     14  C   UNL     1       3.510   5.227  18.677  0.00  0.00    +0.000 A 
ATOM     15  C   UNL     1       2.484   5.739  19.489  0.00  0.00    +0.000 A 
ATOM     16  C   UNL     1       2.003   7.057  19.371  0.00  0.00    +0.000 A 
ATOM     17  S   UNL     1       0.829   7.723  20.504  0.00  0.00    +0.000 S 
ATOM     18  C   UNL     1      -1.246  11.134  19.893  0.00  0.00    +0.000 C 
ATOM     19  C   UNL     1      -1.034  12.471  20.642  0.00  0.00    +0.000 C 
ENDROOT
BRANCH  13  20
ATOM     20  C   UNL     1       5.221   5.522  16.850  0.00  0.00    +0.000 C 
ATOM     21  F   UNL     1       4.949   4.334  16.250  0.00  0.00    +0.000 F 
ATOM     22  F   UNL     1       5.548   6.386  15.851  0.00  0.00    +0.000 F 
ATOM     23  F   UNL     1       6.356   5.333  17.575  0.00  0.00    +0.000 F 
ENDBRANCH  13  20
BRANCH  15  24
ATOM     24  N   UNL     1       1.940   4.827  20.484  0.00  0.00    +0.000 N 
ATOM     25  O   UNL     1       2.554   4.739  21.552  0.00  0.00    +0.000 OA
ATOM     26  O   UNL     1       0.946   4.165  20.158  0.00  0.00    +0.000 OA
ENDBRANCH  15  24
BRANCH   2  27
ATOM     27  C   UNL     1      -2.947  14.076  22.268  0.00  0.00    +0.000 C 
BRANCH  27  28
ATOM     28  C   UNL     1      -4.481  13.891  22.263  0.00  0.00    +0.000 C 
ATOM     29  C   UNL     1      -5.263  15.169  21.882  0.00  0.00    +0.000 C 
ATOM     30  C   UNL     1      -5.564  15.378  20.396  0.00  0.00    +0.000 C 
ATOM     31  C   UNL     1      -5.995  14.102  19.689  0.00  0.00    +0.000 C 
ATOM     32  C   UNL     1      -4.968  13.004  19.914  0.00  0.00    +0.000 C 
ATOM     33  C   UNL     1      -4.877  12.681  21.400  0.00  0.00    +0.000 C 
ENDBRANCH  27  28
ENDBRANCH   2  27
TORSDOF 4
ENDMDL
