MODEL 1
REMARK VINA RESULT:      -7.6      0.000      0.000
REMARK  Name = 
REMARK  7 active torsions:
REMARK  status: ('A' for Active; 'I' for Inactive)
REMARK    1  A    between atoms: C_1  and  C_2
REMARK    2  A    between atoms: C_2  and  C_3
REMARK    3  A    between atoms: C_2  and  C_4
REMARK    4  A    between atoms: C_4  and  C_5
REMARK    5  A    between atoms: C_4  and  C_18
REMARK    6  A    between atoms: C_5  and  C_6
REMARK    7  A    between atoms: C_6  and  N_7
REMARK                            x       y       z     vdW  Elec       q    Type
REMARK                         _______ _______ _______ _____ _____    ______ ____
ROOT
ATOM      1  C   UNL     1       3.847   3.389  17.141  0.00  0.00    +0.000 C 
ENDROOT
BRANCH   1   2
ATOM      2  N   UNL     1       4.920   4.322  17.440  0.00  0.00    +0.000 N 
ATOM      3  C   UNL     1       5.318   5.322  16.598  0.00  0.00    +0.000 C 
ATOM      4  O   UNL     1       4.910   5.608  15.491  0.00  0.00    +0.000 OA
ATOM      5  C   UNL     1       6.388   6.045  17.290  0.00  0.00    +0.000 A 
ATOM      6  C   UNL     1       7.115   7.156  16.902  0.00  0.00    +0.000 A 
ATOM      7  C   UNL     1       8.076   7.634  17.799  0.00  0.00    +0.000 A 
ATOM      8  C   UNL     1       8.285   6.998  19.042  0.00  0.00    +0.000 A 
ATOM      9  C   UNL     1       7.538   5.872  19.407  0.00  0.00    +0.000 A 
ATOM     10  C   UNL     1       6.595   5.421  18.506  0.00  0.00    +0.000 A 
ATOM     11  C   UNL     1       5.660   4.299  18.593  0.00  0.00    +0.000 C 
ATOM     12  O   UNL     1       5.602   3.532  19.536  0.00  0.00    +0.000 OA
ENDBRANCH   1   2
BRANCH   1  13
ATOM     13  C   UNL     1       2.471   3.973  17.484  0.00  0.00    +0.000 C 
BRANCH  13  14
ATOM     14  C   UNL     1       2.288   4.353  18.975  0.00  0.00    +0.000 C 
BRANCH  14  15
ATOM     15  C   UNL     1       2.211   5.852  19.091  0.00  0.00    +0.000 A 
ATOM     16  C   UNL     1       2.398   6.887  18.199  0.00  0.00    +0.000 A 
ATOM     17  C   UNL     1       2.154   8.083  18.920  0.00  0.00    +0.000 A 
ATOM     18  C   UNL     1       1.843   7.703  20.203  0.00  0.00    +0.000 A 
ATOM     19  O   UNL     1       1.851   6.353  20.310  0.00  0.00    +0.000 OA
ENDBRANCH  14  15
BRANCH  14  21
ATOM     20  C   UNL     1       0.527   2.451  18.945  0.00  0.00    +0.000 C 
ATOM     21  C   UNL     1       1.095   3.655  19.706  0.00  0.00    +0.000 C 
ATOM     22  C   UNL     1       1.500   3.176  21.111  0.00  0.00    +0.000 C 
ENDBRANCH  14  21
ENDBRANCH  13  14
ENDBRANCH   1  13
TORSDOF 5
ENDMDL
MODEL 2
REMARK VINA RESULT:      -7.4      2.203      6.445
REMARK  Name = 
REMARK  7 active torsions:
REMARK  status: ('A' for Active; 'I' for Inactive)
REMARK    1  A    between atoms: C_1  and  C_2
REMARK    2  A    between atoms: C_2  and  C_3
REMARK    3  A    between atoms: C_2  and  C_4
REMARK    4  A    between atoms: C_4  and  C_5
REMARK    5  A    between atoms: C_4  and  C_18
REMARK    6  A    between atoms: C_5  and  C_6
REMARK    7  A    between atoms: C_6  and  N_7
REMARK                            x       y       z     vdW  Elec       q    Type
REMARK                         _______ _______ _______ _____ _____    ______ ____
ROOT
ATOM      1  C   UNL     1       4.198   3.809  16.412  0.00  0.00    +0.000 C 
ENDROOT
BRANCH   1   2
ATOM      2  N   UNL     1       3.540   3.534  17.677  0.00  0.00    +0.000 N 
ATOM      3  C   UNL     1       4.200   3.160  18.815  0.00  0.00    +0.000 C 
ATOM      4  O   UNL     1       5.385   2.966  18.991  0.00  0.00    +0.000 OA
ATOM      5  C   UNL     1       3.181   3.021  19.858  0.00  0.00    +0.000 A 
ATOM      6  C   UNL     1       3.308   2.694  21.196  0.00  0.00    +0.000 A 
ATOM      7  C   UNL     1       2.134   2.655  21.957  0.00  0.00    +0.000 A 
ATOM      8  C   UNL     1       0.883   2.937  21.369  0.00  0.00    +0.000 A 
ATOM      9  C   UNL     1       0.783   3.261  20.011  0.00  0.00    +0.000 A 
ATOM     10  C   UNL     1       1.955   3.294  19.282  0.00  0.00    +0.000 A 
ATOM     11  C   UNL     1       2.186   3.607  17.873  0.00  0.00    +0.000 C 
ATOM     12  O   UNL     1       1.302   3.873  17.079  0.00  0.00    +0.000 OA
ENDBRANCH   1   2
BRANCH   1  13
ATOM     13  C   UNL     1       4.986   5.124  16.453  0.00  0.00    +0.000 C 
BRANCH  13  14
ATOM     14  C   UNL     1       6.522   4.956  16.333  0.00  0.00    +0.000 C 
BRANCH  14  15
ATOM     15  C   UNL     1       6.889   4.847  14.877  0.00  0.00    +0.000 A 
ATOM     16  C   UNL     1       6.382   4.123  13.818  0.00  0.00    +0.000 A 
ATOM     17  C   UNL     1       7.156   4.479  12.685  0.00  0.00    +0.000 A 
ATOM     18  C   UNL     1       8.088   5.387  13.125  0.00  0.00    +0.000 A 
ATOM     19  O   UNL     1       7.919   5.634  14.446  0.00  0.00    +0.000 OA
ENDBRANCH  14  15
BRANCH  14  21
ATOM     20  C   UNL     1       6.674   7.400  17.185  0.00  0.00    +0.000 C 
ATOM     21  C   UNL     1       7.376   6.043  17.064  0.00  0.00    +0.000 C 
ATOM     22  C   UNL     1       7.769   5.588  18.481  0.00  0.00    +0.000 C 
ENDBRANCH  14  21
ENDBRANCH  13  14
ENDBRANCH   1  13
TORSDOF 5
ENDMDL
MODEL 3
REMARK VINA RESULT:      -7.4      0.740      2.073
REMARK  Name = 
REMARK  7 active torsions:
REMARK  status: ('A' for Active; 'I' for Inactive)
REMARK    1  A    between atoms: C_1  and  C_2
REMARK    2  A    between atoms: C_2  and  C_3
REMARK    3  A    between atoms: C_2  and  C_4
REMARK    4  A    between atoms: C_4  and  C_5
REMARK    5  A    between atoms: C_4  and  C_18
REMARK    6  A    between atoms: C_5  and  C_6
REMARK    7  A    between atoms: C_6  and  N_7
REMARK                            x       y       z     vdW  Elec       q    Type
REMARK                         _______ _______ _______ _____ _____    ______ ____
ROOT
ATOM      1  C   UNL     1       3.509   3.969  17.213  0.00  0.00    +0.000 C 
ENDROOT
BRANCH   1   2
ATOM      2  N   UNL     1       4.650   4.793  17.572  0.00  0.00    +0.000 N 
ATOM      3  C   UNL     1       5.503   4.508  18.602  0.00  0.00    +0.000 C 
ATOM      4  O   UNL     1       5.476   3.589  19.394  0.00  0.00    +0.000 OA
ATOM      5  C   UNL     1       6.524   5.558  18.597  0.00  0.00    +0.000 A 
ATOM      6  C   UNL     1       7.634   5.732  19.403  0.00  0.00    +0.000 A 
ATOM      7  C   UNL     1       8.444   6.842  19.141  0.00  0.00    +0.000 A 
ATOM      8  C   UNL     1       8.129   7.738  18.098  0.00  0.00    +0.000 A 
ATOM      9  C   UNL     1       6.996   7.540  17.299  0.00  0.00    +0.000 A 
ATOM     10  C   UNL     1       6.213   6.437  17.576  0.00  0.00    +0.000 A 
ATOM     11  C   UNL     1       4.995   5.953  16.929  0.00  0.00    +0.000 C 
ATOM     12  O   UNL     1       4.445   6.517  16.002  0.00  0.00    +0.000 OA
ENDBRANCH   1   2
BRANCH   1  13
ATOM     13  C   UNL     1       2.201   4.521  17.793  0.00  0.00    +0.000 C 
BRANCH  13  14
ATOM     14  C   UNL     1       2.204   4.699  19.332  0.00  0.00    +0.000 C 
BRANCH  14  15
ATOM     15  C   UNL     1       1.981   6.152  19.656  0.00  0.00    +0.000 A 
ATOM     16  C   UNL     1       1.557   6.823  20.784  0.00  0.00    +0.000 A 
ATOM     17  C   UNL     1       1.580   8.202  20.459  0.00  0.00    +0.000 A 
ATOM     18  C   UNL     1       2.006   8.284  19.156  0.00  0.00    +0.000 A 
ATOM     19  O   UNL     1       2.274   7.050  18.669  0.00  0.00    +0.000 OA
ENDBRANCH  14  15
BRANCH  14  21
ATOM     20  C   UNL     1       0.651   2.624  19.278  0.00  0.00    +0.000 C 
ATOM     21  C   UNL     1       1.220   3.773  20.118  0.00  0.00    +0.000 C 
ATOM     22  C   UNL     1       1.895   3.161  21.359  0.00  0.00    +0.000 C 
ENDBRANCH  14  21
ENDBRANCH  13  14
ENDBRANCH   1  13
TORSDOF 5
ENDMDL
MODEL 4
REMARK VINA RESULT:      -7.3      2.292      5.902
REMARK  Name = 
REMARK  7 active torsions:
REMARK  status: ('A' for Active; 'I' for Inactive)
REMARK    1  A    between atoms: C_1  and  C_2
REMARK    2  A    between atoms: C_2  and  C_3
REMARK    3  A    between atoms: C_2  and  C_4
REMARK    4  A    between atoms: C_4  and  C_5
REMARK    5  A    between atoms: C_4  and  C_18
REMARK    6  A    between atoms: C_5  and  C_6
REMARK    7  A    between atoms: C_6  and  N_7
REMARK                            x       y       z     vdW  Elec       q    Type
REMARK                         _______ _______ _______ _____ _____    ______ ____
ROOT
ATOM      1  C   UNL     1       4.912   3.571  16.671  0.00  0.00    +0.000 C 
ENDROOT
BRANCH   1   2
ATOM      2  N   UNL     1       4.009   3.414  17.798  0.00  0.00    +0.000 N 
ATOM      3  C   UNL     1       2.653   3.294  17.679  0.00  0.00    +0.000 C 
ATOM      4  O   UNL     1       1.961   3.319  16.682  0.00  0.00    +0.000 OA
ATOM      5  C   UNL     1       2.131   3.119  19.036  0.00  0.00    +0.000 A 
ATOM      6  C   UNL     1       0.836   2.923  19.479  0.00  0.00    +0.000 A 
ATOM      7  C   UNL     1       0.650   2.770  20.858  0.00  0.00    +0.000 A 
ATOM      8  C   UNL     1       1.746   2.819  21.745  0.00  0.00    +0.000 A 
ATOM      9  C   UNL     1       3.047   3.023  21.269  0.00  0.00    +0.000 A 
ATOM     10  C   UNL     1       3.204   3.169  19.905  0.00  0.00    +0.000 A 
ATOM     11  C   UNL     1       4.412   3.378  19.108  0.00  0.00    +0.000 C 
ATOM     12  O   UNL     1       5.529   3.489  19.578  0.00  0.00    +0.000 OA
ENDBRANCH   1   2
BRANCH   1  13
ATOM     13  C   UNL     1       4.710   4.914  15.960  0.00  0.00    +0.000 C 
BRANCH  13  14
ATOM     14  C   UNL     1       6.014   5.571  15.443  0.00  0.00    +0.000 C 
BRANCH  14  15
ATOM     15  C   UNL     1       6.791   6.104  16.617  0.00  0.00    +0.000 A 
ATOM     16  C   UNL     1       7.417   5.512  17.694  0.00  0.00    +0.000 A 
ATOM     17  C   UNL     1       8.001   6.564  18.443  0.00  0.00    +0.000 A 
ATOM     18  C   UNL     1       7.689   7.727  17.783  0.00  0.00    +0.000 A 
ATOM     19  O   UNL     1       6.976   7.457  16.663  0.00  0.00    +0.000 OA
ENDBRANCH  14  15
BRANCH  14  21
ATOM     20  C   UNL     1       6.097   3.815  13.538  0.00  0.00    +0.000 C 
ATOM     21  C   UNL     1       6.902   4.671  14.523  0.00  0.00    +0.000 C 
ATOM     22  C   UNL     1       7.900   5.513  13.708  0.00  0.00    +0.000 C 
ENDBRANCH  14  21
ENDBRANCH  13  14
ENDBRANCH   1  13
TORSDOF 5
ENDMDL
MODEL 5
REMARK VINA RESULT:      -7.3      1.721      6.079
REMARK  Name = 
REMARK  7 active torsions:
REMARK  status: ('A' for Active; 'I' for Inactive)
REMARK    1  A    between atoms: C_1  and  C_2
REMARK    2  A    between atoms: C_2  and  C_3
REMARK    3  A    between atoms: C_2  and  C_4
REMARK    4  A    between atoms: C_4  and  C_5
REMARK    5  A    between atoms: C_4  and  C_18
REMARK    6  A    between atoms: C_5  and  C_6
REMARK    7  A    between atoms: C_6  and  N_7
REMARK                            x       y       z     vdW  Elec       q    Type
REMARK                         _______ _______ _______ _____ _____    ______ ____
ROOT
ATOM      1  C   UNL     1       3.736   6.476  16.949  0.00  0.00    +0.000 C 
ENDROOT
BRANCH   1   2
ATOM      2  N   UNL     1       3.277   5.567  17.985  0.00  0.00    +0.000 N 
ATOM      3  C   UNL     1       2.982   5.953  19.263  0.00  0.00    +0.000 C 
ATOM      4  O   UNL     1       3.061   7.050  19.776  0.00  0.00    +0.000 OA
ATOM      5  C   UNL     1       2.525   4.751  19.964  0.00  0.00    +0.000 A 
ATOM      6  C   UNL     1       2.076   4.586  21.262  0.00  0.00    +0.000 A 
ATOM      7  C   UNL     1       1.686   3.298  21.644  0.00  0.00    +0.000 A 
ATOM      8  C   UNL     1       1.755   2.222  20.733  0.00  0.00    +0.000 A 
ATOM      9  C   UNL     1       2.216   2.416  19.426  0.00  0.00    +0.000 A 
ATOM     10  C   UNL     1       2.594   3.696  19.073  0.00  0.00    +0.000 A 
ATOM     11  C   UNL     1       3.096   4.220  17.803  0.00  0.00    +0.000 C 
ATOM     12  O   UNL     1       3.293   3.539  16.814  0.00  0.00    +0.000 OA
ENDBRANCH   1   2
BRANCH   1  13
ATOM     13  C   UNL     1       5.182   6.926  17.185  0.00  0.00    +0.000 C 
BRANCH  13  14
ATOM     14  C   UNL     1       6.209   5.769  17.280  0.00  0.00    +0.000 C 
BRANCH  14  15
ATOM     15  C   UNL     1       6.401   5.172  15.912  0.00  0.00    +0.000 A 
ATOM     16  C   UNL     1       5.770   4.162  15.216  0.00  0.00    +0.000 A 
ATOM     17  C   UNL     1       6.405   4.094  13.950  0.00  0.00    +0.000 A 
ATOM     18  C   UNL     1       7.385   5.057  13.959  0.00  0.00    +0.000 A 
ATOM     19  O   UNL     1       7.374   5.731  15.134  0.00  0.00    +0.000 OA
ENDBRANCH  14  15
BRANCH  14  21
ATOM     20  C   UNL     1       7.879   7.637  17.945  0.00  0.00    +0.000 C 
ATOM     21  C   UNL     1       7.574   6.134  17.949  0.00  0.00    +0.000 C 
ATOM     22  C   UNL     1       7.634   5.645  19.407  0.00  0.00    +0.000 C 
ENDBRANCH  14  21
ENDBRANCH  13  14
ENDBRANCH   1  13
TORSDOF 5
ENDMDL
MODEL 6
REMARK VINA RESULT:      -7.2      1.925      5.940
REMARK  Name = 
REMARK  7 active torsions:
REMARK  status: ('A' for Active; 'I' for Inactive)
REMARK    1  A    between atoms: C_1  and  C_2
REMARK    2  A    between atoms: C_2  and  C_3
REMARK    3  A    between atoms: C_2  and  C_4
REMARK    4  A    between atoms: C_4  and  C_5
REMARK    5  A    between atoms: C_4  and  C_18
REMARK    6  A    between atoms: C_5  and  C_6
REMARK    7  A    between atoms: C_6  and  N_7
REMARK                            x       y       z     vdW  Elec       q    Type
REMARK                         _______ _______ _______ _____ _____    ______ ____
ROOT
ATOM      1  C   UNL     1       3.896   5.802  17.070  0.00  0.00    +0.000 C 
ENDROOT
BRANCH   1   2
ATOM      2  N   UNL     1       3.254   5.068  18.148  0.00  0.00    +0.000 N 
ATOM      3  C   UNL     1       2.049   4.435  18.028  0.00  0.00    +0.000 C 
ATOM      4  O   UNL     1       1.299   4.376  17.075  0.00  0.00    +0.000 OA
ATOM      5  C   UNL     1       1.787   3.794  19.319  0.00  0.00    +0.000 A 
ATOM      6  C   UNL     1       0.729   3.003  19.728  0.00  0.00    +0.000 A 
ATOM      7  C   UNL     1       0.768   2.515  21.039  0.00  0.00    +0.000 A 
ATOM      8  C   UNL     1       1.846   2.826  21.895  0.00  0.00    +0.000 A 
ATOM      9  C   UNL     1       2.903   3.631  21.455  0.00  0.00    +0.000 A 
ATOM     10  C   UNL     1       2.842   4.100  20.158  0.00  0.00    +0.000 A 
ATOM     11  C   UNL     1       3.778   4.937  19.408  0.00  0.00    +0.000 C 
ATOM     12  O   UNL     1       4.806   5.395  19.871  0.00  0.00    +0.000 OA
ENDBRANCH   1   2
BRANCH   1  13
ATOM     13  C   UNL     1       4.678   4.873  16.134  0.00  0.00    +0.000 C 
BRANCH  13  14
ATOM     14  C   UNL     1       5.985   5.483  15.569  0.00  0.00    +0.000 C 
BRANCH  14  15
ATOM     15  C   UNL     1       6.812   6.010  16.711  0.00  0.00    +0.000 A 
ATOM     16  C   UNL     1       7.451   5.415  17.778  0.00  0.00    +0.000 A 
ATOM     17  C   UNL     1       8.090   6.460  18.493  0.00  0.00    +0.000 A 
ATOM     18  C   UNL     1       7.793   7.622  17.823  0.00  0.00    +0.000 A 
ATOM     19  O   UNL     1       7.040   7.356  16.729  0.00  0.00    +0.000 OA
ENDBRANCH  14  15
BRANCH  14  21
ATOM     20  C   UNL     1       5.957   3.660  13.726  0.00  0.00    +0.000 C 
ATOM     21  C   UNL     1       6.818   4.542  14.637  0.00  0.00    +0.000 C 
ATOM     22  C   UNL     1       7.780   5.346  13.744  0.00  0.00    +0.000 C 
ENDBRANCH  14  21
ENDBRANCH  13  14
ENDBRANCH   1  13
TORSDOF 5
ENDMDL
MODEL 7
REMARK VINA RESULT:      -7.1      1.912      6.134
REMARK  Name = 
REMARK  7 active torsions:
REMARK  status: ('A' for Active; 'I' for Inactive)
REMARK    1  A    between atoms: C_1  and  C_2
REMARK    2  A    between atoms: C_2  and  C_3
REMARK    3  A    between atoms: C_2  and  C_4
REMARK    4  A    between atoms: C_4  and  C_5
REMARK    5  A    between atoms: C_4  and  C_18
REMARK    6  A    between atoms: C_5  and  C_6
REMARK    7  A    between atoms: C_6  and  N_7
REMARK                            x       y       z     vdW  Elec       q    Type
REMARK                         _______ _______ _______ _____ _____    ______ ____
ROOT
ATOM      1  C   UNL     1       6.130   5.027  19.448  0.00  0.00    +0.000 C 
ENDROOT
BRANCH   1   2
ATOM      2  N   UNL     1       4.807   4.444  19.301  0.00  0.00    +0.000 N 
ATOM      3  C   UNL     1       3.720   5.126  18.832  0.00  0.00    +0.000 C 
ATOM      4  O   UNL     1       3.625   6.287  18.490  0.00  0.00    +0.000 OA
ATOM      5  C   UNL     1       2.610   4.171  18.807  0.00  0.00    +0.000 A 
ATOM      6  C   UNL     1       1.300   4.329  18.392  0.00  0.00    +0.000 A 
ATOM      7  C   UNL     1       0.465   3.210  18.474  0.00  0.00    +0.000 A 
ATOM      8  C   UNL     1       0.952   1.979  18.964  0.00  0.00    +0.000 A 
ATOM      9  C   UNL     1       2.282   1.847  19.381  0.00  0.00    +0.000 A 
ATOM     10  C   UNL     1       3.086   2.966  19.289  0.00  0.00    +0.000 A 
ATOM     11  C   UNL     1       4.498   3.148  19.624  0.00  0.00    +0.000 C 
ATOM     12  O   UNL     1       5.205   2.277  20.095  0.00  0.00    +0.000 OA
ENDBRANCH   1   2
BRANCH   1  13
ATOM     13  C   UNL     1       7.090   4.547  18.353  0.00  0.00    +0.000 C 
BRANCH  13  14
ATOM     14  C   UNL     1       7.356   5.583  17.232  0.00  0.00    +0.000 C 
BRANCH  14  15
ATOM     15  C   UNL     1       6.945   4.990  15.911  0.00  0.00    +0.000 A 
ATOM     16  C   UNL     1       5.976   4.083  15.534  0.00  0.00    +0.000 A 
ATOM     17  C   UNL     1       6.077   3.954  14.126  0.00  0.00    +0.000 A 
ATOM     18  C   UNL     1       7.103   4.781  13.737  0.00  0.00    +0.000 A 
ATOM     19  O   UNL     1       7.618   5.430  14.807  0.00  0.00    +0.000 OA
ENDBRANCH  14  15
BRANCH  14  21
ATOM     20  C   UNL     1       7.743   8.137  17.445  0.00  0.00    +0.000 C 
ATOM     21  C   UNL     1       6.722   6.994  17.455  0.00  0.00    +0.000 C 
ATOM     22  C   UNL     1       5.656   7.306  16.389  0.00  0.00    +0.000 C 
ENDBRANCH  14  21
ENDBRANCH  13  14
ENDBRANCH   1  13
TORSDOF 5
ENDMDL
MODEL 8
REMARK VINA RESULT:      -7.1      1.697      5.912
REMARK  Name = 
REMARK  7 active torsions:
REMARK  status: ('A' for Active; 'I' for Inactive)
REMARK    1  A    between atoms: C_1  and  C_2
REMARK    2  A    between atoms: C_2  and  C_3
REMARK    3  A    between atoms: C_2  and  C_4
REMARK    4  A    between atoms: C_4  and  C_5
REMARK    5  A    between atoms: C_4  and  C_18
REMARK    6  A    between atoms: C_5  and  C_6
REMARK    7  A    between atoms: C_6  and  N_7
REMARK                            x       y       z     vdW  Elec       q    Type
REMARK                         _______ _______ _______ _____ _____    ______ ____
ROOT
ATOM      1  C   UNL     1       4.556   6.583  17.950  0.00  0.00    +0.000 C 
ENDROOT
BRANCH   1   2
ATOM      2  N   UNL     1       3.834   5.599  18.738  0.00  0.00    +0.000 N 
ATOM      3  C   UNL     1       4.416   4.500  19.305  0.00  0.00    +0.000 C 
ATOM      4  O   UNL     1       5.569   4.123  19.251  0.00  0.00    +0.000 OA
ATOM      5  C   UNL     1       3.357   3.799  20.035  0.00  0.00    +0.000 A 
ATOM      6  C   UNL     1       3.408   2.653  20.807  0.00  0.00    +0.000 A 
ATOM      7  C   UNL     1       2.214   2.231  21.401  0.00  0.00    +0.000 A 
ATOM      8  C   UNL     1       1.016   2.953  21.210  0.00  0.00    +0.000 A 
ATOM      9  C   UNL     1       0.993   4.109  20.420  0.00  0.00    +0.000 A 
ATOM     10  C   UNL     1       2.184   4.506  19.846  0.00  0.00    +0.000 A 
ATOM     11  C   UNL     1       2.489   5.655  18.995  0.00  0.00    +0.000 C 
ATOM     12  O   UNL     1       1.663   6.467  18.622  0.00  0.00    +0.000 OA
ENDBRANCH   1   2
BRANCH   1  13
ATOM     13  C   UNL     1       4.743   6.126  16.498  0.00  0.00    +0.000 C 
BRANCH  13  14
ATOM     14  C   UNL     1       6.211   6.148  16.001  0.00  0.00    +0.000 C 
BRANCH  14  15
ATOM     15  C   UNL     1       7.076   6.774  17.062  0.00  0.00    +0.000 A 
ATOM     16  C   UNL     1       7.707   6.287  18.188  0.00  0.00    +0.000 A 
ATOM     17  C   UNL     1       8.398   7.382  18.763  0.00  0.00    +0.000 A 
ATOM     18  C   UNL     1       8.139   8.466  17.960  0.00  0.00    +0.000 A 
ATOM     19  O   UNL     1       7.359   8.102  16.914  0.00  0.00    +0.000 OA
ENDBRANCH  14  15
BRANCH  14  21
ATOM     20  C   UNL     1       5.838   3.592  15.786  0.00  0.00    +0.000 C 
ATOM     21  C   UNL     1       6.781   4.772  15.527  0.00  0.00    +0.000 C 
ATOM     22  C   UNL     1       7.113   4.789  14.024  0.00  0.00    +0.000 C 
ENDBRANCH  14  21
ENDBRANCH  13  14
ENDBRANCH   1  13
TORSDOF 5
ENDMDL
MODEL 9
REMARK VINA RESULT:      -7.0      2.135      4.008
REMARK  Name = 
REMARK  7 active torsions:
REMARK  status: ('A' for Active; 'I' for Inactive)
REMARK    1  A    between atoms: C_1  and  C_2
REMARK    2  A    between atoms: C_2  and  C_3
REMARK    3  A    between atoms: C_2  and  C_4
REMARK    4  A    between atoms: C_4  and  C_5
REMARK    5  A    between atoms: C_4  and  C_18
REMARK    6  A    between atoms: C_5  and  C_6
REMARK    7  A    between atoms: C_6  and  N_7
REMARK                            x       y       z     vdW  Elec       q    Type
REMARK                         _______ _______ _______ _____ _____    ______ ____
ROOT
ATOM      1  C   UNL     1       5.399   4.528  18.880  0.00  0.00    +0.000 C 
ENDROOT
BRANCH   1   2
ATOM      2  N   UNL     1       5.732   4.524  17.466  0.00  0.00    +0.000 N 
ATOM      3  C   UNL     1       6.797   5.193  16.931  0.00  0.00    +0.000 C 
ATOM      4  O   UNL     1       7.616   5.903  17.477  0.00  0.00    +0.000 OA
ATOM      5  C   UNL     1       6.794   4.898  15.496  0.00  0.00    +0.000 A 
ATOM      6  C   UNL     1       7.667   5.292  14.498  0.00  0.00    +0.000 A 
ATOM      7  C   UNL     1       7.407   4.828  13.204  0.00  0.00    +0.000 A 
ATOM      8  C   UNL     1       6.298   3.996  12.944  0.00  0.00    +0.000 A 
ATOM      9  C   UNL     1       5.429   3.614  13.972  0.00  0.00    +0.000 A 
ATOM     10  C   UNL     1       5.707   4.084  15.240  0.00  0.00    +0.000 A 
ATOM     11  C   UNL     1       5.013   3.859  16.508  0.00  0.00    +0.000 C 
ATOM     12  O   UNL     1       3.997   3.198  16.621  0.00  0.00    +0.000 OA
ENDBRANCH   1   2
BRANCH   1  13
ATOM     13  C   UNL     1       4.507   5.718  19.253  0.00  0.00    +0.000 C 
BRANCH  13  14
ATOM     14  C   UNL     1       3.053   5.622  18.724  0.00  0.00    +0.000 C 
BRANCH  14  15
ATOM     15  C   UNL     1       2.308   4.591  19.528  0.00  0.00    +0.000 A 
ATOM     16  C   UNL     1       2.284   4.261  20.867  0.00  0.00    +0.000 A 
ATOM     17  C   UNL     1       1.348   3.204  21.001  0.00  0.00    +0.000 A 
ATOM     18  C   UNL     1       0.869   2.952  19.738  0.00  0.00    +0.000 A 
ATOM     19  O   UNL     1       1.427   3.803  18.844  0.00  0.00    +0.000 OA
ENDBRANCH  14  15
BRANCH  14  21
ATOM     20  C   UNL     1       2.022   7.614  20.025  0.00  0.00    +0.000 C 
ATOM     21  C   UNL     1       2.273   6.975  18.654  0.00  0.00    +0.000 C 
ATOM     22  C   UNL     1       3.013   8.006  17.782  0.00  0.00    +0.000 C 
ENDBRANCH  14  21
ENDBRANCH  13  14
ENDBRANCH   1  13
TORSDOF 5
ENDMDL
