MODEL 1
REMARK VINA RESULT:      -6.8      0.000      0.000
REMARK  Name = 
REMARK  5 active torsions:
REMARK  status: ('A' for Active; 'I' for Inactive)
REMARK    1  A    between atoms: C_1  and  C_2
REMARK    2  A    between atoms: C_2  and  C_3
REMARK    3  A    between atoms: C_3  and  S_4
REMARK    4  A    between atoms: S_4  and  C_5
REMARK    5  A    between atoms: C_8  and  C_9
REMARK                            x       y       z     vdW  Elec       q    Type
REMARK                         _______ _______ _______ _____ _____    ______ ____
ROOT
ATOM      1  C   UNL     1       3.376   4.073  17.609  0.00  0.00    +0.000 C 
ATOM      2  N   UNL     1       2.951   5.247  17.945  0.00  0.00    +0.000 NA
ATOM      3  C   UNL     1       3.775   6.199  17.398  0.00  0.00    +0.000 C 
ATOM      4  C   UNL     1       3.627   7.524  17.534  0.00  0.00    +0.000 C 
ATOM      5  C   UNL     1       4.909   5.670  16.591  0.00  0.00    +0.000 C 
ATOM      6  O   UNL     1       5.767   6.306  16.008  0.00  0.00    +0.000 OA
ATOM      7  S   UNL     1       4.798   3.930  16.612  0.00  0.00    +0.000 S 
ENDROOT
BRANCH   4   8
ATOM      8  C   UNL     1       2.550   8.142  18.312  0.00  0.00    +0.000 A 
ATOM      9  C   UNL     1       1.775   9.177  17.747  0.00  0.00    +0.000 A 
ATOM     10  C   UNL     1       0.756   9.790  18.485  0.00  0.00    +0.000 A 
ATOM     11  C   UNL     1       0.544   9.349  19.772  0.00  0.00    +0.000 A 
ATOM     12  C   UNL     1       1.293   8.336  20.325  0.00  0.00    +0.000 A 
ATOM     13  C   UNL     1       2.300   7.709  19.621  0.00  0.00    +0.000 A 
ATOM     14  O   UNL     1       0.923   8.056  21.603  0.00  0.00    +0.000 OA
ATOM     15  C   UNL     1      -0.117   9.035  21.805  0.00  0.00    +0.000 C 
ATOM     16  O   UNL     1      -0.388   9.835  20.636  0.00  0.00    +0.000 OA
ENDBRANCH   4   8
BRANCH   1  17
ATOM     17  S   UNL     1       2.591   2.607  18.106  0.00  0.00    +0.000 S 
BRANCH  17  18
ATOM     18  C   UNL     1       1.131   3.305  18.933  0.00  0.00    +0.000 C 
BRANCH  18  20
ATOM     19  C   UNL     1       1.951   4.035  21.192  0.00  0.00    +0.000 C 
ATOM     20  C   UNL     1       1.168   2.980  20.424  0.00  0.00    +0.000 C 
ENDBRANCH  18  20
ENDBRANCH  17  18
ENDBRANCH   1  17
TORSDOF 4
ENDMDL
MODEL 2
REMARK VINA RESULT:      -6.8      3.140      6.918
REMARK  Name = 
REMARK  5 active torsions:
REMARK  status: ('A' for Active; 'I' for Inactive)
REMARK    1  A    between atoms: C_1  and  C_2
REMARK    2  A    between atoms: C_2  and  C_3
REMARK    3  A    between atoms: C_3  and  S_4
REMARK    4  A    between atoms: S_4  and  C_5
REMARK    5  A    between atoms: C_8  and  C_9
REMARK                            x       y       z     vdW  Elec       q    Type
REMARK                         _______ _______ _______ _____ _____    ______ ____
ROOT
ATOM      1  C   UNL     1       2.410   6.083  19.823  0.00  0.00    +0.000 C 
ATOM      2  N   UNL     1       3.350   5.634  19.056  0.00  0.00    +0.000 NA
ATOM      3  C   UNL     1       3.502   4.287  19.269  0.00  0.00    +0.000 C 
ATOM      4  C   UNL     1       4.380   3.496  18.637  0.00  0.00    +0.000 C 
ATOM      5  C   UNL     1       2.592   3.698  20.289  0.00  0.00    +0.000 C 
ATOM      6  O   UNL     1       2.532   2.538  20.651  0.00  0.00    +0.000 OA
ATOM      7  S   UNL     1       1.585   4.986  20.897  0.00  0.00    +0.000 S 
ENDROOT
BRANCH   4   8
ATOM      8  C   UNL     1       5.322   3.980  17.624  0.00  0.00    +0.000 A 
ATOM      9  C   UNL     1       6.475   4.692  18.015  0.00  0.00    +0.000 A 
ATOM     10  C   UNL     1       7.373   5.178  17.058  0.00  0.00    +0.000 A 
ATOM     11  C   UNL     1       7.087   4.938  15.732  0.00  0.00    +0.000 A 
ATOM     12  C   UNL     1       5.967   4.238  15.347  0.00  0.00    +0.000 A 
ATOM     13  C   UNL     1       5.067   3.743  16.267  0.00  0.00    +0.000 A 
ATOM     14  O   UNL     1       5.873   4.115  13.995  0.00  0.00    +0.000 OA
ATOM     15  C   UNL     1       7.040   4.850  13.574  0.00  0.00    +0.000 C 
ATOM     16  O   UNL     1       7.835   5.344  14.671  0.00  0.00    +0.000 OA
ENDBRANCH   4   8
BRANCH   1  17
ATOM     17  S   UNL     1       1.919   7.748  19.840  0.00  0.00    +0.000 S 
BRANCH  17  18
ATOM     18  C   UNL     1       2.267   8.188  18.112  0.00  0.00    +0.000 C 
BRANCH  18  20
ATOM     19  C   UNL     1       0.429   9.894  18.263  0.00  0.00    +0.000 C 
ATOM     20  C   UNL     1       1.872   9.639  17.851  0.00  0.00    +0.000 C 
ENDBRANCH  18  20
ENDBRANCH  17  18
ENDBRANCH   1  17
TORSDOF 4
ENDMDL
MODEL 3
REMARK VINA RESULT:      -6.8      4.230      6.513
REMARK  Name = 
REMARK  5 active torsions:
REMARK  status: ('A' for Active; 'I' for Inactive)
REMARK    1  A    between atoms: C_1  and  C_2
REMARK    2  A    between atoms: C_2  and  C_3
REMARK    3  A    between atoms: C_3  and  S_4
REMARK    4  A    between atoms: S_4  and  C_5
REMARK    5  A    between atoms: C_8  and  C_9
REMARK                            x       y       z     vdW  Elec       q    Type
REMARK                         _______ _______ _______ _____ _____    ______ ____
ROOT
ATOM      1  C   UNL     1       5.913   3.545  12.555  0.00  0.00    +0.000 C 
ATOM      2  N   UNL     1       5.481   3.829  13.740  0.00  0.00    +0.000 NA
ATOM      3  C   UNL     1       6.364   4.685  14.350  0.00  0.00    +0.000 C 
ATOM      4  C   UNL     1       6.226   5.193  15.583  0.00  0.00    +0.000 C 
ATOM      5  C   UNL     1       7.552   5.057  13.536  0.00  0.00    +0.000 C 
ATOM      6  O   UNL     1       8.468   5.795  13.850  0.00  0.00    +0.000 OA
ATOM      7  S   UNL     1       7.411   4.240  12.001  0.00  0.00    +0.000 S 
ENDROOT
BRANCH   4   8
ATOM      8  C   UNL     1       5.097   4.882  16.464  0.00  0.00    +0.000 A 
ATOM      9  C   UNL     1       4.325   5.926  17.017  0.00  0.00    +0.000 A 
ATOM     10  C   UNL     1       3.257   5.646  17.876  0.00  0.00    +0.000 A 
ATOM     11  C   UNL     1       2.993   4.325  18.160  0.00  0.00    +0.000 A 
ATOM     12  C   UNL     1       3.740   3.303  17.619  0.00  0.00    +0.000 A 
ATOM     13  C   UNL     1       4.795   3.548  16.765  0.00  0.00    +0.000 A 
ATOM     14  O   UNL     1       3.315   2.078  18.028  0.00  0.00    +0.000 OA
ATOM     15  C   UNL     1       2.242   2.446  18.919  0.00  0.00    +0.000 C 
ATOM     16  O   UNL     1       2.008   3.868  18.980  0.00  0.00    +0.000 OA
ENDBRANCH   4   8
BRANCH   1  17
ATOM     17  S   UNL     1       5.064   2.491  11.468  0.00  0.00    +0.000 S 
BRANCH  17  18
ATOM     18  C   UNL     1       3.550   3.464  11.215  0.00  0.00    +0.000 C 
BRANCH  18  20
ATOM     19  C   UNL     1       2.609   4.682   9.230  0.00  0.00    +0.000 C 
ATOM     20  C   UNL     1       3.082   3.339   9.768  0.00  0.00    +0.000 C 
ENDBRANCH  18  20
ENDBRANCH  17  18
ENDBRANCH   1  17
TORSDOF 4
ENDMDL
MODEL 4
REMARK VINA RESULT:      -6.7      0.740      1.571
REMARK  Name = 
REMARK  5 active torsions:
REMARK  status: ('A' for Active; 'I' for Inactive)
REMARK    1  A    between atoms: C_1  and  C_2
REMARK    2  A    between atoms: C_2  and  C_3
REMARK    3  A    between atoms: C_3  and  S_4
REMARK    4  A    between atoms: S_4  and  C_5
REMARK    5  A    between atoms: C_8  and  C_9
REMARK                            x       y       z     vdW  Elec       q    Type
REMARK                         _______ _______ _______ _____ _____    ______ ____
ROOT
ATOM      1  C   UNL     1       3.619   4.007  17.554  0.00  0.00    +0.000 C 
ATOM      2  N   UNL     1       3.171   5.154  17.947  0.00  0.00    +0.000 NA
ATOM      3  C   UNL     1       3.896   6.152  17.344  0.00  0.00    +0.000 C 
ATOM      4  C   UNL     1       3.697   7.467  17.514  0.00  0.00    +0.000 C 
ATOM      5  C   UNL     1       4.976   5.690  16.430  0.00  0.00    +0.000 C 
ATOM      6  O   UNL     1       5.748   6.374  15.784  0.00  0.00    +0.000 OA
ATOM      7  S   UNL     1       4.951   3.945  16.433  0.00  0.00    +0.000 S 
ENDROOT
BRANCH   4   8
ATOM      8  C   UNL     1       2.666   8.021  18.395  0.00  0.00    +0.000 A 
ATOM      9  C   UNL     1       2.437   7.447  19.663  0.00  0.00    +0.000 A 
ATOM     10  C   UNL     1       1.442   7.953  20.507  0.00  0.00    +0.000 A 
ATOM     11  C   UNL     1       0.702   9.022  20.055  0.00  0.00    +0.000 A 
ATOM     12  C   UNL     1       0.926   9.589  18.821  0.00  0.00    +0.000 A 
ATOM     13  C   UNL     1       1.902   9.116  17.970  0.00  0.00    +0.000 A 
ATOM     14  O   UNL     1       0.086  10.629  18.569  0.00  0.00    +0.000 OA
ATOM     15  C   UNL     1      -0.717  10.626  19.767  0.00  0.00    +0.000 C 
ATOM     16  O   UNL     1      -0.309   9.633  20.730  0.00  0.00    +0.000 OA
ENDBRANCH   4   8
BRANCH   1  17
ATOM     17  S   UNL     1       2.953   2.498  18.096  0.00  0.00    +0.000 S 
BRANCH  17  18
ATOM     18  C   UNL     1       1.256   3.029  18.473  0.00  0.00    +0.000 C 
BRANCH  18  20
ATOM     19  C   UNL     1       1.329   4.045  20.769  0.00  0.00    +0.000 C 
ATOM     20  C   UNL     1       0.957   2.814  19.954  0.00  0.00    +0.000 C 
ENDBRANCH  18  20
ENDBRANCH  17  18
ENDBRANCH   1  17
TORSDOF 4
ENDMDL
MODEL 5
REMARK VINA RESULT:      -6.7      3.239      6.836
REMARK  Name = 
REMARK  5 active torsions:
REMARK  status: ('A' for Active; 'I' for Inactive)
REMARK    1  A    between atoms: C_1  and  C_2
REMARK    2  A    between atoms: C_2  and  C_3
REMARK    3  A    between atoms: C_3  and  S_4
REMARK    4  A    between atoms: S_4  and  C_5
REMARK    5  A    between atoms: C_8  and  C_9
REMARK                            x       y       z     vdW  Elec       q    Type
REMARK                         _______ _______ _______ _____ _____    ______ ____
ROOT
ATOM      1  C   UNL     1       2.379   6.248  19.786  0.00  0.00    +0.000 C 
ATOM      2  N   UNL     1       3.322   5.767  19.044  0.00  0.00    +0.000 NA
ATOM      3  C   UNL     1       3.498   4.439  19.342  0.00  0.00    +0.000 C 
ATOM      4  C   UNL     1       4.387   3.623  18.757  0.00  0.00    +0.000 C 
ATOM      5  C   UNL     1       2.603   3.901  20.403  0.00  0.00    +0.000 C 
ATOM      6  O   UNL     1       2.564   2.766  20.839  0.00  0.00    +0.000 OA
ATOM      7  S   UNL     1       1.577   5.210  20.932  0.00  0.00    +0.000 S 
ENDROOT
BRANCH   4   8
ATOM      8  C   UNL     1       5.315   4.057  17.710  0.00  0.00    +0.000 A 
ATOM      9  C   UNL     1       6.512   4.719  18.057  0.00  0.00    +0.000 A 
ATOM     10  C   UNL     1       7.399   5.157  17.067  0.00  0.00    +0.000 A 
ATOM     11  C   UNL     1       7.060   4.920  15.754  0.00  0.00    +0.000 A 
ATOM     12  C   UNL     1       5.897   4.269  15.411  0.00  0.00    +0.000 A 
ATOM     13  C   UNL     1       5.006   3.821  16.364  0.00  0.00    +0.000 A 
ATOM     14  O   UNL     1       5.753   4.140  14.064  0.00  0.00    +0.000 OA
ATOM     15  C   UNL     1       6.938   4.818  13.599  0.00  0.00    +0.000 C 
ATOM     16  O   UNL     1       7.790   5.284  14.665  0.00  0.00    +0.000 OA
ENDBRANCH   4   8
BRANCH   1  17
ATOM     17  S   UNL     1       1.860   7.902  19.698  0.00  0.00    +0.000 S 
BRANCH  17  18
ATOM     18  C   UNL     1       1.176   8.099  21.370  0.00  0.00    +0.000 C 
BRANCH  18  20
ATOM     19  C   UNL     1      -0.314   9.669  22.645  0.00  0.00    +0.000 C 
ATOM     20  C   UNL     1      -0.090   8.951  21.322  0.00  0.00    +0.000 C 
ENDBRANCH  18  20
ENDBRANCH  17  18
ENDBRANCH   1  17
TORSDOF 4
ENDMDL
MODEL 6
REMARK VINA RESULT:      -6.4      3.677      6.354
REMARK  Name = 
REMARK  5 active torsions:
REMARK  status: ('A' for Active; 'I' for Inactive)
REMARK    1  A    between atoms: C_1  and  C_2
REMARK    2  A    between atoms: C_2  and  C_3
REMARK    3  A    between atoms: C_3  and  S_4
REMARK    4  A    between atoms: S_4  and  C_5
REMARK    5  A    between atoms: C_8  and  C_9
REMARK                            x       y       z     vdW  Elec       q    Type
REMARK                         _______ _______ _______ _____ _____    ______ ____
ROOT
ATOM      1  C   UNL     1       1.053   8.994  20.479  0.00  0.00    +0.000 C 
ATOM      2  N   UNL     1       1.516   7.906  19.956  0.00  0.00    +0.000 NA
ATOM      3  C   UNL     1       2.018   8.184  18.709  0.00  0.00    +0.000 C 
ATOM      4  C   UNL     1       2.585   7.291  17.885  0.00  0.00    +0.000 C 
ATOM      5  C   UNL     1       1.906   9.605  18.280  0.00  0.00    +0.000 C 
ATOM      6  O   UNL     1       2.275  10.096  17.230  0.00  0.00    +0.000 OA
ATOM      7  S   UNL     1       1.140  10.483  19.578  0.00  0.00    +0.000 S 
ENDROOT
BRANCH   4   8
ATOM      8  C   UNL     1       2.735   5.871  18.210  0.00  0.00    +0.000 A 
ATOM      9  C   UNL     1       1.701   4.962  17.899  0.00  0.00    +0.000 A 
ATOM     10  C   UNL     1       1.822   3.606  18.222  0.00  0.00    +0.000 A 
ATOM     11  C   UNL     1       2.977   3.198  18.851  0.00  0.00    +0.000 A 
ATOM     12  C   UNL     1       3.990   4.079  19.151  0.00  0.00    +0.000 A 
ATOM     13  C   UNL     1       3.902   5.420  18.840  0.00  0.00    +0.000 A 
ATOM     14  O   UNL     1       5.037   3.473  19.771  0.00  0.00    +0.000 OA
ATOM     15  C   UNL     1       4.551   2.118  19.863  0.00  0.00    +0.000 C 
ATOM     16  O   UNL     1       3.260   1.928  19.249  0.00  0.00    +0.000 OA
ENDBRANCH   4   8
BRANCH   1  17
ATOM     17  S   UNL     1       0.337   9.051  22.060  0.00  0.00    +0.000 S 
BRANCH  17  18
ATOM     18  C   UNL     1      -0.469  10.677  21.975  0.00  0.00    +0.000 C 
BRANCH  18  20
ATOM     19  C   UNL     1      -2.241  12.105  23.037  0.00  0.00    +0.000 C 
ATOM     20  C   UNL     1      -1.325  10.903  23.218  0.00  0.00    +0.000 C 
ENDBRANCH  18  20
ENDBRANCH  17  18
ENDBRANCH   1  17
TORSDOF 4
ENDMDL
MODEL 7
REMARK VINA RESULT:      -6.4      4.224      5.801
REMARK  Name = 
REMARK  5 active torsions:
REMARK  status: ('A' for Active; 'I' for Inactive)
REMARK    1  A    between atoms: C_1  and  C_2
REMARK    2  A    between atoms: C_2  and  C_3
REMARK    3  A    between atoms: C_3  and  S_4
REMARK    4  A    between atoms: S_4  and  C_5
REMARK    5  A    between atoms: C_8  and  C_9
REMARK                            x       y       z     vdW  Elec       q    Type
REMARK                         _______ _______ _______ _____ _____    ______ ____
ROOT
ATOM      1  C   UNL     1       6.902   5.558  17.200  0.00  0.00    +0.000 C 
ATOM      2  N   UNL     1       5.799   4.985  17.556  0.00  0.00    +0.000 NA
ATOM      3  C   UNL     1       5.348   4.196  16.528  0.00  0.00    +0.000 C 
ATOM      4  C   UNL     1       4.235   3.449  16.554  0.00  0.00    +0.000 C 
ATOM      5  C   UNL     1       6.198   4.196  15.306  0.00  0.00    +0.000 C 
ATOM      6  O   UNL     1       6.014   3.583  14.271  0.00  0.00    +0.000 OA
ATOM      7  S   UNL     1       7.553   5.251  15.613  0.00  0.00    +0.000 S 
ENDROOT
BRANCH   4   8
ATOM      8  C   UNL     1       3.330   3.386  17.704  0.00  0.00    +0.000 A 
ATOM      9  C   UNL     1       2.006   3.862  17.587  0.00  0.00    +0.000 A 
ATOM     10  C   UNL     1       1.136   3.828  18.683  0.00  0.00    +0.000 A 
ATOM     11  C   UNL     1       1.619   3.317  19.868  0.00  0.00    +0.000 A 
ATOM     12  C   UNL     1       2.906   2.846  19.984  0.00  0.00    +0.000 A 
ATOM     13  C   UNL     1       3.785   2.862  18.921  0.00  0.00    +0.000 A 
ATOM     14  O   UNL     1       3.180   2.388  21.235  0.00  0.00    +0.000 OA
ATOM     15  C   UNL     1       1.931   2.662  21.903  0.00  0.00    +0.000 C 
ATOM     16  O   UNL     1       0.924   3.218  21.033  0.00  0.00    +0.000 OA
ENDBRANCH   4   8
BRANCH   1  17
ATOM     17  S   UNL     1       7.784   6.635  18.237  0.00  0.00    +0.000 S 
BRANCH  17  18
ATOM     18  C   UNL     1       7.171   8.229  17.619  0.00  0.00    +0.000 C 
BRANCH  18  20
ATOM     19  C   UNL     1       8.884   9.458  18.984  0.00  0.00    +0.000 C 
ATOM     20  C   UNL     1       8.304   9.252  17.592  0.00  0.00    +0.000 C 
ENDBRANCH  18  20
ENDBRANCH  17  18
ENDBRANCH   1  17
TORSDOF 4
ENDMDL
MODEL 8
REMARK VINA RESULT:      -6.4      2.938      6.875
REMARK  Name = 
REMARK  5 active torsions:
REMARK  status: ('A' for Active; 'I' for Inactive)
REMARK    1  A    between atoms: C_1  and  C_2
REMARK    2  A    between atoms: C_2  and  C_3
REMARK    3  A    between atoms: C_3  and  S_4
REMARK    4  A    between atoms: S_4  and  C_5
REMARK    5  A    between atoms: C_8  and  C_9
REMARK                            x       y       z     vdW  Elec       q    Type
REMARK                         _______ _______ _______ _____ _____    ______ ____
ROOT
ATOM      1  C   UNL     1       2.127   7.582  19.346  0.00  0.00    +0.000 C 
ATOM      2  N   UNL     1       3.080   6.893  18.807  0.00  0.00    +0.000 NA
ATOM      3  C   UNL     1       3.205   5.698  19.471  0.00  0.00    +0.000 C 
ATOM      4  C   UNL     1       4.087   4.734  19.173  0.00  0.00    +0.000 C 
ATOM      5  C   UNL     1       2.259   5.498  20.602  0.00  0.00    +0.000 C 
ATOM      6  O   UNL     1       2.172   4.531  21.337  0.00  0.00    +0.000 OA
ATOM      7  S   UNL     1       1.258   6.922  20.704  0.00  0.00    +0.000 S 
ENDROOT
BRANCH   4   8
ATOM      8  C   UNL     1       5.062   4.838  18.084  0.00  0.00    +0.000 A 
ATOM      9  C   UNL     1       6.341   5.380  18.331  0.00  0.00    +0.000 A 
ATOM     10  C   UNL     1       7.276   5.504  17.297  0.00  0.00    +0.000 A 
ATOM     11  C   UNL     1       6.901   5.082  16.041  0.00  0.00    +0.000 A 
ATOM     12  C   UNL     1       5.657   4.547  15.797  0.00  0.00    +0.000 A 
ATOM     13  C   UNL     1       4.717   4.408  16.796  0.00  0.00    +0.000 A 
ATOM     14  O   UNL     1       5.490   4.197  14.493  0.00  0.00    +0.000 OA
ATOM     15  C   UNL     1       6.756   4.610  13.938  0.00  0.00    +0.000 C 
ATOM     16  O   UNL     1       7.670   5.138  14.920  0.00  0.00    +0.000 OA
ENDBRANCH   4   8
BRANCH   1  17
ATOM     17  S   UNL     1       1.662   9.155  18.779  0.00  0.00    +0.000 S 
BRANCH  17  18
ATOM     18  C   UNL     1       0.482   9.614  20.082  0.00  0.00    +0.000 C 
BRANCH  18  20
ATOM     19  C   UNL     1      -1.005  10.138  18.126  0.00  0.00    +0.000 C 
ATOM     20  C   UNL     1      -0.573  10.565  19.522  0.00  0.00    +0.000 C 
ENDBRANCH  18  20
ENDBRANCH  17  18
ENDBRANCH   1  17
TORSDOF 4
ENDMDL
MODEL 9
REMARK VINA RESULT:      -6.4      4.496      6.303
REMARK  Name = 
REMARK  5 active torsions:
REMARK  status: ('A' for Active; 'I' for Inactive)
REMARK    1  A    between atoms: C_1  and  C_2
REMARK    2  A    between atoms: C_2  and  C_3
REMARK    3  A    between atoms: C_3  and  S_4
REMARK    4  A    between atoms: S_4  and  C_5
REMARK    5  A    between atoms: C_8  and  C_9
REMARK                            x       y       z     vdW  Elec       q    Type
REMARK                         _______ _______ _______ _____ _____    ______ ____
ROOT
ATOM      1  C   UNL     1       6.240   3.985  14.171  0.00  0.00    +0.000 C 
ATOM      2  N   UNL     1       5.604   3.862  15.289  0.00  0.00    +0.000 NA
ATOM      3  C   UNL     1       6.061   4.805  16.176  0.00  0.00    +0.000 C 
ATOM      4  C   UNL     1       5.616   4.972  17.429  0.00  0.00    +0.000 C 
ATOM      5  C   UNL     1       7.134   5.697  15.658  0.00  0.00    +0.000 C 
ATOM      6  O   UNL     1       7.696   6.602  16.244  0.00  0.00    +0.000 OA
ATOM      7  S   UNL     1       7.461   5.219  14.012  0.00  0.00    +0.000 S 
ENDROOT
BRANCH   4   8
ATOM      8  C   UNL     1       4.569   4.142  18.033  0.00  0.00    +0.000 A 
ATOM      9  C   UNL     1       4.896   3.231  19.060  0.00  0.00    +0.000 A 
ATOM     10  C   UNL     1       3.911   2.417  19.632  0.00  0.00    +0.000 A 
ATOM     11  C   UNL     1       2.624   2.540  19.157  0.00  0.00    +0.000 A 
ATOM     12  C   UNL     1       2.300   3.433  18.161  0.00  0.00    +0.000 A 
ATOM     13  C   UNL     1       3.248   4.251  17.582  0.00  0.00    +0.000 A 
ATOM     14  O   UNL     1       0.979   3.394  17.840  0.00  0.00    +0.000 OA
ATOM     15  C   UNL     1       0.517   2.348  18.719  0.00  0.00    +0.000 C 
ATOM     16  O   UNL     1       1.547   1.827  19.584  0.00  0.00    +0.000 OA
ENDBRANCH   4   8
BRANCH   1  17
ATOM     17  S   UNL     1       5.938   2.971  12.795  0.00  0.00    +0.000 S 
BRANCH  17  18
ATOM     18  C   UNL     1       4.543   3.867  12.053  0.00  0.00    +0.000 C 
BRANCH  18  20
ATOM     19  C   UNL     1       3.170   3.913   9.949  0.00  0.00    +0.000 C 
ATOM     20  C   UNL     1       3.914   3.030  10.942  0.00  0.00    +0.000 C 
ENDBRANCH  18  20
ENDBRANCH  17  18
ENDBRANCH   1  17
TORSDOF 4
ENDMDL
