MODEL 1
REMARK VINA RESULT:      -8.6      0.000      0.000
REMARK  Name = 
REMARK  3 active torsions:
REMARK  status: ('A' for Active; 'I' for Inactive)
REMARK    1  A    between atoms: C_1  and  C_2
REMARK    2  A    between atoms: C_2  and  C_3
REMARK    3  A    between atoms: C_8  and  C_9
REMARK                            x       y       z     vdW  Elec       q    Type
REMARK                         _______ _______ _______ _____ _____    ______ ____
ROOT
ATOM      1  C   UNL     1       6.023   3.454  14.847  0.00  0.00    +0.000 C 
ATOM      2  C   UNL     1       6.725   4.805  15.006  0.00  0.00    +0.000 C 
ATOM      3  C   UNL     1       7.377   5.190  13.679  0.00  0.00    +0.000 C 
ATOM      4  O   UNL     1       5.781   5.835  15.293  0.00  0.00    +0.000 OA
ATOM      5  C   UNL     1       5.379   6.024  16.566  0.00  0.00    +0.000 C 
ATOM      6  O   UNL     1       4.539   6.864  16.847  0.00  0.00    +0.000 OA
ATOM      7  C   UNL     1       6.059   5.177  17.554  0.00  0.00    +0.000 C 
ATOM      8  C   UNL     1       5.472   4.735  18.682  0.00  0.00    +0.000 C 
ATOM      9  C   UNL     1       7.429   4.725  17.281  0.00  0.00    +0.000 C 
ATOM     10  O   UNL     1       8.211   4.369  18.155  0.00  0.00    +0.000 OA
ATOM     11  O   UNL     1       7.773   4.717  15.975  0.00  0.00    +0.000 OA
ENDROOT
BRANCH   8  12
ATOM     12  C   UNL     1       4.075   4.975  19.082  0.00  0.00    +0.000 A 
ATOM     13  C   UNL     1       3.769   6.226  19.639  0.00  0.00    +0.000 A 
ATOM     14  C   UNL     1       2.481   6.498  20.087  0.00  0.00    +0.000 A 
ATOM     15  C   UNL     1       1.487   5.530  19.976  0.00  0.00    +0.000 A 
ATOM     16  C   UNL     1       1.756   4.282  19.393  0.00  0.00    +0.000 A 
ATOM     17  C   UNL     1       0.733   3.329  19.266  0.00  0.00    +0.000 A 
ATOM     18  C   UNL     1       0.974   2.087  18.681  0.00  0.00    +0.000 A 
ATOM     19  C   UNL     1       2.248   1.777  18.226  0.00  0.00    +0.000 A 
ATOM     20  C   UNL     1       3.280   2.710  18.359  0.00  0.00    +0.000 A 
ATOM     21  C   UNL     1       3.064   3.985  18.936  0.00  0.00    +0.000 A 
ENDBRANCH   8  12
TORSDOF 1
ENDMDL
MODEL 2
REMARK VINA RESULT:      -8.4      1.515      3.362
REMARK  Name = 
REMARK  3 active torsions:
REMARK  status: ('A' for Active; 'I' for Inactive)
REMARK    1  A    between atoms: C_1  and  C_2
REMARK    2  A    between atoms: C_2  and  C_3
REMARK    3  A    between atoms: C_8  and  C_9
REMARK                            x       y       z     vdW  Elec       q    Type
REMARK                         _______ _______ _______ _____ _____    ______ ____
ROOT
ATOM      1  C   UNL     1       5.724   7.852  17.358  0.00  0.00    +0.000 C 
ATOM      2  C   UNL     1       6.957   6.945  17.394  0.00  0.00    +0.000 C 
ATOM      3  C   UNL     1       8.200   7.800  17.633  0.00  0.00    +0.000 C 
ATOM      4  O   UNL     1       6.887   6.039  18.494  0.00  0.00    +0.000 OA
ATOM      5  C   UNL     1       6.190   4.893  18.359  0.00  0.00    +0.000 C 
ATOM      6  O   UNL     1       6.067   4.113  19.291  0.00  0.00    +0.000 OA
ATOM      7  C   UNL     1       5.646   4.662  17.015  0.00  0.00    +0.000 C 
ATOM      8  C   UNL     1       4.495   4.003  16.783  0.00  0.00    +0.000 C 
ATOM      9  C   UNL     1       6.348   5.230  15.856  0.00  0.00    +0.000 C 
ATOM     10  O   UNL     1       6.231   4.797  14.716  0.00  0.00    +0.000 OA
ATOM     11  O   UNL     1       7.137   6.289  16.137  0.00  0.00    +0.000 OA
ENDROOT
BRANCH   8  12
ATOM     12  C   UNL     1       3.586   3.462  17.807  0.00  0.00    +0.000 A 
ATOM     13  C   UNL     1       3.428   2.069  17.858  0.00  0.00    +0.000 A 
ATOM     14  C   UNL     1       2.544   1.495  18.766  0.00  0.00    +0.000 A 
ATOM     15  C   UNL     1       1.817   2.305  19.634  0.00  0.00    +0.000 A 
ATOM     16  C   UNL     1       1.979   3.699  19.628  0.00  0.00    +0.000 A 
ATOM     17  C   UNL     1       1.256   4.496  20.531  0.00  0.00    +0.000 A 
ATOM     18  C   UNL     1       1.409   5.881  20.550  0.00  0.00    +0.000 A 
ATOM     19  C   UNL     1       2.279   6.489  19.657  0.00  0.00    +0.000 A 
ATOM     20  C   UNL     1       2.994   5.711  18.743  0.00  0.00    +0.000 A 
ATOM     21  C   UNL     1       2.872   4.301  18.707  0.00  0.00    +0.000 A 
ENDBRANCH   8  12
TORSDOF 1
ENDMDL
MODEL 3
REMARK VINA RESULT:      -7.4      2.390      5.772
REMARK  Name = 
REMARK  3 active torsions:
REMARK  status: ('A' for Active; 'I' for Inactive)
REMARK    1  A    between atoms: C_1  and  C_2
REMARK    2  A    between atoms: C_2  and  C_3
REMARK    3  A    between atoms: C_8  and  C_9
REMARK                            x       y       z     vdW  Elec       q    Type
REMARK                         _______ _______ _______ _____ _____    ______ ____
ROOT
ATOM      1  C   UNL     1       1.217   3.595  17.622  0.00  0.00    +0.000 C 
ATOM      2  C   UNL     1       1.341   3.111  19.069  0.00  0.00    +0.000 C 
ATOM      3  C   UNL     1       0.281   2.043  19.332  0.00  0.00    +0.000 C 
ATOM      4  O   UNL     1       2.600   2.476  19.283  0.00  0.00    +0.000 OA
ATOM      5  C   UNL     1       3.680   3.232  19.565  0.00  0.00    +0.000 C 
ATOM      6  O   UNL     1       4.785   2.732  19.710  0.00  0.00    +0.000 OA
ATOM      7  C   UNL     1       3.399   4.665  19.716  0.00  0.00    +0.000 C 
ATOM      8  C   UNL     1       4.278   5.632  19.390  0.00  0.00    +0.000 C 
ATOM      9  C   UNL     1       2.072   5.086  20.184  0.00  0.00    +0.000 C 
ATOM     10  O   UNL     1       1.853   6.171  20.709  0.00  0.00    +0.000 OA
ATOM     11  O   UNL     1       1.090   4.182  19.982  0.00  0.00    +0.000 OA
ENDROOT
BRANCH   8  12
ATOM     12  C   UNL     1       5.610   5.428  18.797  0.00  0.00    +0.000 A 
ATOM     13  C   UNL     1       6.722   5.589  19.637  0.00  0.00    +0.000 A 
ATOM     14  C   UNL     1       8.011   5.462  19.128  0.00  0.00    +0.000 A 
ATOM     15  C   UNL     1       8.200   5.166  17.781  0.00  0.00    +0.000 A 
ATOM     16  C   UNL     1       7.106   4.967  16.925  0.00  0.00    +0.000 A 
ATOM     17  C   UNL     1       7.319   4.642  15.575  0.00  0.00    +0.000 A 
ATOM     18  C   UNL     1       6.248   4.430  14.709  0.00  0.00    +0.000 A 
ATOM     19  C   UNL     1       4.948   4.551  15.179  0.00  0.00    +0.000 A 
ATOM     20  C   UNL     1       4.720   4.888  16.516  0.00  0.00    +0.000 A 
ATOM     21  C   UNL     1       5.786   5.097  17.424  0.00  0.00    +0.000 A 
ENDBRANCH   8  12
TORSDOF 1
ENDMDL
MODEL 4
REMARK VINA RESULT:      -7.2      2.109      2.933
REMARK  Name = 
REMARK  3 active torsions:
REMARK  status: ('A' for Active; 'I' for Inactive)
REMARK    1  A    between atoms: C_1  and  C_2
REMARK    2  A    between atoms: C_2  and  C_3
REMARK    3  A    between atoms: C_8  and  C_9
REMARK                            x       y       z     vdW  Elec       q    Type
REMARK                         _______ _______ _______ _____ _____    ______ ____
ROOT
ATOM      1  C   UNL     1       7.652   6.288  16.426  0.00  0.00    +0.000 C 
ATOM      2  C   UNL     1       7.281   7.216  17.586  0.00  0.00    +0.000 C 
ATOM      3  C   UNL     1       7.827   8.615  17.301  0.00  0.00    +0.000 C 
ATOM      4  O   UNL     1       5.866   7.360  17.686  0.00  0.00    +0.000 OA
ATOM      5  C   UNL     1       5.155   6.429  18.354  0.00  0.00    +0.000 C 
ATOM      6  O   UNL     1       3.937   6.491  18.424  0.00  0.00    +0.000 OA
ATOM      7  C   UNL     1       5.965   5.392  19.004  0.00  0.00    +0.000 C 
ATOM      8  C   UNL     1       5.549   4.122  19.172  0.00  0.00    +0.000 C 
ATOM      9  C   UNL     1       7.328   5.723  19.441  0.00  0.00    +0.000 C 
ATOM     10  O   UNL     1       7.929   5.101  20.310  0.00  0.00    +0.000 OA
ATOM     11  O   UNL     1       7.888   6.771  18.801  0.00  0.00    +0.000 OA
ENDROOT
BRANCH   8  12
ATOM     12  C   UNL     1       4.273   3.560  18.702  0.00  0.00    +0.000 A 
ATOM     13  C   UNL     1       4.162   3.266  17.335  0.00  0.00    +0.000 A 
ATOM     14  C   UNL     1       2.965   2.782  16.816  0.00  0.00    +0.000 A 
ATOM     15  C   UNL     1       1.874   2.579  17.657  0.00  0.00    +0.000 A 
ATOM     16  C   UNL     1       1.966   2.834  19.034  0.00  0.00    +0.000 A 
ATOM     17  C   UNL     1       0.862   2.598  19.869  0.00  0.00    +0.000 A 
ATOM     18  C   UNL     1       0.934   2.833  21.241  0.00  0.00    +0.000 A 
ATOM     19  C   UNL     1       2.110   3.319  21.795  0.00  0.00    +0.000 A 
ATOM     20  C   UNL     1       3.212   3.573  20.975  0.00  0.00    +0.000 A 
ATOM     21  C   UNL     1       3.176   3.332  19.580  0.00  0.00    +0.000 A 
ENDBRANCH   8  12
TORSDOF 1
ENDMDL
MODEL 5
REMARK VINA RESULT:      -6.8      0.721      2.393
REMARK  Name = 
REMARK  3 active torsions:
REMARK  status: ('A' for Active; 'I' for Inactive)
REMARK    1  A    between atoms: C_1  and  C_2
REMARK    2  A    between atoms: C_2  and  C_3
REMARK    3  A    between atoms: C_8  and  C_9
REMARK                            x       y       z     vdW  Elec       q    Type
REMARK                         _______ _______ _______ _____ _____    ______ ____
ROOT
ATOM      1  C   UNL     1       6.525   3.458  14.372  0.00  0.00    +0.000 C 
ATOM      2  C   UNL     1       6.722   4.897  14.855  0.00  0.00    +0.000 C 
ATOM      3  C   UNL     1       7.296   5.734  13.713  0.00  0.00    +0.000 C 
ATOM      4  O   UNL     1       5.471   5.495  15.189  0.00  0.00    +0.000 OA
ATOM      5  C   UNL     1       4.944   5.278  16.411  0.00  0.00    +0.000 C 
ATOM      6  O   UNL     1       3.854   5.733  16.721  0.00  0.00    +0.000 OA
ATOM      7  C   UNL     1       5.800   4.503  17.318  0.00  0.00    +0.000 C 
ATOM      8  C   UNL     1       5.319   3.674  18.265  0.00  0.00    +0.000 C 
ATOM      9  C   UNL     1       7.258   4.572  17.154  0.00  0.00    +0.000 C 
ATOM     10  O   UNL     1       8.052   4.306  18.048  0.00  0.00    +0.000 OA
ATOM     11  O   UNL     1       7.671   4.944  15.924  0.00  0.00    +0.000 OA
ENDROOT
BRANCH   8  12
ATOM     12  C   UNL     1       3.900   3.373  18.513  0.00  0.00    +0.000 A 
ATOM     13  C   UNL     1       3.382   2.197  17.951  0.00  0.00    +0.000 A 
ATOM     14  C   UNL     1       2.036   1.879  18.103  0.00  0.00    +0.000 A 
ATOM     15  C   UNL     1       1.198   2.728  18.821  0.00  0.00    +0.000 A 
ATOM     16  C   UNL     1       1.696   3.895  19.421  0.00  0.00    +0.000 A 
ATOM     17  C   UNL     1       0.840   4.724  20.164  0.00  0.00    +0.000 A 
ATOM     18  C   UNL     1       1.314   5.882  20.778  0.00  0.00    +0.000 A 
ATOM     19  C   UNL     1       2.650   6.234  20.647  0.00  0.00    +0.000 A 
ATOM     20  C   UNL     1       3.510   5.427  19.898  0.00  0.00    +0.000 A 
ATOM     21  C   UNL     1       3.063   4.237  19.274  0.00  0.00    +0.000 A 
ENDBRANCH   8  12
TORSDOF 1
ENDMDL
MODEL 6
REMARK VINA RESULT:      -6.8      7.912     11.217
REMARK  Name = 
REMARK  3 active torsions:
REMARK  status: ('A' for Active; 'I' for Inactive)
REMARK    1  A    between atoms: C_1  and  C_2
REMARK    2  A    between atoms: C_2  and  C_3
REMARK    3  A    between atoms: C_8  and  C_9
REMARK                            x       y       z     vdW  Elec       q    Type
REMARK                         _______ _______ _______ _____ _____    ______ ____
ROOT
ATOM      1  C   UNL     1      -3.945  13.306  22.478  0.00  0.00    +0.000 C 
ATOM      2  C   UNL     1      -3.045  12.869  23.637  0.00  0.00    +0.000 C 
ATOM      3  C   UNL     1      -3.873  12.813  24.920  0.00  0.00    +0.000 C 
ATOM      4  O   UNL     1      -2.557  11.546  23.427  0.00  0.00    +0.000 OA
ATOM      5  C   UNL     1      -1.464  11.362  22.659  0.00  0.00    +0.000 C 
ATOM      6  O   UNL     1      -1.040  10.242  22.416  0.00  0.00    +0.000 OA
ATOM      7  C   UNL     1      -0.828  12.601  22.193  0.00  0.00    +0.000 C 
ATOM      8  C   UNL     1      -0.183  12.706  21.016  0.00  0.00    +0.000 C 
ATOM      9  C   UNL     1      -0.950  13.814  23.011  0.00  0.00    +0.000 C 
ATOM     10  O   UNL     1      -0.171  14.758  22.940  0.00  0.00    +0.000 OA
ATOM     11  O   UNL     1      -2.004  13.825  23.854  0.00  0.00    +0.000 OA
ENDROOT
BRANCH   8  12
ATOM     12  C   UNL     1      -0.052  11.647  20.002  0.00  0.00    +0.000 A 
ATOM     13  C   UNL     1       1.180  10.982  19.919  0.00  0.00    +0.000 A 
ATOM     14  C   UNL     1       1.389  10.007  18.949  0.00  0.00    +0.000 A 
ATOM     15  C   UNL     1       0.368   9.683  18.059  0.00  0.00    +0.000 A 
ATOM     16  C   UNL     1      -0.885  10.309  18.139  0.00  0.00    +0.000 A 
ATOM     17  C   UNL     1      -1.910   9.948  17.249  0.00  0.00    +0.000 A 
ATOM     18  C   UNL     1      -3.166  10.549  17.316  0.00  0.00    +0.000 A 
ATOM     19  C   UNL     1      -3.411  11.528  18.268  0.00  0.00    +0.000 A 
ATOM     20  C   UNL     1      -2.397  11.908  19.151  0.00  0.00    +0.000 A 
ATOM     21  C   UNL     1      -1.115  11.307  19.118  0.00  0.00    +0.000 A 
ENDBRANCH   8  12
TORSDOF 1
ENDMDL
MODEL 7
REMARK VINA RESULT:      -6.7      3.211      5.453
REMARK  Name = 
REMARK  3 active torsions:
REMARK  status: ('A' for Active; 'I' for Inactive)
REMARK    1  A    between atoms: C_1  and  C_2
REMARK    2  A    between atoms: C_2  and  C_3
REMARK    3  A    between atoms: C_8  and  C_9
REMARK                            x       y       z     vdW  Elec       q    Type
REMARK                         _______ _______ _______ _____ _____    ______ ____
ROOT
ATOM      1  C   UNL     1       1.598   3.327  21.070  0.00  0.00    +0.000 C 
ATOM      2  C   UNL     1       2.053   2.845  19.690  0.00  0.00    +0.000 C 
ATOM      3  C   UNL     1       1.645   1.384  19.511  0.00  0.00    +0.000 C 
ATOM      4  O   UNL     1       1.387   3.568  18.657  0.00  0.00    +0.000 OA
ATOM      5  C   UNL     1       1.873   4.765  18.272  0.00  0.00    +0.000 C 
ATOM      6  O   UNL     1       1.307   5.437  17.423  0.00  0.00    +0.000 OA
ATOM      7  C   UNL     1       3.132   5.151  18.922  0.00  0.00    +0.000 C 
ATOM      8  C   UNL     1       3.469   6.427  19.188  0.00  0.00    +0.000 C 
ATOM      9  C   UNL     1       4.054   4.099  19.370  0.00  0.00    +0.000 C 
ATOM     10  O   UNL     1       5.252   4.281  19.551  0.00  0.00    +0.000 OA
ATOM     11  O   UNL     1       3.478   2.897  19.583  0.00  0.00    +0.000 OA
ENDROOT
BRANCH   8  12
ATOM     12  C   UNL     1       2.638   7.614  18.929  0.00  0.00    +0.000 A 
ATOM     13  C   UNL     1       2.841   8.292  17.718  0.00  0.00    +0.000 A 
ATOM     14  C   UNL     1       2.126   9.452  17.434  0.00  0.00    +0.000 A 
ATOM     15  C   UNL     1       1.199   9.939  18.351  0.00  0.00    +0.000 A 
ATOM     16  C   UNL     1       0.951   9.263  19.556  0.00  0.00    +0.000 A 
ATOM     17  C   UNL     1      -0.007   9.757  20.455  0.00  0.00    +0.000 A 
ATOM     18  C   UNL     1      -0.278   9.097  21.653  0.00  0.00    +0.000 A 
ATOM     19  C   UNL     1       0.418   7.939  21.973  0.00  0.00    +0.000 A 
ATOM     20  C   UNL     1       1.385   7.444  21.095  0.00  0.00    +0.000 A 
ATOM     21  C   UNL     1       1.673   8.083  19.864  0.00  0.00    +0.000 A 
ENDBRANCH   8  12
TORSDOF 1
ENDMDL
MODEL 8
REMARK VINA RESULT:      -6.6      2.351      5.846
REMARK  Name = 
REMARK  3 active torsions:
REMARK  status: ('A' for Active; 'I' for Inactive)
REMARK    1  A    between atoms: C_1  and  C_2
REMARK    2  A    between atoms: C_2  and  C_3
REMARK    3  A    between atoms: C_8  and  C_9
REMARK                            x       y       z     vdW  Elec       q    Type
REMARK                         _______ _______ _______ _____ _____    ______ ____
ROOT
ATOM      1  C   UNL     1       2.627   4.044  21.269  0.00  0.00    +0.000 C 
ATOM      2  C   UNL     1       1.793   3.631  20.054  0.00  0.00    +0.000 C 
ATOM      3  C   UNL     1       0.311   3.686  20.422  0.00  0.00    +0.000 C 
ATOM      4  O   UNL     1       1.966   4.558  18.984  0.00  0.00    +0.000 OA
ATOM      5  C   UNL     1       3.024   4.422  18.159  0.00  0.00    +0.000 C 
ATOM      6  O   UNL     1       3.233   5.220  17.259  0.00  0.00    +0.000 OA
ATOM      7  C   UNL     1       3.849   3.235  18.415  0.00  0.00    +0.000 C 
ATOM      8  C   UNL     1       5.178   3.194  18.199  0.00  0.00    +0.000 C 
ATOM      9  C   UNL     1       3.220   2.042  18.998  0.00  0.00    +0.000 C 
ATOM     10  O   UNL     1       3.685   0.913  18.892  0.00  0.00    +0.000 OA
ATOM     11  O   UNL     1       2.081   2.281  19.680  0.00  0.00    +0.000 OA
ENDROOT
BRANCH   8  12
ATOM     12  C   UNL     1       6.014   4.313  17.733  0.00  0.00    +0.000 A 
ATOM     13  C   UNL     1       6.477   5.218  18.700  0.00  0.00    +0.000 A 
ATOM     14  C   UNL     1       7.228   6.327  18.322  0.00  0.00    +0.000 A 
ATOM     15  C   UNL     1       7.529   6.536  16.979  0.00  0.00    +0.000 A 
ATOM     16  C   UNL     1       7.107   5.630  15.994  0.00  0.00    +0.000 A 
ATOM     17  C   UNL     1       7.444   5.846  14.648  0.00  0.00    +0.000 A 
ATOM     18  C   UNL     1       7.046   4.953  13.654  0.00  0.00    +0.000 A 
ATOM     19  C   UNL     1       6.293   3.838  13.992  0.00  0.00    +0.000 A 
ATOM     20  C   UNL     1       5.936   3.618  15.325  0.00  0.00    +0.000 A 
ATOM     21  C   UNL     1       6.338   4.498  16.360  0.00  0.00    +0.000 A 
ENDBRANCH   8  12
TORSDOF 1
ENDMDL
MODEL 9
REMARK VINA RESULT:      -6.6      2.233      5.681
REMARK  Name = 
REMARK  3 active torsions:
REMARK  status: ('A' for Active; 'I' for Inactive)
REMARK    1  A    between atoms: C_1  and  C_2
REMARK    2  A    between atoms: C_2  and  C_3
REMARK    3  A    between atoms: C_8  and  C_9
REMARK                            x       y       z     vdW  Elec       q    Type
REMARK                         _______ _______ _______ _____ _____    ______ ____
ROOT
ATOM      1  C   UNL     1       1.767   3.149  18.055  0.00  0.00    +0.000 C 
ATOM      2  C   UNL     1       2.156   3.355  19.522  0.00  0.00    +0.000 C 
ATOM      3  C   UNL     1       1.529   2.246  20.366  0.00  0.00    +0.000 C 
ATOM      4  O   UNL     1       3.566   3.229  19.693  0.00  0.00    +0.000 OA
ATOM      5  C   UNL     1       4.356   4.295  19.453  0.00  0.00    +0.000 C 
ATOM      6  O   UNL     1       5.571   4.217  19.544  0.00  0.00    +0.000 OA
ATOM      7  C   UNL     1       3.633   5.530  19.124  0.00  0.00    +0.000 C 
ATOM      8  C   UNL     1       4.118   6.475  18.296  0.00  0.00    +0.000 C 
ATOM      9  C   UNL     1       2.282   5.730  19.664  0.00  0.00    +0.000 C 
ATOM     10  O   UNL     1       1.760   6.831  19.789  0.00  0.00    +0.000 OA
ATOM     11  O   UNL     1       1.638   4.595  20.010  0.00  0.00    +0.000 OA
ENDROOT
BRANCH   8  12
ATOM     12  C   UNL     1       5.392   6.413  17.562  0.00  0.00    +0.000 A 
ATOM     13  C   UNL     1       6.427   7.257  17.993  0.00  0.00    +0.000 A 
ATOM     14  C   UNL     1       7.639   7.286  17.311  0.00  0.00    +0.000 A 
ATOM     15  C   UNL     1       7.832   6.469  16.201  0.00  0.00    +0.000 A 
ATOM     16  C   UNL     1       6.827   5.591  15.767  0.00  0.00    +0.000 A 
ATOM     17  C   UNL     1       7.051   4.755  14.661  0.00  0.00    +0.000 A 
ATOM     18  C   UNL     1       6.071   3.868  14.219  0.00  0.00    +0.000 A 
ATOM     19  C   UNL     1       4.848   3.813  14.872  0.00  0.00    +0.000 A 
ATOM     20  C   UNL     1       4.604   4.648  15.965  0.00  0.00    +0.000 A 
ATOM     21  C   UNL     1       5.584   5.551  16.446  0.00  0.00    +0.000 A 
ENDBRANCH   8  12
TORSDOF 1
ENDMDL
