MODEL 1
REMARK VINA RESULT:      -7.1      0.000      0.000
REMARK  Name = 
REMARK  2 active torsions:
REMARK  status: ('A' for Active; 'I' for Inactive)
REMARK    1  A    between atoms: N_11  and  C_12
REMARK    2  A    between atoms: C_12  and  C_13
REMARK                            x       y       z     vdW  Elec       q    Type
REMARK                         _______ _______ _______ _____ _____    ______ ____
ROOT
ATOM      1  C   UNL     1       9.785  11.633  18.658  0.00  0.00    +0.000 A 
ATOM      2  C   UNL     1       9.971  10.528  19.445  0.00  0.00    +0.000 A 
ATOM      3  N   UNL     1       9.303   9.373  19.272  0.00  0.00    +0.000 NA
ATOM      4  C   UNL     1       8.401   9.315  18.277  0.00  0.00    +0.000 A 
ATOM      5  N   UNL     1       7.770   8.111  18.003  0.00  0.00    +0.000 N 
ATOM      6  C   UNL     1       6.458   8.206  17.376  0.00  0.00    +0.000 C 
ATOM      7  C   UNL     1       6.169   6.896  16.644  0.00  0.00    +0.000 C 
ATOM      8  C   UNL     1       6.317   5.644  17.547  0.00  0.00    +0.000 C 
ATOM      9  C   UNL     1       5.209   5.585  18.628  0.00  0.00    +0.000 C 
ATOM     10  C   UNL     1       3.835   5.244  18.045  0.00  0.00    +0.000 C 
ATOM     11  N   UNL     1       3.825   3.997  17.265  0.00  0.00    +0.000 NA
ATOM     12  C   UNL     1       4.813   4.079  16.178  0.00  0.00    +0.000 C 
ATOM     13  C   UNL     1       6.237   4.372  16.668  0.00  0.00    +0.000 C 
ATOM     14  C   UNL     1       7.706   5.698  18.232  0.00  0.00    +0.000 C 
ATOM     15  C   UNL     1       7.963   7.024  18.952  0.00  0.00    +0.000 C 
ATOM     16  N   UNL     1       8.145  10.365  17.479  0.00  0.00    +0.000 NA
ATOM     17  C   UNL     1       8.844  11.495  17.677  0.00  0.00    +0.000 A 
ENDROOT
BRANCH  11  18
ATOM     18  C   UNL     1       4.031   2.789  18.085  0.00  0.00    +0.000 C 
BRANCH  18  19
ATOM     19  C   UNL     1       3.126   2.718  19.288  0.00  0.00    +0.000 A 
ATOM     20  C   UNL     1       1.739   2.848  19.170  0.00  0.00    +0.000 A 
ATOM     21  C   UNL     1       0.950   2.835  20.314  0.00  0.00    +0.000 A 
ATOM     22  C   UNL     1       1.573   2.686  21.541  0.00  0.00    +0.000 A 
ATOM     23  N   UNL     1       2.907   2.542  21.697  0.00  0.00    +0.000 NA
ATOM     24  C   UNL     1       3.650   2.561  20.569  0.00  0.00    +0.000 A 
ENDBRANCH  18  19
ENDBRANCH  11  18
TORSDOF 2
ENDMDL
MODEL 2
REMARK VINA RESULT:      -6.8      0.696      1.031
REMARK  Name = 
REMARK  2 active torsions:
REMARK  status: ('A' for Active; 'I' for Inactive)
REMARK    1  A    between atoms: N_11  and  C_12
REMARK    2  A    between atoms: C_12  and  C_13
REMARK                            x       y       z     vdW  Elec       q    Type
REMARK                         _______ _______ _______ _____ _____    ______ ____
ROOT
ATOM      1  C   UNL     1       9.834  11.726  18.799  0.00  0.00    +0.000 A 
ATOM      2  C   UNL     1       9.949  10.620  19.598  0.00  0.00    +0.000 A 
ATOM      3  N   UNL     1       9.289   9.470  19.373  0.00  0.00    +0.000 NA
ATOM      4  C   UNL     1       8.468   9.418  18.309  0.00  0.00    +0.000 A 
ATOM      5  N   UNL     1       7.853   8.219  17.986  0.00  0.00    +0.000 N 
ATOM      6  C   UNL     1       6.596   8.322  17.256  0.00  0.00    +0.000 C 
ATOM      7  C   UNL     1       6.356   7.014  16.503  0.00  0.00    +0.000 C 
ATOM      8  C   UNL     1       6.423   5.762  17.416  0.00  0.00    +0.000 C 
ATOM      9  C   UNL     1       5.232   5.711  18.404  0.00  0.00    +0.000 C 
ATOM     10  C   UNL     1       3.906   5.380  17.714  0.00  0.00    +0.000 C 
ATOM     11  N   UNL     1       3.950   4.133  16.935  0.00  0.00    +0.000 NA
ATOM     12  C   UNL     1       5.022   4.207  15.931  0.00  0.00    +0.000 C 
ATOM     13  C   UNL     1       6.404   4.490  16.532  0.00  0.00    +0.000 C 
ATOM     14  C   UNL     1       7.753   5.806  18.208  0.00  0.00    +0.000 C 
ATOM     15  C   UNL     1       7.962   7.131  18.947  0.00  0.00    +0.000 C 
ATOM     16  N   UNL     1       8.285  10.470  17.493  0.00  0.00    +0.000 NA
ATOM     17  C   UNL     1       8.974  11.594  17.746  0.00  0.00    +0.000 A 
ENDROOT
BRANCH  11  18
ATOM     18  C   UNL     1       4.080   2.924  17.769  0.00  0.00    +0.000 C 
BRANCH  18  19
ATOM     19  C   UNL     1       3.116   2.885  18.926  0.00  0.00    +0.000 A 
ATOM     20  C   UNL     1       3.562   2.797  20.249  0.00  0.00    +0.000 A 
ATOM     21  C   UNL     1       2.635   2.705  21.279  0.00  0.00    +0.000 A 
ATOM     22  C   UNL     1       1.289   2.708  20.956  0.00  0.00    +0.000 A 
ATOM     23  N   UNL     1       0.817   2.807  19.694  0.00  0.00    +0.000 NA
ATOM     24  C   UNL     1       1.740   2.893  18.711  0.00  0.00    +0.000 A 
ENDBRANCH  18  19
ENDBRANCH  11  18
TORSDOF 2
ENDMDL
MODEL 3
REMARK VINA RESULT:      -6.6      4.377      6.873
REMARK  Name = 
REMARK  2 active torsions:
REMARK  status: ('A' for Active; 'I' for Inactive)
REMARK    1  A    between atoms: N_11  and  C_12
REMARK    2  A    between atoms: C_12  and  C_13
REMARK                            x       y       z     vdW  Elec       q    Type
REMARK                         _______ _______ _______ _____ _____    ______ ____
ROOT
ATOM      1  C   UNL     1      -0.685  11.175  22.624  0.00  0.00    +0.000 A 
ATOM      2  C   UNL     1       0.048  11.447  21.500  0.00  0.00    +0.000 A 
ATOM      3  N   UNL     1       0.671  10.501  20.774  0.00  0.00    +0.000 NA
ATOM      4  C   UNL     1       0.569   9.226  21.188  0.00  0.00    +0.000 A 
ATOM      5  N   UNL     1       1.108   8.215  20.408  0.00  0.00    +0.000 N 
ATOM      6  C   UNL     1       1.493   7.000  21.114  0.00  0.00    +0.000 C 
ATOM      7  C   UNL     1       1.514   5.840  20.120  0.00  0.00    +0.000 C 
ATOM      8  C   UNL     1       2.394   6.118  18.873  0.00  0.00    +0.000 C 
ATOM      9  C   UNL     1       3.899   6.171  19.237  0.00  0.00    +0.000 C 
ATOM     10  C   UNL     1       4.473   4.794  19.579  0.00  0.00    +0.000 C 
ATOM     11  N   UNL     1       4.260   3.795  18.520  0.00  0.00    +0.000 NA
ATOM     12  C   UNL     1       2.823   3.670  18.231  0.00  0.00    +0.000 C 
ATOM     13  C   UNL     1       2.164   4.996  17.830  0.00  0.00    +0.000 C 
ATOM     14  C   UNL     1       1.960   7.473  18.262  0.00  0.00    +0.000 C 
ATOM     15  C   UNL     1       1.947   8.611  19.286  0.00  0.00    +0.000 C 
ATOM     16  N   UNL     1      -0.113   8.884  22.294  0.00  0.00    +0.000 NA
ATOM     17  C   UNL     1      -0.731   9.857  22.982  0.00  0.00    +0.000 A 
ENDROOT
BRANCH  11  18
ATOM     18  C   UNL     1       5.032   4.065  17.293  0.00  0.00    +0.000 C 
BRANCH  18  19
ATOM     19  C   UNL     1       6.035   5.178  17.447  0.00  0.00    +0.000 A 
ATOM     20  C   UNL     1       7.073   5.105  18.382  0.00  0.00    +0.000 A 
ATOM     21  C   UNL     1       7.939   6.181  18.529  0.00  0.00    +0.000 A 
ATOM     22  C   UNL     1       7.746   7.296  17.732  0.00  0.00    +0.000 A 
ATOM     23  N   UNL     1       6.767   7.400  16.807  0.00  0.00    +0.000 NA
ATOM     24  C   UNL     1       5.937   6.341  16.686  0.00  0.00    +0.000 A 
ENDBRANCH  18  19
ENDBRANCH  11  18
TORSDOF 2
ENDMDL
MODEL 4
REMARK VINA RESULT:      -6.3      3.993      6.117
REMARK  Name = 
REMARK  2 active torsions:
REMARK  status: ('A' for Active; 'I' for Inactive)
REMARK    1  A    between atoms: N_11  and  C_12
REMARK    2  A    between atoms: C_12  and  C_13
REMARK                            x       y       z     vdW  Elec       q    Type
REMARK                         _______ _______ _______ _____ _____    ______ ____
ROOT
ATOM      1  C   UNL     1       7.507   4.094  11.832  0.00  0.00    +0.000 A 
ATOM      2  C   UNL     1       7.832   5.187  12.588  0.00  0.00    +0.000 A 
ATOM      3  N   UNL     1       7.244   5.479  13.763  0.00  0.00    +0.000 NA
ATOM      4  C   UNL     1       6.282   4.649  14.204  0.00  0.00    +0.000 A 
ATOM      5  N   UNL     1       5.729   4.859  15.457  0.00  0.00    +0.000 N 
ATOM      6  C   UNL     1       4.373   4.360  15.649  0.00  0.00    +0.000 C 
ATOM      7  C   UNL     1       4.135   4.145  17.143  0.00  0.00    +0.000 C 
ATOM      8  C   UNL     1       4.442   5.402  17.998  0.00  0.00    +0.000 C 
ATOM      9  C   UNL     1       3.419   6.535  17.736  0.00  0.00    +0.000 C 
ATOM     10  C   UNL     1       2.039   6.231  18.322  0.00  0.00    +0.000 C 
ATOM     11  N   UNL     1       2.071   5.924  19.760  0.00  0.00    +0.000 NA
ATOM     12  C   UNL     1       2.972   4.788  20.010  0.00  0.00    +0.000 C 
ATOM     13  C   UNL     1       4.399   5.017  19.498  0.00  0.00    +0.000 C 
ATOM     14  C   UNL     1       5.867   5.897  17.645  0.00  0.00    +0.000 C 
ATOM     15  C   UNL     1       6.071   6.098  16.140  0.00  0.00    +0.000 C 
ATOM     16  N   UNL     1       5.892   3.569  13.506  0.00  0.00    +0.000 NA
ATOM     17  C   UNL     1       6.514   3.307  12.345  0.00  0.00    +0.000 A 
ENDROOT
BRANCH  11  18
ATOM     18  C   UNL     1       2.425   7.083  20.601  0.00  0.00    +0.000 C 
BRANCH  18  19
ATOM     19  C   UNL     1       1.414   8.198  20.544  0.00  0.00    +0.000 A 
ATOM     20  C   UNL     1       1.431   9.150  19.520  0.00  0.00    +0.000 A 
ATOM     21  C   UNL     1       0.515  10.195  19.541  0.00  0.00    +0.000 A 
ATOM     22  C   UNL     1      -0.395  10.252  20.583  0.00  0.00    +0.000 A 
ATOM     23  N   UNL     1      -0.454   9.344  21.582  0.00  0.00    +0.000 NA
ATOM     24  C   UNL     1       0.450   8.341  21.539  0.00  0.00    +0.000 A 
ENDBRANCH  18  19
ENDBRANCH  11  18
TORSDOF 2
ENDMDL
MODEL 5
REMARK VINA RESULT:      -6.3      3.920      5.962
REMARK  Name = 
REMARK  2 active torsions:
REMARK  status: ('A' for Active; 'I' for Inactive)
REMARK    1  A    between atoms: N_11  and  C_12
REMARK    2  A    between atoms: C_12  and  C_13
REMARK                            x       y       z     vdW  Elec       q    Type
REMARK                         _______ _______ _______ _____ _____    ______ ____
ROOT
ATOM      1  C   UNL     1       7.816   4.294  11.939  0.00  0.00    +0.000 A 
ATOM      2  C   UNL     1       8.157   5.292  12.812  0.00  0.00    +0.000 A 
ATOM      3  N   UNL     1       7.520   5.510  13.976  0.00  0.00    +0.000 NA
ATOM      4  C   UNL     1       6.489   4.705  14.286  0.00  0.00    +0.000 A 
ATOM      5  N   UNL     1       5.877   4.832  15.522  0.00  0.00    +0.000 N 
ATOM      6  C   UNL     1       4.487   4.402  15.594  0.00  0.00    +0.000 C 
ATOM      7  C   UNL     1       4.151   4.066  17.047  0.00  0.00    +0.000 C 
ATOM      8  C   UNL     1       4.478   5.218  18.032  0.00  0.00    +0.000 C 
ATOM      9  C   UNL     1       3.537   6.431  17.825  0.00  0.00    +0.000 C 
ATOM     10  C   UNL     1       2.110   6.160  18.307  0.00  0.00    +0.000 C 
ATOM     11  N   UNL     1       2.041   5.721  19.710  0.00  0.00    +0.000 NA
ATOM     12  C   UNL     1       2.861   4.514  19.897  0.00  0.00    +0.000 C 
ATOM     13  C   UNL     1       4.326   4.701  19.485  0.00  0.00    +0.000 C 
ATOM     14  C   UNL     1       5.946   5.655  17.803  0.00  0.00    +0.000 C 
ATOM     15  C   UNL     1       6.247   5.980  16.337  0.00  0.00    +0.000 C 
ATOM     16  N   UNL     1       6.080   3.719  13.469  0.00  0.00    +0.000 NA
ATOM     17  C   UNL     1       6.752   3.527  12.323  0.00  0.00    +0.000 A 
ENDROOT
BRANCH  11  18
ATOM     18  C   UNL     1       2.411   6.774  20.674  0.00  0.00    +0.000 C 
BRANCH  18  19
ATOM     19  C   UNL     1       1.478   7.957  20.659  0.00  0.00    +0.000 A 
ATOM     20  C   UNL     1       0.486   8.120  21.631  0.00  0.00    +0.000 A 
ATOM     21  C   UNL     1      -0.389   9.196  21.543  0.00  0.00    +0.000 A 
ATOM     22  C   UNL     1      -0.242  10.080  20.487  0.00  0.00    +0.000 A 
ATOM     23  N   UNL     1       0.712   9.967  19.537  0.00  0.00    +0.000 NA
ATOM     24  C   UNL     1       1.547   8.910  19.645  0.00  0.00    +0.000 A 
ENDBRANCH  18  19
ENDBRANCH  11  18
TORSDOF 2
ENDMDL
MODEL 6
REMARK VINA RESULT:      -6.1      4.324      6.632
REMARK  Name = 
REMARK  2 active torsions:
REMARK  status: ('A' for Active; 'I' for Inactive)
REMARK    1  A    between atoms: N_11  and  C_12
REMARK    2  A    between atoms: C_12  and  C_13
REMARK                            x       y       z     vdW  Elec       q    Type
REMARK                         _______ _______ _______ _____ _____    ______ ____
ROOT
ATOM      1  C   UNL     1      -0.367  11.347  22.318  0.00  0.00    +0.000 A 
ATOM      2  C   UNL     1       0.340  11.494  21.155  0.00  0.00    +0.000 A 
ATOM      3  N   UNL     1       0.876  10.463  20.477  0.00  0.00    +0.000 NA
ATOM      4  C   UNL     1       0.708   9.228  20.981  0.00  0.00    +0.000 A 
ATOM      5  N   UNL     1       1.155   8.135  20.256  0.00  0.00    +0.000 N 
ATOM      6  C   UNL     1       1.487   6.947  21.033  0.00  0.00    +0.000 C 
ATOM      7  C   UNL     1       1.400   5.723  20.121  0.00  0.00    +0.000 C 
ATOM      8  C   UNL     1       2.250   5.859  18.831  0.00  0.00    +0.000 C 
ATOM      9  C   UNL     1       3.767   5.839  19.143  0.00  0.00    +0.000 C 
ATOM     10  C   UNL     1       4.265   4.453  19.560  0.00  0.00    +0.000 C 
ATOM     11  N   UNL     1       3.952   3.401  18.581  0.00  0.00    +0.000 NA
ATOM     12  C   UNL     1       2.500   3.351  18.346  0.00  0.00    +0.000 C 
ATOM     13  C   UNL     1       1.912   4.688  17.876  0.00  0.00    +0.000 C 
ATOM     14  C   UNL     1       1.880   7.196  18.141  0.00  0.00    +0.000 C 
ATOM     15  C   UNL     1       1.976   8.398  19.084  0.00  0.00    +0.000 C 
ATOM     16  N   UNL     1       0.047   9.007  22.129  0.00  0.00    +0.000 NA
ATOM     17  C   UNL     1      -0.484  10.062  22.768  0.00  0.00    +0.000 A 
ENDROOT
BRANCH  11  18
ATOM     18  C   UNL     1       4.694   3.537  17.314  0.00  0.00    +0.000 C 
BRANCH  18  19
ATOM     19  C   UNL     1       5.640   4.710  17.295  0.00  0.00    +0.000 A 
ATOM     20  C   UNL     1       5.311   5.906  16.650  0.00  0.00    +0.000 A 
ATOM     21  C   UNL     1       6.239   6.939  16.609  0.00  0.00    +0.000 A 
ATOM     22  C   UNL     1       7.467   6.747  17.220  0.00  0.00    +0.000 A 
ATOM     23  N   UNL     1       7.817   5.614  17.866  0.00  0.00    +0.000 NA
ATOM     24  C   UNL     1       6.897   4.624  17.889  0.00  0.00    +0.000 A 
ENDBRANCH  18  19
ENDBRANCH  11  18
TORSDOF 2
ENDMDL
MODEL 7
REMARK VINA RESULT:      -6.0      6.914      8.857
REMARK  Name = 
REMARK  2 active torsions:
REMARK  status: ('A' for Active; 'I' for Inactive)
REMARK    1  A    between atoms: N_11  and  C_12
REMARK    2  A    between atoms: C_12  and  C_13
REMARK                            x       y       z     vdW  Elec       q    Type
REMARK                         _______ _______ _______ _____ _____    ______ ____
ROOT
ATOM      1  C   UNL     1       4.666   3.639  18.449  0.00  0.00    +0.000 A 
ATOM      2  C   UNL     1       4.272   4.363  17.356  0.00  0.00    +0.000 A 
ATOM      3  N   UNL     1       3.588   5.519  17.438  0.00  0.00    +0.000 NA
ATOM      4  C   UNL     1       3.274   5.974  18.663  0.00  0.00    +0.000 A 
ATOM      5  N   UNL     1       2.664   7.211  18.791  0.00  0.00    +0.000 N 
ATOM      6  C   UNL     1       1.846   7.401  19.982  0.00  0.00    +0.000 C 
ATOM      7  C   UNL     1       1.731   8.898  20.266  0.00  0.00    +0.000 C 
ATOM      8  C   UNL     1       1.225   9.715  19.049  0.00  0.00    +0.000 C 
ATOM      9  C   UNL     1      -0.258   9.401  18.728  0.00  0.00    +0.000 C 
ATOM     10  C   UNL     1      -1.222   9.978  19.767  0.00  0.00    +0.000 C 
ATOM     11  N   UNL     1      -1.062  11.426  19.970  0.00  0.00    +0.000 NA
ATOM     12  C   UNL     1       0.323  11.726  20.365  0.00  0.00    +0.000 C 
ATOM     13  C   UNL     1       1.367  11.226  19.359  0.00  0.00    +0.000 C 
ATOM     14  C   UNL     1       2.106   9.365  17.825  0.00  0.00    +0.000 C 
ATOM     15  C   UNL     1       2.201   7.858  17.571  0.00  0.00    +0.000 C 
ATOM     16  N   UNL     1       3.606   5.307  19.782  0.00  0.00    +0.000 NA
ATOM     17  C   UNL     1       4.299   4.164  19.656  0.00  0.00    +0.000 A 
ENDROOT
BRANCH  11  18
ATOM     18  C   UNL     1      -1.472  12.232  18.806  0.00  0.00    +0.000 C 
BRANCH  18  19
ATOM     19  C   UNL     1      -2.888  11.969  18.362  0.00  0.00    +0.000 A 
ATOM     20  C   UNL     1      -3.175  11.472  17.087  0.00  0.00    +0.000 A 
ATOM     21  C   UNL     1      -4.499  11.301  16.701  0.00  0.00    +0.000 A 
ATOM     22  C   UNL     1      -5.496  11.626  17.605  0.00  0.00    +0.000 A 
ATOM     23  N   UNL     1      -5.260  12.094  18.851  0.00  0.00    +0.000 NA
ATOM     24  C   UNL     1      -3.964  12.253  19.199  0.00  0.00    +0.000 A 
ENDBRANCH  18  19
ENDBRANCH  11  18
TORSDOF 2
ENDMDL
MODEL 8
REMARK VINA RESULT:      -6.0      7.638     10.210
REMARK  Name = 
REMARK  2 active torsions:
REMARK  status: ('A' for Active; 'I' for Inactive)
REMARK    1  A    between atoms: N_11  and  C_12
REMARK    2  A    between atoms: C_12  and  C_13
REMARK                            x       y       z     vdW  Elec       q    Type
REMARK                         _______ _______ _______ _____ _____    ______ ____
ROOT
ATOM      1  C   UNL     1       3.710   4.253  18.876  0.00  0.00    +0.000 A 
ATOM      2  C   UNL     1       3.385   4.834  20.072  0.00  0.00    +0.000 A 
ATOM      3  N   UNL     1       2.771   6.026  20.176  0.00  0.00    +0.000 NA
ATOM      4  C   UNL     1       2.472   6.677  19.038  0.00  0.00    +0.000 A 
ATOM      5  N   UNL     1       1.746   7.856  19.103  0.00  0.00    +0.000 N 
ATOM      6  C   UNL     1       1.943   8.788  18.000  0.00  0.00    +0.000 C 
ATOM      7  C   UNL     1       0.724   9.705  17.908  0.00  0.00    +0.000 C 
ATOM      8  C   UNL     1       0.389  10.414  19.245  0.00  0.00    +0.000 C 
ATOM      9  C   UNL     1       1.467  11.460  19.623  0.00  0.00    +0.000 C 
ATOM     10  C   UNL     1       1.425  12.700  18.727  0.00  0.00    +0.000 C 
ATOM     11  N   UNL     1       0.106  13.349  18.691  0.00  0.00    +0.000 NA
ATOM     12  C   UNL     1      -0.914  12.387  18.246  0.00  0.00    +0.000 C 
ATOM     13  C   UNL     1      -0.982  11.124  19.114  0.00  0.00    +0.000 C 
ATOM     14  C   UNL     1       0.296   9.341  20.358  0.00  0.00    +0.000 C 
ATOM     15  C   UNL     1       1.532   8.439  20.419  0.00  0.00    +0.000 C 
ATOM     16  N   UNL     1       2.780   6.182  17.827  0.00  0.00    +0.000 NA
ATOM     17  C   UNL     1       3.381   4.983  17.768  0.00  0.00    +0.000 A 
ENDROOT
BRANCH  11  18
ATOM     18  C   UNL     1      -0.275  13.979  19.970  0.00  0.00    +0.000 C 
BRANCH  18  19
ATOM     19  C   UNL     1      -0.911  15.334  19.806  0.00  0.00    +0.000 A 
ATOM     20  C   UNL     1      -1.952  15.760  20.637  0.00  0.00    +0.000 A 
ATOM     21  C   UNL     1      -2.548  16.994  20.410  0.00  0.00    +0.000 A 
ATOM     22  C   UNL     1      -2.080  17.769  19.363  0.00  0.00    +0.000 A 
ATOM     23  N   UNL     1      -1.066  17.403  18.548  0.00  0.00    +0.000 NA
ATOM     24  C   UNL     1      -0.507  16.196  18.789  0.00  0.00    +0.000 A 
ENDBRANCH  18  19
ENDBRANCH  11  18
TORSDOF 2
ENDMDL
MODEL 9
REMARK VINA RESULT:      -6.0      7.012      9.540
REMARK  Name = 
REMARK  2 active torsions:
REMARK  status: ('A' for Active; 'I' for Inactive)
REMARK    1  A    between atoms: N_11  and  C_12
REMARK    2  A    between atoms: C_12  and  C_13
REMARK                            x       y       z     vdW  Elec       q    Type
REMARK                         _______ _______ _______ _____ _____    ______ ____
ROOT
ATOM      1  C   UNL     1       4.586   4.618  18.422  0.00  0.00    +0.000 A 
ATOM      2  C   UNL     1       4.120   5.006  19.650  0.00  0.00    +0.000 A 
ATOM      3  N   UNL     1       3.319   6.070  19.837  0.00  0.00    +0.000 NA
ATOM      4  C   UNL     1       2.970   6.789  18.755  0.00  0.00    +0.000 A 
ATOM      5  N   UNL     1       2.063   7.827  18.895  0.00  0.00    +0.000 N 
ATOM      6  C   UNL     1       2.157   8.894  17.907  0.00  0.00    +0.000 C 
ATOM      7  C   UNL     1       0.812   9.616  17.835  0.00  0.00    +0.000 C 
ATOM      8  C   UNL     1       0.309  10.113  19.216  0.00  0.00    +0.000 C 
ATOM      9  C   UNL     1       1.189  11.265  19.762  0.00  0.00    +0.000 C 
ATOM     10  C   UNL     1       0.988  12.575  18.997  0.00  0.00    +0.000 C 
ATOM     11  N   UNL     1      -0.415  13.013  18.948  0.00  0.00    +0.000 NA
ATOM     12  C   UNL     1      -1.247  11.960  18.345  0.00  0.00    +0.000 C 
ATOM     13  C   UNL     1      -1.150  10.613  19.074  0.00  0.00    +0.000 C 
ATOM     14  C   UNL     1       0.340   8.922  20.205  0.00  0.00    +0.000 C 
ATOM     15  C   UNL     1       1.701   8.221  20.249  0.00  0.00    +0.000 C 
ATOM     16  N   UNL     1       3.407   6.484  17.521  0.00  0.00    +0.000 NA
ATOM     17  C   UNL     1       4.194   5.406  17.377  0.00  0.00    +0.000 A 
ENDROOT
BRANCH  11  18
ATOM     18  C   UNL     1      -0.947  13.431  20.258  0.00  0.00    +0.000 C 
BRANCH  18  19
ATOM     19  C   UNL     1      -0.208  14.596  20.863  0.00  0.00    +0.000 A 
ATOM     20  C   UNL     1      -0.151  15.838  20.224  0.00  0.00    +0.000 A 
ATOM     21  C   UNL     1       0.592  16.867  20.791  0.00  0.00    +0.000 A 
ATOM     22  C   UNL     1       1.251  16.622  21.984  0.00  0.00    +0.000 A 
ATOM     23  N   UNL     1       1.208  15.442  22.641  0.00  0.00    +0.000 NA
ATOM     24  C   UNL     1       0.481  14.459  22.065  0.00  0.00    +0.000 A 
ENDBRANCH  18  19
ENDBRANCH  11  18
TORSDOF 2
ENDMDL
