MODEL 1
REMARK VINA RESULT:      -8.6      0.000      0.000
REMARK  Name = 
REMARK  9 active torsions:
REMARK  status: ('A' for Active; 'I' for Inactive)
REMARK    1  A    between atoms: C_1  and  C_2
REMARK    2  A    between atoms: C_2  and  C_3
REMARK    3  A    between atoms: C_6  and  C_7
REMARK    4  A    between atoms: C_7  and  O_8
REMARK    5  A    between atoms: O_8  and  C_9
REMARK    6  A    between atoms: C_9  and  C_11
REMARK    7  A    between atoms: C_15  and  S_16
REMARK    8  A    between atoms: S_16  and  C_17
REMARK    9  A    between atoms: C_27  and  O_28
REMARK                            x       y       z     vdW  Elec       q    Type
REMARK                         _______ _______ _______ _____ _____    ______ ____
ROOT
ATOM      1  C   UNL     1       5.822   3.702  13.212  0.00  0.00    +0.000 A 
ATOM      2  C   UNL     1       5.257   3.838  14.497  0.00  0.00    +0.000 A 
ATOM      3  C   UNL     1       5.845   4.658  15.471  0.00  0.00    +0.000 A 
ATOM      4  C   UNL     1       5.324   4.822  16.839  0.00  0.00    +0.000 A 
ATOM      5  C   UNL     1       6.007   5.610  17.684  0.00  0.00    +0.000 A 
ATOM      6  C   UNL     1       7.235   6.330  17.322  0.00  0.00    +0.000 A 
ATOM      7  O   UNL     1       7.826   7.020  18.144  0.00  0.00    +0.000 OA
ATOM      8  O   UNL     1       7.685   6.179  16.023  0.00  0.00    +0.000 OA
ATOM      9  C   UNL     1       7.005   5.348  15.111  0.00  0.00    +0.000 A 
ATOM     10  C   UNL     1       7.572   5.257  13.840  0.00  0.00    +0.000 A 
ATOM     11  C   UNL     1       6.971   4.435  12.895  0.00  0.00    +0.000 A 
ENDROOT
BRANCH   1  13
ATOM     12  C   UNL     1       4.093   3.454  11.398  0.00  0.00    +0.000 C 
ATOM     13  C   UNL     1       5.182   2.771  12.208  0.00  0.00    +0.000 C 
ENDBRANCH   1  13
BRANCH  11  14
ATOM     14  O   UNL     1       7.500   4.330  11.641  0.00  0.00    +0.000 OA
ATOM     15  H   UNL     1       8.442   4.098  11.712  0.00  0.00    +0.000 HD
ENDBRANCH  11  14
BRANCH   4  16
ATOM     16  C   UNL     1       4.084   4.103  17.310  0.00  0.00    +0.000 C 
BRANCH  16  17
ATOM     17  O   UNL     1       3.021   5.017  17.618  0.00  0.00    +0.000 OA
BRANCH  17  18
ATOM     18  C   UNL     1       2.960   5.429  18.908  0.00  0.00    +0.000 C 
ATOM     19  O   UNL     1       3.310   4.783  19.883  0.00  0.00    +0.000 OA
BRANCH  18  20
ATOM     20  C   UNL     1       2.392   6.804  18.994  0.00  0.00    +0.000 A 
ATOM     21  C   UNL     1       2.481   7.625  17.859  0.00  0.00    +0.000 A 
ATOM     22  C   UNL     1       2.013   8.941  17.891  0.00  0.00    +0.000 A 
ATOM     23  C   UNL     1       1.448   9.451  19.059  0.00  0.00    +0.000 A 
ATOM     24  C   UNL     1       1.342   8.632  20.186  0.00  0.00    +0.000 A 
ATOM     25  C   UNL     1       1.816   7.314  20.167  0.00  0.00    +0.000 A 
BRANCH  24  26
ATOM     26  S   UNL     1       0.687   9.315  21.693  0.00  0.00    +0.000 S 
ATOM     27  C   UNL     1       0.214  10.963  21.241  0.00  0.00    +0.000 C 
ATOM     28  O   UNL     1      -0.520   8.572  22.011  0.00  0.00    +0.000 OA
ATOM     29  O   UNL     1       1.778   9.400  22.642  0.00  0.00    +0.000 OA
ENDBRANCH  24  26
ENDBRANCH  18  20
ENDBRANCH  17  18
ENDBRANCH  16  17
ENDBRANCH   4  16
TORSDOF 7
ENDMDL
MODEL 2
REMARK VINA RESULT:      -8.3      3.177      5.446
REMARK  Name = 
REMARK  9 active torsions:
REMARK  status: ('A' for Active; 'I' for Inactive)
REMARK    1  A    between atoms: C_1  and  C_2
REMARK    2  A    between atoms: C_2  and  C_3
REMARK    3  A    between atoms: C_6  and  C_7
REMARK    4  A    between atoms: C_7  and  O_8
REMARK    5  A    between atoms: O_8  and  C_9
REMARK    6  A    between atoms: C_9  and  C_11
REMARK    7  A    between atoms: C_15  and  S_16
REMARK    8  A    between atoms: S_16  and  C_17
REMARK    9  A    between atoms: C_27  and  O_28
REMARK                            x       y       z     vdW  Elec       q    Type
REMARK                         _______ _______ _______ _____ _____    ______ ____
ROOT
ATOM      1  C   UNL     1       1.893   3.387  19.188  0.00  0.00    +0.000 A 
ATOM      2  C   UNL     1       2.002   4.788  19.060  0.00  0.00    +0.000 A 
ATOM      3  C   UNL     1       2.933   5.372  18.189  0.00  0.00    +0.000 A 
ATOM      4  C   UNL     1       3.119   6.824  18.028  0.00  0.00    +0.000 A 
ATOM      5  C   UNL     1       4.074   7.248  17.186  0.00  0.00    +0.000 A 
ATOM      6  C   UNL     1       4.936   6.352  16.404  0.00  0.00    +0.000 A 
ATOM      7  O   UNL     1       5.805   6.799  15.665  0.00  0.00    +0.000 OA
ATOM      8  O   UNL     1       4.720   4.995  16.554  0.00  0.00    +0.000 OA
ATOM      9  C   UNL     1       3.738   4.509  17.440  0.00  0.00    +0.000 A 
ATOM     10  C   UNL     1       3.635   3.120  17.523  0.00  0.00    +0.000 A 
ATOM     11  C   UNL     1       2.706   2.568  18.396  0.00  0.00    +0.000 A 
ENDROOT
BRANCH   1  13
ATOM     12  C   UNL     1       1.477   2.720  21.580  0.00  0.00    +0.000 C 
ATOM     13  C   UNL     1       0.909   2.801  20.173  0.00  0.00    +0.000 C 
ENDBRANCH   1  13
BRANCH  11  14
ATOM     14  O   UNL     1       2.579   1.212  18.496  0.00  0.00    +0.000 OA
ATOM     15  H   UNL     1       2.446   0.839  17.608  0.00  0.00    +0.000 HD
ENDBRANCH  11  14
BRANCH   4  16
ATOM     16  C   UNL     1       2.299   7.822  18.807  0.00  0.00    +0.000 C 
BRANCH  16  17
ATOM     17  O   UNL     1       1.328   8.479  17.979  0.00  0.00    +0.000 OA
BRANCH  17  18
ATOM     18  C   UNL     1       1.288   9.830  18.085  0.00  0.00    +0.000 C 
ATOM     19  O   UNL     1       2.247  10.582  18.013  0.00  0.00    +0.000 OA
BRANCH  18  20
ATOM     20  C   UNL     1      -0.108  10.298  18.312  0.00  0.00    +0.000 A 
ATOM     21  C   UNL     1      -1.102   9.858  17.424  0.00  0.00    +0.000 A 
ATOM     22  C   UNL     1      -2.422  10.300  17.553  0.00  0.00    +0.000 A 
ATOM     23  C   UNL     1      -2.762  11.187  18.573  0.00  0.00    +0.000 A 
ATOM     24  C   UNL     1      -1.779  11.614  19.470  0.00  0.00    +0.000 A 
ATOM     25  C   UNL     1      -0.452  11.183  19.344  0.00  0.00    +0.000 A 
BRANCH  24  26
ATOM     26  S   UNL     1      -2.209  12.802  20.723  0.00  0.00    +0.000 S 
ATOM     27  C   UNL     1      -3.929  13.120  20.433  0.00  0.00    +0.000 C 
ATOM     28  O   UNL     1      -2.086  12.134  22.007  0.00  0.00    +0.000 OA
ATOM     29  O   UNL     1      -1.470  14.016  20.443  0.00  0.00    +0.000 OA
ENDBRANCH  24  26
ENDBRANCH  18  20
ENDBRANCH  17  18
ENDBRANCH  16  17
ENDBRANCH   4  16
TORSDOF 7
ENDMDL
MODEL 3
REMARK VINA RESULT:      -8.3      2.578      4.972
REMARK  Name = 
REMARK  9 active torsions:
REMARK  status: ('A' for Active; 'I' for Inactive)
REMARK    1  A    between atoms: C_1  and  C_2
REMARK    2  A    between atoms: C_2  and  C_3
REMARK    3  A    between atoms: C_6  and  C_7
REMARK    4  A    between atoms: C_7  and  O_8
REMARK    5  A    between atoms: O_8  and  C_9
REMARK    6  A    between atoms: C_9  and  C_11
REMARK    7  A    between atoms: C_15  and  S_16
REMARK    8  A    between atoms: S_16  and  C_17
REMARK    9  A    between atoms: C_27  and  O_28
REMARK                            x       y       z     vdW  Elec       q    Type
REMARK                         _______ _______ _______ _____ _____    ______ ____
ROOT
ATOM      1  C   UNL     1       1.973   3.819  18.859  0.00  0.00    +0.000 A 
ATOM      2  C   UNL     1       2.510   5.082  18.531  0.00  0.00    +0.000 A 
ATOM      3  C   UNL     1       3.517   5.218  17.564  0.00  0.00    +0.000 A 
ATOM      4  C   UNL     1       4.141   6.500  17.195  0.00  0.00    +0.000 A 
ATOM      5  C   UNL     1       5.123   6.484  16.279  0.00  0.00    +0.000 A 
ATOM      6  C   UNL     1       5.602   5.266  15.614  0.00  0.00    +0.000 A 
ATOM      7  O   UNL     1       6.516   5.311  14.799  0.00  0.00    +0.000 OA
ATOM      8  O   UNL     1       4.979   4.081  15.960  0.00  0.00    +0.000 OA
ATOM      9  C   UNL     1       3.956   4.054  16.928  0.00  0.00    +0.000 A 
ATOM     10  C   UNL     1       3.424   2.795  17.210  0.00  0.00    +0.000 A 
ATOM     11  C   UNL     1       2.429   2.689  18.173  0.00  0.00    +0.000 A 
ENDROOT
BRANCH   1  13
ATOM     12  C   UNL     1       1.518   3.376  21.296  0.00  0.00    +0.000 C 
ATOM     13  C   UNL     1       0.922   3.712  19.939  0.00  0.00    +0.000 C 
ENDBRANCH   1  13
BRANCH  11  14
ATOM     14  O   UNL     1       1.887   1.470  18.467  0.00  0.00    +0.000 OA
ATOM     15  H   UNL     1       2.604   0.827  18.603  0.00  0.00    +0.000 HD
ENDBRANCH  11  14
BRANCH   4  16
ATOM     16  C   UNL     1       3.732   7.800  17.843  0.00  0.00    +0.000 C 
BRANCH  16  17
ATOM     17  O   UNL     1       2.305   7.930  17.928  0.00  0.00    +0.000 OA
BRANCH  17  18
ATOM     18  C   UNL     1       1.844   9.188  18.130  0.00  0.00    +0.000 C 
ATOM     19  O   UNL     1       1.872  10.100  17.318  0.00  0.00    +0.000 OA
BRANCH  18  20
ATOM     20  C   UNL     1       1.287   9.330  19.505  0.00  0.00    +0.000 A 
ATOM     21  C   UNL     1       1.410   8.239  20.379  0.00  0.00    +0.000 A 
ATOM     22  C   UNL     1       0.865   8.289  21.665  0.00  0.00    +0.000 A 
ATOM     23  C   UNL     1       0.192   9.433  22.091  0.00  0.00    +0.000 A 
ATOM     24  C   UNL     1       0.082  10.528  21.230  0.00  0.00    +0.000 A 
ATOM     25  C   UNL     1       0.617  10.484  19.936  0.00  0.00    +0.000 A 
BRANCH  24  26
ATOM     26  S   UNL     1      -0.841  11.955  21.757  0.00  0.00    +0.000 S 
ATOM     27  C   UNL     1      -1.713  11.388  23.193  0.00  0.00    +0.000 C 
ATOM     28  O   UNL     1       0.121  12.956  22.181  0.00  0.00    +0.000 OA
ATOM     29  O   UNL     1      -1.813  12.250  20.723  0.00  0.00    +0.000 OA
ENDBRANCH  24  26
ENDBRANCH  18  20
ENDBRANCH  17  18
ENDBRANCH  16  17
ENDBRANCH   4  16
TORSDOF 7
ENDMDL
MODEL 4
REMARK VINA RESULT:      -8.2      3.128      5.331
REMARK  Name = 
REMARK  9 active torsions:
REMARK  status: ('A' for Active; 'I' for Inactive)
REMARK    1  A    between atoms: C_1  and  C_2
REMARK    2  A    between atoms: C_2  and  C_3
REMARK    3  A    between atoms: C_6  and  C_7
REMARK    4  A    between atoms: C_7  and  O_8
REMARK    5  A    between atoms: O_8  and  C_9
REMARK    6  A    between atoms: C_9  and  C_11
REMARK    7  A    between atoms: C_15  and  S_16
REMARK    8  A    between atoms: S_16  and  C_17
REMARK    9  A    between atoms: C_27  and  O_28
REMARK                            x       y       z     vdW  Elec       q    Type
REMARK                         _______ _______ _______ _____ _____    ______ ____
ROOT
ATOM      1  C   UNL     1       1.876   3.453  19.230  0.00  0.00    +0.000 A 
ATOM      2  C   UNL     1       1.976   4.854  19.096  0.00  0.00    +0.000 A 
ATOM      3  C   UNL     1       2.899   5.439  18.217  0.00  0.00    +0.000 A 
ATOM      4  C   UNL     1       3.075   6.891  18.049  0.00  0.00    +0.000 A 
ATOM      5  C   UNL     1       4.023   7.318  17.200  0.00  0.00    +0.000 A 
ATOM      6  C   UNL     1       4.885   6.423  16.417  0.00  0.00    +0.000 A 
ATOM      7  O   UNL     1       5.747   6.872  15.671  0.00  0.00    +0.000 OA
ATOM      8  O   UNL     1       4.677   5.065  16.574  0.00  0.00    +0.000 OA
ATOM      9  C   UNL     1       3.704   4.578  17.467  0.00  0.00    +0.000 A 
ATOM     10  C   UNL     1       3.609   3.189  17.556  0.00  0.00    +0.000 A 
ATOM     11  C   UNL     1       2.688   2.635  18.437  0.00  0.00    +0.000 A 
ENDROOT
BRANCH   1  13
ATOM     12  C   UNL     1       1.486   2.769  21.623  0.00  0.00    +0.000 C 
ATOM     13  C   UNL     1       0.900   2.866  20.224  0.00  0.00    +0.000 C 
ENDBRANCH   1  13
BRANCH  11  14
ATOM     14  O   UNL     1       2.569   1.279  18.543  0.00  0.00    +0.000 OA
ATOM     15  H   UNL     1       2.343   1.050  19.460  0.00  0.00    +0.000 HD
ENDBRANCH  11  14
BRANCH   4  16
ATOM     16  C   UNL     1       2.254   7.888  18.829  0.00  0.00    +0.000 C 
BRANCH  16  17
ATOM     17  O   UNL     1       2.163   9.151  18.153  0.00  0.00    +0.000 OA
BRANCH  17  18
ATOM     18  C   UNL     1       0.932   9.719  18.139  0.00  0.00    +0.000 C 
ATOM     19  O   UNL     1      -0.016   9.353  17.463  0.00  0.00    +0.000 OA
BRANCH  18  20
ATOM     20  C   UNL     1       0.878  10.880  19.072  0.00  0.00    +0.000 A 
ATOM     21  C   UNL     1       1.800  11.920  18.880  0.00  0.00    +0.000 A 
ATOM     22  C   UNL     1       1.834  13.014  19.751  0.00  0.00    +0.000 A 
ATOM     23  C   UNL     1       0.944  13.079  20.821  0.00  0.00    +0.000 A 
ATOM     24  C   UNL     1       0.012  12.053  21.005  0.00  0.00    +0.000 A 
ATOM     25  C   UNL     1      -0.024  10.949  20.143  0.00  0.00    +0.000 A 
BRANCH  24  26
ATOM     26  S   UNL     1      -1.070  12.110  22.416  0.00  0.00    +0.000 S 
ATOM     27  C   UNL     1      -0.926  10.492  23.126  0.00  0.00    +0.000 C 
ATOM     28  O   UNL     1      -0.504  13.065  23.353  0.00  0.00    +0.000 OA
ATOM     29  O   UNL     1      -2.423  12.269  21.920  0.00  0.00    +0.000 OA
ENDBRANCH  24  26
ENDBRANCH  18  20
ENDBRANCH  17  18
ENDBRANCH  16  17
ENDBRANCH   4  16
TORSDOF 7
ENDMDL
MODEL 5
REMARK VINA RESULT:      -8.2      3.276      5.711
REMARK  Name = 
REMARK  9 active torsions:
REMARK  status: ('A' for Active; 'I' for Inactive)
REMARK    1  A    between atoms: C_1  and  C_2
REMARK    2  A    between atoms: C_2  and  C_3
REMARK    3  A    between atoms: C_6  and  C_7
REMARK    4  A    between atoms: C_7  and  O_8
REMARK    5  A    between atoms: O_8  and  C_9
REMARK    6  A    between atoms: C_9  and  C_11
REMARK    7  A    between atoms: C_15  and  S_16
REMARK    8  A    between atoms: S_16  and  C_17
REMARK    9  A    between atoms: C_27  and  O_28
REMARK                            x       y       z     vdW  Elec       q    Type
REMARK                         _______ _______ _______ _____ _____    ______ ____
ROOT
ATOM      1  C   UNL     1       1.981   3.324  19.292  0.00  0.00    +0.000 A 
ATOM      2  C   UNL     1       2.053   4.725  19.145  0.00  0.00    +0.000 A 
ATOM      3  C   UNL     1       2.950   5.320  18.247  0.00  0.00    +0.000 A 
ATOM      4  C   UNL     1       3.096   6.774  18.066  0.00  0.00    +0.000 A 
ATOM      5  C   UNL     1       4.023   7.212  17.198  0.00  0.00    +0.000 A 
ATOM      6  C   UNL     1       4.889   6.327  16.408  0.00  0.00    +0.000 A 
ATOM      7  O   UNL     1       5.730   6.786  15.645  0.00  0.00    +0.000 OA
ATOM      8  O   UNL     1       4.709   4.967  16.579  0.00  0.00    +0.000 OA
ATOM      9  C   UNL     1       3.759   4.468  17.491  0.00  0.00    +0.000 A 
ATOM     10  C   UNL     1       3.692   3.078  17.593  0.00  0.00    +0.000 A 
ATOM     11  C   UNL     1       2.795   2.515  18.493  0.00  0.00    +0.000 A 
ENDROOT
BRANCH   1  13
ATOM     12  C   UNL     1       1.508   2.930  21.734  0.00  0.00    +0.000 C 
ATOM     13  C   UNL     1       1.032   2.726  20.306  0.00  0.00    +0.000 C 
ENDBRANCH   1  13
BRANCH  11  14
ATOM     14  O   UNL     1       2.704   1.158  18.611  0.00  0.00    +0.000 OA
ATOM     15  H   UNL     1       3.022   0.892  19.490  0.00  0.00    +0.000 HD
ENDBRANCH  11  14
BRANCH   4  16
ATOM     16  C   UNL     1       2.270   7.762  18.851  0.00  0.00    +0.000 C 
BRANCH  16  17
ATOM     17  O   UNL     1       1.399   8.525  18.002  0.00  0.00    +0.000 OA
BRANCH  17  18
ATOM     18  C   UNL     1       1.588   9.867  18.027  0.00  0.00    +0.000 C 
ATOM     19  O   UNL     1       2.610  10.452  17.706  0.00  0.00    +0.000 OA
BRANCH  18  20
ATOM     20  C   UNL     1       0.362  10.561  18.515  0.00  0.00    +0.000 A 
ATOM     21  C   UNL     1       0.476  11.374  19.653  0.00  0.00    +0.000 A 
ATOM     22  C   UNL     1      -0.645  12.013  20.190  0.00  0.00    +0.000 A 
ATOM     23  C   UNL     1      -1.893  11.846  19.592  0.00  0.00    +0.000 A 
ATOM     24  C   UNL     1      -2.008  11.052  18.448  0.00  0.00    +0.000 A 
ATOM     25  C   UNL     1      -0.891  10.401  17.908  0.00  0.00    +0.000 A 
BRANCH  24  26
ATOM     26  S   UNL     1      -3.617  10.788  17.736  0.00  0.00    +0.000 S 
ATOM     27  C   UNL     1      -4.702  11.720  18.783  0.00  0.00    +0.000 C 
ATOM     28  O   UNL     1      -3.612  11.411  16.424  0.00  0.00    +0.000 OA
ATOM     29  O   UNL     1      -3.935   9.382  17.889  0.00  0.00    +0.000 OA
ENDBRANCH  24  26
ENDBRANCH  18  20
ENDBRANCH  17  18
ENDBRANCH  16  17
ENDBRANCH   4  16
TORSDOF 7
ENDMDL
MODEL 6
REMARK VINA RESULT:      -8.1      3.215      5.110
REMARK  Name = 
REMARK  9 active torsions:
REMARK  status: ('A' for Active; 'I' for Inactive)
REMARK    1  A    between atoms: C_1  and  C_2
REMARK    2  A    between atoms: C_2  and  C_3
REMARK    3  A    between atoms: C_6  and  C_7
REMARK    4  A    between atoms: C_7  and  O_8
REMARK    5  A    between atoms: O_8  and  C_9
REMARK    6  A    between atoms: C_9  and  C_11
REMARK    7  A    between atoms: C_15  and  S_16
REMARK    8  A    between atoms: S_16  and  C_17
REMARK    9  A    between atoms: C_27  and  O_28
REMARK                            x       y       z     vdW  Elec       q    Type
REMARK                         _______ _______ _______ _____ _____    ______ ____
ROOT
ATOM      1  C   UNL     1       6.716   6.068  18.046  0.00  0.00    +0.000 A 
ATOM      2  C   UNL     1       5.447   6.679  18.137  0.00  0.00    +0.000 A 
ATOM      3  C   UNL     1       4.268   5.924  18.063  0.00  0.00    +0.000 A 
ATOM      4  C   UNL     1       2.913   6.500  18.122  0.00  0.00    +0.000 A 
ATOM      5  C   UNL     1       1.868   5.666  18.002  0.00  0.00    +0.000 A 
ATOM      6  C   UNL     1       1.993   4.213  17.829  0.00  0.00    +0.000 A 
ATOM      7  O   UNL     1       1.001   3.505  17.706  0.00  0.00    +0.000 OA
ATOM      8  O   UNL     1       3.276   3.698  17.806  0.00  0.00    +0.000 OA
ATOM      9  C   UNL     1       4.399   4.541  17.913  0.00  0.00    +0.000 A 
ATOM     10  C   UNL     1       5.640   3.906  17.849  0.00  0.00    +0.000 A 
ATOM     11  C   UNL     1       6.793   4.677  17.922  0.00  0.00    +0.000 A 
ENDROOT
BRANCH   1  13
ATOM     12  C   UNL     1       7.705   8.339  17.592  0.00  0.00    +0.000 C 
ATOM     13  C   UNL     1       7.961   6.924  18.083  0.00  0.00    +0.000 C 
ENDBRANCH   1  13
BRANCH  11  14
ATOM     14  O   UNL     1       8.021   4.082  17.866  0.00  0.00    +0.000 OA
ATOM     15  H   UNL     1       8.051   3.355  18.510  0.00  0.00    +0.000 HD
ENDBRANCH  11  14
BRANCH   4  16
ATOM     16  C   UNL     1       2.684   7.983  18.272  0.00  0.00    +0.000 C 
BRANCH  16  17
ATOM     17  O   UNL     1       1.769   8.279  19.337  0.00  0.00    +0.000 OA
BRANCH  17  18
ATOM     18  C   UNL     1       1.180   9.498  19.281  0.00  0.00    +0.000 C 
ATOM     19  O   UNL     1       1.176  10.246  18.316  0.00  0.00    +0.000 OA
BRANCH  18  20
ATOM     20  C   UNL     1       0.523   9.825  20.578  0.00  0.00    +0.000 A 
ATOM     21  C   UNL     1       0.716   8.944  21.653  0.00  0.00    +0.000 A 
ATOM     22  C   UNL     1       0.088   9.168  22.881  0.00  0.00    +0.000 A 
ATOM     23  C   UNL     1      -0.739  10.277  23.048  0.00  0.00    +0.000 A 
ATOM     24  C   UNL     1      -0.920  11.167  21.985  0.00  0.00    +0.000 A 
ATOM     25  C   UNL     1      -0.302  10.946  20.747  0.00  0.00    +0.000 A 
BRANCH  24  26
ATOM     26  S   UNL     1      -2.035  12.539  22.186  0.00  0.00    +0.000 S 
ATOM     27  C   UNL     1      -2.774  12.721  20.585  0.00  0.00    +0.000 C 
ATOM     28  O   UNL     1      -3.069  12.119  23.115  0.00  0.00    +0.000 OA
ATOM     29  O   UNL     1      -1.232  13.716  22.451  0.00  0.00    +0.000 OA
ENDBRANCH  24  26
ENDBRANCH  18  20
ENDBRANCH  17  18
ENDBRANCH  16  17
ENDBRANCH   4  16
TORSDOF 7
ENDMDL
MODEL 7
REMARK VINA RESULT:      -8.0      3.041      8.871
REMARK  Name = 
REMARK  9 active torsions:
REMARK  status: ('A' for Active; 'I' for Inactive)
REMARK    1  A    between atoms: C_1  and  C_2
REMARK    2  A    between atoms: C_2  and  C_3
REMARK    3  A    between atoms: C_6  and  C_7
REMARK    4  A    between atoms: C_7  and  O_8
REMARK    5  A    between atoms: O_8  and  C_9
REMARK    6  A    between atoms: C_9  and  C_11
REMARK    7  A    between atoms: C_15  and  S_16
REMARK    8  A    between atoms: S_16  and  C_17
REMARK    9  A    between atoms: C_27  and  O_28
REMARK                            x       y       z     vdW  Elec       q    Type
REMARK                         _______ _______ _______ _____ _____    ______ ____
ROOT
ATOM      1  C   UNL     1      -1.610  11.127  18.207  0.00  0.00    +0.000 A 
ATOM      2  C   UNL     1      -0.602  10.178  18.483  0.00  0.00    +0.000 A 
ATOM      3  C   UNL     1      -0.147   9.955  19.790  0.00  0.00    +0.000 A 
ATOM      4  C   UNL     1       0.919   9.002  20.143  0.00  0.00    +0.000 A 
ATOM      5  C   UNL     1       1.284   8.914  21.432  0.00  0.00    +0.000 A 
ATOM      6  C   UNL     1       0.675   9.700  22.513  0.00  0.00    +0.000 A 
ATOM      7  O   UNL     1       1.064   9.590  23.669  0.00  0.00    +0.000 OA
ATOM      8  O   UNL     1      -0.342  10.565  22.155  0.00  0.00    +0.000 OA
ATOM      9  C   UNL     1      -0.744  10.698  20.812  0.00  0.00    +0.000 A 
ATOM     10  C   UNL     1      -1.762  11.623  20.575  0.00  0.00    +0.000 A 
ATOM     11  C   UNL     1      -2.192  11.826  19.270  0.00  0.00    +0.000 A 
ENDROOT
BRANCH   1  13
ATOM     12  C   UNL     1      -3.014  10.318  16.279  0.00  0.00    +0.000 C 
ATOM     13  C   UNL     1      -2.037  11.370  16.778  0.00  0.00    +0.000 C 
ENDBRANCH   1  13
BRANCH  11  14
ATOM     14  O   UNL     1      -3.189  12.721  19.008  0.00  0.00    +0.000 OA
ATOM     15  H   UNL     1      -3.877  12.640  19.690  0.00  0.00    +0.000 HD
ENDBRANCH  11  14
BRANCH   4  16
ATOM     16  C   UNL     1       1.621   8.170  19.099  0.00  0.00    +0.000 C 
BRANCH  16  17
ATOM     17  O   UNL     1       2.650   7.350  19.673  0.00  0.00    +0.000 OA
BRANCH  17  18
ATOM     18  C   UNL     1       2.398   6.018  19.682  0.00  0.00    +0.000 C 
ATOM     19  O   UNL     1       1.602   5.445  20.408  0.00  0.00    +0.000 OA
BRANCH  18  20
ATOM     20  C   UNL     1       3.239   5.317  18.671  0.00  0.00    +0.000 A 
ATOM     21  C   UNL     1       2.640   4.304  17.906  0.00  0.00    +0.000 A 
ATOM     22  C   UNL     1       3.387   3.574  16.977  0.00  0.00    +0.000 A 
ATOM     23  C   UNL     1       4.742   3.851  16.801  0.00  0.00    +0.000 A 
ATOM     24  C   UNL     1       5.338   4.871  17.548  0.00  0.00    +0.000 A 
ATOM     25  C   UNL     1       4.600   5.602  18.488  0.00  0.00    +0.000 A 
BRANCH  24  26
ATOM     26  S   UNL     1       7.083   5.168  17.368  0.00  0.00    +0.000 S 
ATOM     27  C   UNL     1       7.241   6.918  17.602  0.00  0.00    +0.000 C 
ATOM     28  O   UNL     1       7.747   4.505  18.477  0.00  0.00    +0.000 OA
ATOM     29  O   UNL     1       7.438   4.860  15.998  0.00  0.00    +0.000 OA
ENDBRANCH  24  26
ENDBRANCH  18  20
ENDBRANCH  17  18
ENDBRANCH  16  17
ENDBRANCH   4  16
TORSDOF 7
ENDMDL
MODEL 8
REMARK VINA RESULT:      -8.0      3.473      8.808
REMARK  Name = 
REMARK  9 active torsions:
REMARK  status: ('A' for Active; 'I' for Inactive)
REMARK    1  A    between atoms: C_1  and  C_2
REMARK    2  A    between atoms: C_2  and  C_3
REMARK    3  A    between atoms: C_6  and  C_7
REMARK    4  A    between atoms: C_7  and  O_8
REMARK    5  A    between atoms: O_8  and  C_9
REMARK    6  A    between atoms: C_9  and  C_11
REMARK    7  A    between atoms: C_15  and  S_16
REMARK    8  A    between atoms: S_16  and  C_17
REMARK    9  A    between atoms: C_27  and  O_28
REMARK                            x       y       z     vdW  Elec       q    Type
REMARK                         _______ _______ _______ _____ _____    ______ ____
ROOT
ATOM      1  C   UNL     1      -2.483  10.232  17.110  0.00  0.00    +0.000 A 
ATOM      2  C   UNL     1      -1.109  10.037  17.368  0.00  0.00    +0.000 A 
ATOM      3  C   UNL     1      -0.469  10.678  18.438  0.00  0.00    +0.000 A 
ATOM      4  C   UNL     1       0.965  10.541  18.746  0.00  0.00    +0.000 A 
ATOM      5  C   UNL     1       1.458  11.242  19.779  0.00  0.00    +0.000 A 
ATOM      6  C   UNL     1       0.651  12.127  20.629  0.00  0.00    +0.000 A 
ATOM      7  O   UNL     1       1.162  12.757  21.548  0.00  0.00    +0.000 OA
ATOM      8  O   UNL     1      -0.697  12.214  20.334  0.00  0.00    +0.000 OA
ATOM      9  C   UNL     1      -1.250  11.506  19.249  0.00  0.00    +0.000 A 
ATOM     10  C   UNL     1      -2.615  11.697  19.036  0.00  0.00    +0.000 A 
ATOM     11  C   UNL     1      -3.224  11.051  17.967  0.00  0.00    +0.000 A 
ENDROOT
BRANCH   1  13
ATOM     12  C   UNL     1      -3.027  10.400  14.657  0.00  0.00    +0.000 C 
ATOM     13  C   UNL     1      -3.122   9.558  15.919  0.00  0.00    +0.000 C 
ENDBRANCH   1  13
BRANCH  11  14
ATOM     14  O   UNL     1      -4.560  11.216  17.738  0.00  0.00    +0.000 OA
ATOM     15  H   UNL     1      -4.980  11.568  18.541  0.00  0.00    +0.000 HD
ENDBRANCH  11  14
BRANCH   4  16
ATOM     16  C   UNL     1       1.878   9.676  17.914  0.00  0.00    +0.000 C 
BRANCH  16  17
ATOM     17  O   UNL     1       1.501   8.292  17.968  0.00  0.00    +0.000 OA
BRANCH  17  18
ATOM     18  C   UNL     1       2.176   7.537  18.869  0.00  0.00    +0.000 C 
ATOM     19  O   UNL     1       2.204   7.719  20.076  0.00  0.00    +0.000 OA
BRANCH  18  20
ATOM     20  C   UNL     1       2.904   6.430  18.188  0.00  0.00    +0.000 A 
ATOM     21  C   UNL     1       2.242   5.202  18.038  0.00  0.00    +0.000 A 
ATOM     22  C   UNL     1       2.888   4.109  17.453  0.00  0.00    +0.000 A 
ATOM     23  C   UNL     1       4.203   4.234  17.008  0.00  0.00    +0.000 A 
ATOM     24  C   UNL     1       4.860   5.461  17.139  0.00  0.00    +0.000 A 
ATOM     25  C   UNL     1       4.224   6.559  17.733  0.00  0.00    +0.000 A 
BRANCH  24  26
ATOM     26  S   UNL     1       6.561   5.589  16.635  0.00  0.00    +0.000 S 
ATOM     27  C   UNL     1       7.122   7.081  17.412  0.00  0.00    +0.000 C 
ATOM     28  O   UNL     1       7.272   4.475  17.237  0.00  0.00    +0.000 OA
ATOM     29  O   UNL     1       6.576   5.791  15.200  0.00  0.00    +0.000 OA
ENDBRANCH  24  26
ENDBRANCH  18  20
ENDBRANCH  17  18
ENDBRANCH  16  17
ENDBRANCH   4  16
TORSDOF 7
ENDMDL
MODEL 9
REMARK VINA RESULT:      -8.0      4.053      6.691
REMARK  Name = 
REMARK  9 active torsions:
REMARK  status: ('A' for Active; 'I' for Inactive)
REMARK    1  A    between atoms: C_1  and  C_2
REMARK    2  A    between atoms: C_2  and  C_3
REMARK    3  A    between atoms: C_6  and  C_7
REMARK    4  A    between atoms: C_7  and  O_8
REMARK    5  A    between atoms: O_8  and  C_9
REMARK    6  A    between atoms: C_9  and  C_11
REMARK    7  A    between atoms: C_15  and  S_16
REMARK    8  A    between atoms: S_16  and  C_17
REMARK    9  A    between atoms: C_27  and  O_28
REMARK                            x       y       z     vdW  Elec       q    Type
REMARK                         _______ _______ _______ _____ _____    ______ ____
ROOT
ATOM      1  C   UNL     1       2.763   4.294  19.941  0.00  0.00    +0.000 A 
ATOM      2  C   UNL     1       2.189   5.470  20.468  0.00  0.00    +0.000 A 
ATOM      3  C   UNL     1       2.128   6.653  19.717  0.00  0.00    +0.000 A 
ATOM      4  C   UNL     1       1.569   7.921  20.216  0.00  0.00    +0.000 A 
ATOM      5  C   UNL     1       1.608   8.990  19.404  0.00  0.00    +0.000 A 
ATOM      6  C   UNL     1       2.162   8.967  18.045  0.00  0.00    +0.000 A 
ATOM      7  O   UNL     1       2.188   9.981  17.357  0.00  0.00    +0.000 OA
ATOM      8  O   UNL     1       2.654   7.756  17.594  0.00  0.00    +0.000 OA
ATOM      9  C   UNL     1       2.646   6.616  18.420  0.00  0.00    +0.000 A 
ATOM     10  C   UNL     1       3.195   5.461  17.861  0.00  0.00    +0.000 A 
ATOM     11  C   UNL     1       3.244   4.303  18.627  0.00  0.00    +0.000 A 
ENDROOT
BRANCH   1  13
ATOM     12  C   UNL     1       1.503   2.655  21.378  0.00  0.00    +0.000 C 
ATOM     13  C   UNL     1       2.850   3.054  20.800  0.00  0.00    +0.000 C 
ENDBRANCH   1  13
BRANCH  11  14
ATOM     14  O   UNL     1       3.771   3.157  18.105  0.00  0.00    +0.000 OA
ATOM     15  H   UNL     1       3.248   2.890  17.330  0.00  0.00    +0.000 HD
ENDBRANCH  11  14
BRANCH   4  16
ATOM     16  C   UNL     1       1.001   8.048  21.608  0.00  0.00    +0.000 C 
BRANCH  16  17
ATOM     17  O   UNL     1      -0.131   8.929  21.645  0.00  0.00    +0.000 OA
BRANCH  17  18
ATOM     18  C   UNL     1      -0.171   9.785  22.696  0.00  0.00    +0.000 C 
ATOM     19  O   UNL     1       0.422   9.647  23.754  0.00  0.00    +0.000 OA
BRANCH  18  20
ATOM     20  C   UNL     1      -1.058  10.944  22.396  0.00  0.00    +0.000 A 
ATOM     21  C   UNL     1      -0.866  11.621  21.182  0.00  0.00    +0.000 A 
ATOM     22  C   UNL     1      -1.631  12.747  20.863  0.00  0.00    +0.000 A 
ATOM     23  C   UNL     1      -2.599  13.206  21.756  0.00  0.00    +0.000 A 
ATOM     24  C   UNL     1      -2.805  12.524  22.958  0.00  0.00    +0.000 A 
ATOM     25  C   UNL     1      -2.037  11.400  23.290  0.00  0.00    +0.000 A 
BRANCH  24  26
ATOM     26  S   UNL     1      -3.991  13.161  24.121  0.00  0.00    +0.000 S 
ATOM     27  C   UNL     1      -5.220  13.925  23.097  0.00  0.00    +0.000 C 
ATOM     28  O   UNL     1      -4.601  12.019  24.779  0.00  0.00    +0.000 OA
ATOM     29  O   UNL     1      -3.333  14.197  24.890  0.00  0.00    +0.000 OA
ENDBRANCH  24  26
ENDBRANCH  18  20
ENDBRANCH  17  18
ENDBRANCH  16  17
ENDBRANCH   4  16
TORSDOF 7
ENDMDL
