MODEL 1
REMARK VINA RESULT:      -7.1      0.000      0.000
REMARK  Name = 
REMARK  7 active torsions:
REMARK  status: ('A' for Active; 'I' for Inactive)
REMARK    1  A    between atoms: C_1  and  O_2
REMARK    2  A    between atoms: O_2  and  C_3
REMARK    3  A    between atoms: C_5  and  O_6
REMARK    4  A    between atoms: O_6  and  C_7
REMARK    5  A    between atoms: C_8  and  N_9
REMARK    6  A    between atoms: C_26  and  O_27
REMARK    7  A    between atoms: O_27  and  C_28
REMARK                            x       y       z     vdW  Elec       q    Type
REMARK                         _______ _______ _______ _____ _____    ______ ____
ROOT
ATOM      1  N   UNL     1      -1.180  12.408  20.399  0.00  0.00    +0.000 N 
ATOM      2  C   UNL     1      -2.429  12.172  19.788  0.00  0.00    +0.000 A 
ATOM      3  O   UNL     1      -3.485  12.577  20.280  0.00  0.00    +0.000 OA
ATOM      4  C   UNL     1      -2.534  11.440  18.502  0.00  0.00    +0.000 A 
ATOM      5  C   UNL     1      -3.712  11.737  17.767  0.00  0.00    +0.000 A 
ATOM      6  C   UNL     1      -4.027  11.076  16.585  0.00  0.00    +0.000 A 
ATOM      7  C   UNL     1      -3.171  10.098  16.117  0.00  0.00    +0.000 A 
ATOM      8  C   UNL     1      -1.993   9.815  16.818  0.00  0.00    +0.000 A 
ATOM      9  C   UNL     1      -1.621  10.490  18.013  0.00  0.00    +0.000 A 
ATOM     10  C   UNL     1      -0.409  10.050  18.728  0.00  0.00    +0.000 A 
ATOM     11  C   UNL     1       0.700   9.495  18.067  0.00  0.00    +0.000 A 
ATOM     12  C   UNL     1       1.706   8.830  18.776  0.00  0.00    +0.000 A 
ATOM     13  C   UNL     1       1.554   8.587  20.136  0.00  0.00    +0.000 A 
ATOM     14  C   UNL     1       0.496   9.177  20.815  0.00  0.00    +0.000 A 
ATOM     15  C   UNL     1      -0.327  10.083  20.122  0.00  0.00    +0.000 A 
ATOM     16  C   UNL     1      -0.204  11.459  20.672  0.00  0.00    +0.000 A 
ATOM     17  O   UNL     1       0.829  11.718  21.295  0.00  0.00    +0.000 OA
ENDROOT
BRANCH   1  21
ATOM     18  C   UNL     1      -0.651  15.556  23.128  0.00  0.00    +0.000 A 
ATOM     19  C   UNL     1      -0.486  15.794  21.762  0.00  0.00    +0.000 A 
ATOM     20  C   UNL     1      -0.751  14.796  20.830  0.00  0.00    +0.000 A 
ATOM     21  C   UNL     1      -1.197  13.537  21.292  0.00  0.00    +0.000 A 
ATOM     22  C   UNL     1      -1.465  13.323  22.659  0.00  0.00    +0.000 A 
ATOM     23  C   UNL     1      -1.177  14.345  23.580  0.00  0.00    +0.000 A 
BRANCH  18  25
ATOM     24  C   UNL     1      -0.523  16.513  25.303  0.00  0.00    +0.000 C 
ATOM     25  O   UNL     1      -0.220  16.586  23.920  0.00  0.00    +0.000 OA
ENDBRANCH  18  25
BRANCH  20  26
ATOM     26  O   UNL     1      -0.553  14.934  19.480  0.00  0.00    +0.000 OA
ATOM     27  C   UNL     1      -0.412  16.246  18.963  0.00  0.00    +0.000 C 
ENDBRANCH  20  26
BRANCH  22  28
ATOM     28  O   UNL     1      -1.984  12.095  23.003  0.00  0.00    +0.000 OA
ATOM     29  C   UNL     1      -3.214  12.095  23.722  0.00  0.00    +0.000 C 
ENDBRANCH  22  28
ENDBRANCH   1  21
TORSDOF 4
ENDMDL
MODEL 2
REMARK VINA RESULT:      -7.0      0.806      2.534
REMARK  Name = 
REMARK  7 active torsions:
REMARK  status: ('A' for Active; 'I' for Inactive)
REMARK    1  A    between atoms: C_1  and  O_2
REMARK    2  A    between atoms: O_2  and  C_3
REMARK    3  A    between atoms: C_5  and  O_6
REMARK    4  A    between atoms: O_6  and  C_7
REMARK    5  A    between atoms: C_8  and  N_9
REMARK    6  A    between atoms: C_26  and  O_27
REMARK    7  A    between atoms: O_27  and  C_28
REMARK                            x       y       z     vdW  Elec       q    Type
REMARK                         _______ _______ _______ _____ _____    ______ ____
ROOT
ATOM      1  N   UNL     1      -1.322  12.528  20.275  0.00  0.00    +0.000 N 
ATOM      2  C   UNL     1      -2.552  12.254  19.641  0.00  0.00    +0.000 A 
ATOM      3  O   UNL     1      -3.625  12.667  20.088  0.00  0.00    +0.000 OA
ATOM      4  C   UNL     1      -2.616  11.468  18.385  0.00  0.00    +0.000 A 
ATOM      5  C   UNL     1      -3.776  11.721  17.607  0.00  0.00    +0.000 A 
ATOM      6  C   UNL     1      -4.054  11.009  16.446  0.00  0.00    +0.000 A 
ATOM      7  C   UNL     1      -3.176  10.021  16.042  0.00  0.00    +0.000 A 
ATOM      8  C   UNL     1      -2.015   9.781  16.785  0.00  0.00    +0.000 A 
ATOM      9  C   UNL     1      -1.681  10.508  17.960  0.00  0.00    +0.000 A 
ATOM     10  C   UNL     1      -0.484  10.110  18.724  0.00  0.00    +0.000 A 
ATOM     11  C   UNL     1       0.647   9.541  18.116  0.00  0.00    +0.000 A 
ATOM     12  C   UNL     1       1.640   8.917  18.878  0.00  0.00    +0.000 A 
ATOM     13  C   UNL     1       1.454   8.728  20.243  0.00  0.00    +0.000 A 
ATOM     14  C   UNL     1       0.373   9.335  20.868  0.00  0.00    +0.000 A 
ATOM     15  C   UNL     1      -0.440  10.202  20.117  0.00  0.00    +0.000 A 
ATOM     16  C   UNL     1      -0.344  11.601  20.612  0.00  0.00    +0.000 A 
ATOM     17  O   UNL     1       0.669  11.897  21.251  0.00  0.00    +0.000 OA
ENDROOT
BRANCH   1  21
ATOM     18  C   UNL     1      -2.031  16.009  22.513  0.00  0.00    +0.000 A 
ATOM     19  C   UNL     1      -2.255  14.760  23.095  0.00  0.00    +0.000 A 
ATOM     20  C   UNL     1      -1.936  13.591  22.411  0.00  0.00    +0.000 A 
ATOM     21  C   UNL     1      -1.373  13.693  21.119  0.00  0.00    +0.000 A 
ATOM     22  C   UNL     1      -1.049  14.950  20.569  0.00  0.00    +0.000 A 
ATOM     23  C   UNL     1      -1.394  16.114  21.276  0.00  0.00    +0.000 A 
BRANCH  18  25
ATOM     24  C   UNL     1      -2.906  16.780  24.588  0.00  0.00    +0.000 C 
ATOM     25  O   UNL     1      -2.522  17.053  23.250  0.00  0.00    +0.000 OA
ENDBRANCH  18  25
BRANCH  20  26
ATOM     26  O   UNL     1      -2.183  12.330  22.890  0.00  0.00    +0.000 OA
ATOM     27  C   UNL     1      -3.290  12.157  23.757  0.00  0.00    +0.000 C 
ENDBRANCH  20  26
BRANCH  22  28
ATOM     28  O   UNL     1      -0.420  14.946  19.344  0.00  0.00    +0.000 OA
ATOM     29  C   UNL     1      -0.221  16.210  18.719  0.00  0.00    +0.000 C 
ENDBRANCH  22  28
ENDBRANCH   1  21
TORSDOF 4
ENDMDL
MODEL 3
REMARK VINA RESULT:      -6.4      2.358      5.348
REMARK  Name = 
REMARK  7 active torsions:
REMARK  status: ('A' for Active; 'I' for Inactive)
REMARK    1  A    between atoms: C_1  and  O_2
REMARK    2  A    between atoms: O_2  and  C_3
REMARK    3  A    between atoms: C_5  and  O_6
REMARK    4  A    between atoms: O_6  and  C_7
REMARK    5  A    between atoms: C_8  and  N_9
REMARK    6  A    between atoms: C_26  and  O_27
REMARK    7  A    between atoms: O_27  and  C_28
REMARK                            x       y       z     vdW  Elec       q    Type
REMARK                         _______ _______ _______ _____ _____    ______ ____
ROOT
ATOM      1  N   UNL     1      -0.617  13.227  19.785  0.00  0.00    +0.000 N 
ATOM      2  C   UNL     1      -0.766  13.037  21.175  0.00  0.00    +0.000 A 
ATOM      3  O   UNL     1       0.203  12.872  21.920  0.00  0.00    +0.000 OA
ATOM      4  C   UNL     1      -2.103  13.051  21.818  0.00  0.00    +0.000 A 
ATOM      5  C   UNL     1      -2.073  13.384  23.197  0.00  0.00    +0.000 A 
ATOM      6  C   UNL     1      -3.217  13.354  23.986  0.00  0.00    +0.000 A 
ATOM      7  C   UNL     1      -4.417  12.984  23.410  0.00  0.00    +0.000 A 
ATOM      8  C   UNL     1      -4.465  12.680  22.044  0.00  0.00    +0.000 A 
ATOM      9  C   UNL     1      -3.323  12.729  21.199  0.00  0.00    +0.000 A 
ATOM     10  C   UNL     1      -3.461  12.296  19.796  0.00  0.00    +0.000 A 
ATOM     11  C   UNL     1      -4.658  12.435  19.075  0.00  0.00    +0.000 A 
ATOM     12  C   UNL     1      -4.852  11.769  17.860  0.00  0.00    +0.000 A 
ATOM     13  C   UNL     1      -3.913  10.845  17.415  0.00  0.00    +0.000 A 
ATOM     14  C   UNL     1      -2.700  10.739  18.083  0.00  0.00    +0.000 A 
ATOM     15  C   UNL     1      -2.424  11.642  19.126  0.00  0.00    +0.000 A 
ATOM     16  C   UNL     1      -1.287  12.536  18.783  0.00  0.00    +0.000 A 
ATOM     17  O   UNL     1      -1.040  12.687  17.583  0.00  0.00    +0.000 OA
ENDROOT
BRANCH   1  21
ATOM     18  C   UNL     1       2.997  14.604  18.149  0.00  0.00    +0.000 A 
ATOM     19  C   UNL     1       2.052  15.526  18.605  0.00  0.00    +0.000 A 
ATOM     20  C   UNL     1       0.891  15.097  19.241  0.00  0.00    +0.000 A 
ATOM     21  C   UNL     1       0.689  13.711  19.421  0.00  0.00    +0.000 A 
ATOM     22  C   UNL     1       1.685  12.782  19.057  0.00  0.00    +0.000 A 
ATOM     23  C   UNL     1       2.842  13.242  18.405  0.00  0.00    +0.000 A 
BRANCH  18  25
ATOM     24  C   UNL     1       5.339  14.867  17.820  0.00  0.00    +0.000 C 
ATOM     25  O   UNL     1       4.011  15.172  17.426  0.00  0.00    +0.000 OA
ENDBRANCH  18  25
BRANCH  20  26
ATOM     26  O   UNL     1      -0.109  15.937  19.661  0.00  0.00    +0.000 OA
ATOM     27  C   UNL     1      -0.651  16.843  18.716  0.00  0.00    +0.000 C 
ENDBRANCH  20  26
BRANCH  22  28
ATOM     28  O   UNL     1       1.437  11.461  19.355  0.00  0.00    +0.000 OA
ATOM     29  C   UNL     1       1.728  10.506  18.338  0.00  0.00    +0.000 C 
ENDBRANCH  22  28
ENDBRANCH   1  21
TORSDOF 4
ENDMDL
MODEL 4
REMARK VINA RESULT:      -6.3      1.565      1.899
REMARK  Name = 
REMARK  7 active torsions:
REMARK  status: ('A' for Active; 'I' for Inactive)
REMARK    1  A    between atoms: C_1  and  O_2
REMARK    2  A    between atoms: O_2  and  C_3
REMARK    3  A    between atoms: C_5  and  O_6
REMARK    4  A    between atoms: O_6  and  C_7
REMARK    5  A    between atoms: C_8  and  N_9
REMARK    6  A    between atoms: C_26  and  O_27
REMARK    7  A    between atoms: O_27  and  C_28
REMARK                            x       y       z     vdW  Elec       q    Type
REMARK                         _______ _______ _______ _____ _____    ______ ____
ROOT
ATOM      1  N   UNL     1      -2.069  12.775  21.433  0.00  0.00    +0.000 N 
ATOM      2  C   UNL     1      -2.912  12.395  20.368  0.00  0.00    +0.000 A 
ATOM      3  O   UNL     1      -4.100  12.721  20.326  0.00  0.00    +0.000 OA
ATOM      4  C   UNL     1      -2.401  11.599  19.225  0.00  0.00    +0.000 A 
ATOM      5  C   UNL     1      -3.160  11.750  18.035  0.00  0.00    +0.000 A 
ATOM      6  C   UNL     1      -2.888  11.011  16.890  0.00  0.00    +0.000 A 
ATOM      7  C   UNL     1      -1.852  10.097  16.915  0.00  0.00    +0.000 A 
ATOM      8  C   UNL     1      -1.078   9.959  18.073  0.00  0.00    +0.000 A 
ATOM      9  C   UNL     1      -1.306  10.718  19.253  0.00  0.00    +0.000 A 
ATOM     10  C   UNL     1      -0.497  10.427  20.451  0.00  0.00    +0.000 A 
ATOM     11  C   UNL     1       0.823   9.950  20.375  0.00  0.00    +0.000 A 
ATOM     12  C   UNL     1       1.463   9.415  21.498  0.00  0.00    +0.000 A 
ATOM     13  C   UNL     1       0.753   9.219  22.677  0.00  0.00    +0.000 A 
ATOM     14  C   UNL     1      -0.531   9.738  22.787  0.00  0.00    +0.000 A 
ATOM     15  C   UNL     1      -1.030  10.530  21.737  0.00  0.00    +0.000 A 
ATOM     16  C   UNL     1      -1.247  11.935  22.174  0.00  0.00    +0.000 A 
ATOM     17  O   UNL     1      -0.606  12.318  23.156  0.00  0.00    +0.000 OA
ENDROOT
BRANCH   1  21
ATOM     18  C   UNL     1      -2.978  16.082  23.856  0.00  0.00    +0.000 A 
ATOM     19  C   UNL     1      -2.267  16.273  22.669  0.00  0.00    +0.000 A 
ATOM     20  C   UNL     1      -2.039  15.211  21.800  0.00  0.00    +0.000 A 
ATOM     21  C   UNL     1      -2.545  13.936  22.138  0.00  0.00    +0.000 A 
ATOM     22  C   UNL     1      -3.351  13.759  23.282  0.00  0.00    +0.000 A 
ATOM     23  C   UNL     1      -3.555  14.846  24.148  0.00  0.00    +0.000 A 
BRANCH  18  25
ATOM     24  C   UNL     1      -1.994  17.282  25.661  0.00  0.00    +0.000 C 
ATOM     25  O   UNL     1      -3.000  17.186  24.665  0.00  0.00    +0.000 OA
ENDBRANCH  18  25
BRANCH  20  26
ATOM     26  O   UNL     1      -1.298  15.306  20.649  0.00  0.00    +0.000 OA
ATOM     27  C   UNL     1       0.084  15.592  20.774  0.00  0.00    +0.000 C 
ENDBRANCH  20  26
BRANCH  22  28
ATOM     28  O   UNL     1      -3.875  12.502  23.480  0.00  0.00    +0.000 OA
ATOM     29  C   UNL     1      -4.625  12.298  24.674  0.00  0.00    +0.000 C 
ENDBRANCH  22  28
ENDBRANCH   1  21
TORSDOF 4
ENDMDL
MODEL 5
REMARK VINA RESULT:      -6.3      2.239      4.115
REMARK  Name = 
REMARK  7 active torsions:
REMARK  status: ('A' for Active; 'I' for Inactive)
REMARK    1  A    between atoms: C_1  and  O_2
REMARK    2  A    between atoms: O_2  and  C_3
REMARK    3  A    between atoms: C_5  and  O_6
REMARK    4  A    between atoms: O_6  and  C_7
REMARK    5  A    between atoms: C_8  and  N_9
REMARK    6  A    between atoms: C_26  and  O_27
REMARK    7  A    between atoms: O_27  and  C_28
REMARK                            x       y       z     vdW  Elec       q    Type
REMARK                         _______ _______ _______ _____ _____    ______ ____
ROOT
ATOM      1  N   UNL     1      -1.874  12.706  19.771  0.00  0.00    +0.000 N 
ATOM      2  C   UNL     1      -2.866  12.596  20.767  0.00  0.00    +0.000 A 
ATOM      3  O   UNL     1      -2.585  12.544  21.967  0.00  0.00    +0.000 OA
ATOM      4  C   UNL     1      -4.308  12.561  20.421  0.00  0.00    +0.000 A 
ATOM      5  C   UNL     1      -5.162  12.982  21.474  0.00  0.00    +0.000 A 
ATOM      6  C   UNL     1      -6.546  12.925  21.365  0.00  0.00    +0.000 A 
ATOM      7  C   UNL     1      -7.107  12.439  20.199  0.00  0.00    +0.000 A 
ATOM      8  C   UNL     1      -6.276  12.047  19.143  0.00  0.00    +0.000 A 
ATOM      9  C   UNL     1      -4.858  12.118  19.205  0.00  0.00    +0.000 A 
ATOM     10  C   UNL     1      -4.071  11.589  18.075  0.00  0.00    +0.000 A 
ATOM     11  C   UNL     1      -4.544  11.601  16.752  0.00  0.00    +0.000 A 
ATOM     12  C   UNL     1      -3.918  10.848  15.754  0.00  0.00    +0.000 A 
ATOM     13  C   UNL     1      -2.898   9.963  16.086  0.00  0.00    +0.000 A 
ATOM     14  C   UNL     1      -2.380   9.982  17.375  0.00  0.00    +0.000 A 
ATOM     15  C   UNL     1      -2.837  10.965  18.270  0.00  0.00    +0.000 A 
ATOM     16  C   UNL     1      -1.750  11.911  18.639  0.00  0.00    +0.000 A 
ATOM     17  O   UNL     1      -0.802  12.001  17.855  0.00  0.00    +0.000 OA
ENDROOT
BRANCH   1  21
ATOM     18  C   UNL     1       1.943  14.215  20.656  0.00  0.00    +0.000 A 
ATOM     19  C   UNL     1       0.914  15.099  20.326  0.00  0.00    +0.000 A 
ATOM     20  C   UNL     1      -0.382  14.635  20.125  0.00  0.00    +0.000 A 
ATOM     21  C   UNL     1      -0.639  13.253  20.267  0.00  0.00    +0.000 A 
ATOM     22  C   UNL     1       0.373  12.372  20.701  0.00  0.00    +0.000 A 
ATOM     23  C   UNL     1       1.676  12.866  20.885  0.00  0.00    +0.000 A 
BRANCH  18  25
ATOM     24  C   UNL     1       4.123  14.286  21.611  0.00  0.00    +0.000 C 
ATOM     25  O   UNL     1       3.180  14.801  20.685  0.00  0.00    +0.000 OA
ENDBRANCH  18  25
BRANCH  20  26
ATOM     26  O   UNL     1      -1.431  15.431  19.739  0.00  0.00    +0.000 OA
ATOM     27  C   UNL     1      -2.034  16.253  20.724  0.00  0.00    +0.000 C 
ENDBRANCH  20  26
BRANCH  22  28
ATOM     28  O   UNL     1       0.007  11.060  20.900  0.00  0.00    +0.000 OA
ATOM     29  C   UNL     1       0.863  10.062  20.350  0.00  0.00    +0.000 C 
ENDBRANCH  22  28
ENDBRANCH   1  21
TORSDOF 4
ENDMDL
MODEL 6
REMARK VINA RESULT:      -6.2      2.199      6.013
REMARK  Name = 
REMARK  7 active torsions:
REMARK  status: ('A' for Active; 'I' for Inactive)
REMARK    1  A    between atoms: C_1  and  O_2
REMARK    2  A    between atoms: O_2  and  C_3
REMARK    3  A    between atoms: C_5  and  O_6
REMARK    4  A    between atoms: O_6  and  C_7
REMARK    5  A    between atoms: C_8  and  N_9
REMARK    6  A    between atoms: C_26  and  O_27
REMARK    7  A    between atoms: O_27  and  C_28
REMARK                            x       y       z     vdW  Elec       q    Type
REMARK                         _______ _______ _______ _____ _____    ______ ____
ROOT
ATOM      1  N   UNL     1      -1.594  12.706  21.592  0.00  0.00    +0.000 N 
ATOM      2  C   UNL     1      -2.883  12.727  21.019  0.00  0.00    +0.000 A 
ATOM      3  O   UNL     1      -3.065  12.536  19.814  0.00  0.00    +0.000 OA
ATOM      4  C   UNL     1      -4.093  12.957  21.845  0.00  0.00    +0.000 A 
ATOM      5  C   UNL     1      -5.284  12.435  21.277  0.00  0.00    +0.000 A 
ATOM      6  C   UNL     1      -6.529  12.638  21.861  0.00  0.00    +0.000 A 
ATOM      7  C   UNL     1      -6.607  13.376  23.027  0.00  0.00    +0.000 A 
ATOM      8  C   UNL     1      -5.437  13.873  23.612  0.00  0.00    +0.000 A 
ATOM      9  C   UNL     1      -4.144  13.660  23.061  0.00  0.00    +0.000 A 
ATOM     10  C   UNL     1      -2.985  14.309  23.702  0.00  0.00    +0.000 A 
ATOM     11  C   UNL     1      -2.934  14.579  25.080  0.00  0.00    +0.000 A 
ATOM     12  C   UNL     1      -1.968  15.438  25.613  0.00  0.00    +0.000 A 
ATOM     13  C   UNL     1      -1.126  16.150  24.766  0.00  0.00    +0.000 A 
ATOM     14  C   UNL     1      -1.122  15.852  23.409  0.00  0.00    +0.000 A 
ATOM     15  C   UNL     1      -1.899  14.771  22.955  0.00  0.00    +0.000 A 
ATOM     16  C   UNL     1      -1.045  13.677  22.420  0.00  0.00    +0.000 A 
ATOM     17  O   UNL     1       0.125  13.642  22.811  0.00  0.00    +0.000 OA
ENDROOT
BRANCH   1  21
ATOM     18  C   UNL     1       0.707  10.380  18.962  0.00  0.00    +0.000 A 
ATOM     19  C   UNL     1       0.598  11.755  18.748  0.00  0.00    +0.000 A 
ATOM     20  C   UNL     1      -0.075  12.564  19.658  0.00  0.00    +0.000 A 
ATOM     21  C   UNL     1      -0.642  11.967  20.806  0.00  0.00    +0.000 A 
ATOM     22  C   UNL     1      -0.447  10.598  21.080  0.00  0.00    +0.000 A 
ATOM     23  C   UNL     1       0.227   9.803  20.137  0.00  0.00    +0.000 A 
BRANCH  18  25
ATOM     24  C   UNL     1       2.037   8.550  18.221  0.00  0.00    +0.000 C 
ATOM     25  O   UNL     1       1.276   9.706  17.914  0.00  0.00    +0.000 OA
ENDBRANCH  18  25
BRANCH  20  26
ATOM     26  O   UNL     1      -0.277  13.910  19.487  0.00  0.00    +0.000 OA
ATOM     27  C   UNL     1       0.866  14.738  19.357  0.00  0.00    +0.000 C 
ENDBRANCH  20  26
BRANCH  22  28
ATOM     28  O   UNL     1      -0.957  10.125  22.268  0.00  0.00    +0.000 OA
ATOM     29  C   UNL     1      -0.024   9.597  23.205  0.00  0.00    +0.000 C 
ENDBRANCH  22  28
ENDBRANCH   1  21
TORSDOF 4
ENDMDL
MODEL 7
REMARK VINA RESULT:      -6.2      2.132      4.342
REMARK  Name = 
REMARK  7 active torsions:
REMARK  status: ('A' for Active; 'I' for Inactive)
REMARK    1  A    between atoms: C_1  and  O_2
REMARK    2  A    between atoms: O_2  and  C_3
REMARK    3  A    between atoms: C_5  and  O_6
REMARK    4  A    between atoms: O_6  and  C_7
REMARK    5  A    between atoms: C_8  and  N_9
REMARK    6  A    between atoms: C_26  and  O_27
REMARK    7  A    between atoms: O_27  and  C_28
REMARK                            x       y       z     vdW  Elec       q    Type
REMARK                         _______ _______ _______ _____ _____    ______ ____
ROOT
ATOM      1  N   UNL     1      -1.682  12.727  19.629  0.00  0.00    +0.000 N 
ATOM      2  C   UNL     1      -2.616  12.541  20.669  0.00  0.00    +0.000 A 
ATOM      3  O   UNL     1      -2.274  12.474  21.851  0.00  0.00    +0.000 OA
ATOM      4  C   UNL     1      -4.070  12.441  20.392  0.00  0.00    +0.000 A 
ATOM      5  C   UNL     1      -4.891  12.791  21.496  0.00  0.00    +0.000 A 
ATOM      6  C   UNL     1      -6.274  12.666  21.454  0.00  0.00    +0.000 A 
ATOM      7  C   UNL     1      -6.867  12.180  20.304  0.00  0.00    +0.000 A 
ATOM      8  C   UNL     1      -6.071  11.858  19.198  0.00  0.00    +0.000 A 
ATOM      9  C   UNL     1      -4.657  12.000  19.193  0.00  0.00    +0.000 A 
ATOM     10  C   UNL     1      -3.902  11.540  18.012  0.00  0.00    +0.000 A 
ATOM     11  C   UNL     1      -4.441  11.560  16.715  0.00  0.00    +0.000 A 
ATOM     12  C   UNL     1      -3.828  10.865  15.667  0.00  0.00    +0.000 A 
ATOM     13  C   UNL     1      -2.750  10.026  15.925  0.00  0.00    +0.000 A 
ATOM     14  C   UNL     1      -2.169  10.040  17.187  0.00  0.00    +0.000 A 
ATOM     15  C   UNL     1      -2.630  10.976  18.130  0.00  0.00    +0.000 A 
ATOM     16  C   UNL     1      -1.575  11.967  18.471  0.00  0.00    +0.000 A 
ATOM     17  O   UNL     1      -0.673  12.125  17.645  0.00  0.00    +0.000 OA
ENDROOT
BRANCH   1  21
ATOM     18  C   UNL     1       1.657  14.457  21.498  0.00  0.00    +0.000 A 
ATOM     19  C   UNL     1       1.637  13.081  21.262  0.00  0.00    +0.000 A 
ATOM     20  C   UNL     1       0.589  12.497  20.557  0.00  0.00    +0.000 A 
ATOM     21  C   UNL     1      -0.452  13.324  20.079  0.00  0.00    +0.000 A 
ATOM     22  C   UNL     1      -0.386  14.725  20.224  0.00  0.00    +0.000 A 
ATOM     23  C   UNL     1       0.678  15.286  20.951  0.00  0.00    +0.000 A 
BRANCH  18  25
ATOM     24  C   UNL     1       3.995  14.501  21.939  0.00  0.00    +0.000 C 
ATOM     25  O   UNL     1       2.676  14.857  22.319  0.00  0.00    +0.000 OA
ENDBRANCH  18  25
BRANCH  20  26
ATOM     26  O   UNL     1       0.468  11.148  20.339  0.00  0.00    +0.000 OA
ATOM     27  C   UNL     1       0.501  10.291  21.467  0.00  0.00    +0.000 C 
ENDBRANCH  20  26
BRANCH  22  28
ATOM     28  O   UNL     1      -1.399  15.455  19.646  0.00  0.00    +0.000 OA
ATOM     29  C   UNL     1      -1.146  16.838  19.416  0.00  0.00    +0.000 C 
ENDBRANCH  22  28
ENDBRANCH   1  21
TORSDOF 4
ENDMDL
MODEL 8
REMARK VINA RESULT:      -6.1      1.990      3.258
REMARK  Name = 
REMARK  7 active torsions:
REMARK  status: ('A' for Active; 'I' for Inactive)
REMARK    1  A    between atoms: C_1  and  O_2
REMARK    2  A    between atoms: O_2  and  C_3
REMARK    3  A    between atoms: C_5  and  O_6
REMARK    4  A    between atoms: O_6  and  C_7
REMARK    5  A    between atoms: C_8  and  N_9
REMARK    6  A    between atoms: C_26  and  O_27
REMARK    7  A    between atoms: O_27  and  C_28
REMARK                            x       y       z     vdW  Elec       q    Type
REMARK                         _______ _______ _______ _____ _____    ______ ____
ROOT
ATOM      1  N   UNL     1      -1.946  12.946  21.456  0.00  0.00    +0.000 N 
ATOM      2  C   UNL     1      -2.801  12.570  20.399  0.00  0.00    +0.000 A 
ATOM      3  O   UNL     1      -3.969  12.960  20.332  0.00  0.00    +0.000 OA
ATOM      4  C   UNL     1      -2.327  11.700  19.294  0.00  0.00    +0.000 A 
ATOM      5  C   UNL     1      -3.068  11.844  18.092  0.00  0.00    +0.000 A 
ATOM      6  C   UNL     1      -2.830  11.044  16.981  0.00  0.00    +0.000 A 
ATOM      7  C   UNL     1      -1.847  10.075  17.053  0.00  0.00    +0.000 A 
ATOM      8  C   UNL     1      -1.091   9.941  18.223  0.00  0.00    +0.000 A 
ATOM      9  C   UNL     1      -1.284  10.761  19.369  0.00  0.00    +0.000 A 
ATOM     10  C   UNL     1      -0.501  10.474  20.585  0.00  0.00    +0.000 A 
ATOM     11  C   UNL     1       0.789   9.921  20.542  0.00  0.00    +0.000 A 
ATOM     12  C   UNL     1       1.390   9.399  21.692  0.00  0.00    +0.000 A 
ATOM     13  C   UNL     1       0.662   9.292  22.872  0.00  0.00    +0.000 A 
ATOM     14  C   UNL     1      -0.592   9.886  22.948  0.00  0.00    +0.000 A 
ATOM     15  C   UNL     1      -1.037  10.661  21.862  0.00  0.00    +0.000 A 
ATOM     16  C   UNL     1      -1.178  12.092  22.238  0.00  0.00    +0.000 A 
ATOM     17  O   UNL     1      -0.523  12.480  23.210  0.00  0.00    +0.000 OA
ENDROOT
BRANCH   1  21
ATOM     18  C   UNL     1      -3.604  16.504  22.948  0.00  0.00    +0.000 A 
ATOM     19  C   UNL     1      -3.941  15.285  23.541  0.00  0.00    +0.000 A 
ATOM     20  C   UNL     1      -3.332  14.104  23.132  0.00  0.00    +0.000 A 
ATOM     21  C   UNL     1      -2.360  14.160  22.108  0.00  0.00    +0.000 A 
ATOM     22  C   UNL     1      -1.940  15.398  21.578  0.00  0.00    +0.000 A 
ATOM     23  C   UNL     1      -2.582  16.574  22.001  0.00  0.00    +0.000 A 
BRANCH  18  25
ATOM     24  C   UNL     1      -5.403  17.266  24.307  0.00  0.00    +0.000 C 
ATOM     25  O   UNL     1      -4.385  17.549  23.361  0.00  0.00    +0.000 OA
ENDBRANCH  18  25
BRANCH  20  26
ATOM     26  O   UNL     1      -3.654  12.864  23.622  0.00  0.00    +0.000 OA
ATOM     27  C   UNL     1      -4.945  12.689  24.180  0.00  0.00    +0.000 C 
ENDBRANCH  20  26
BRANCH  22  28
ATOM     28  O   UNL     1      -0.924  15.361  20.651  0.00  0.00    +0.000 OA
ATOM     29  C   UNL     1      -0.070  16.499  20.586  0.00  0.00    +0.000 C 
ENDBRANCH  22  28
ENDBRANCH   1  21
TORSDOF 4
ENDMDL
MODEL 9
REMARK VINA RESULT:      -6.1      4.018      5.615
REMARK  Name = 
REMARK  7 active torsions:
REMARK  status: ('A' for Active; 'I' for Inactive)
REMARK    1  A    between atoms: C_1  and  O_2
REMARK    2  A    between atoms: O_2  and  C_3
REMARK    3  A    between atoms: C_5  and  O_6
REMARK    4  A    between atoms: O_6  and  C_7
REMARK    5  A    between atoms: C_8  and  N_9
REMARK    6  A    between atoms: C_26  and  O_27
REMARK    7  A    between atoms: O_27  and  C_28
REMARK                            x       y       z     vdW  Elec       q    Type
REMARK                         _______ _______ _______ _____ _____    ______ ____
ROOT
ATOM      1  N   UNL     1      -5.706  14.268  20.978  0.00  0.00    +0.000 N 
ATOM      2  C   UNL     1      -6.357  15.205  20.149  0.00  0.00    +0.000 A 
ATOM      3  O   UNL     1      -6.673  16.326  20.552  0.00  0.00    +0.000 OA
ATOM      4  C   UNL     1      -6.675  14.895  18.733  0.00  0.00    +0.000 A 
ATOM      5  C   UNL     1      -6.817  16.043  17.911  0.00  0.00    +0.000 A 
ATOM      6  C   UNL     1      -7.207  15.952  16.581  0.00  0.00    +0.000 A 
ATOM      7  C   UNL     1      -7.470  14.706  16.045  0.00  0.00    +0.000 A 
ATOM      8  C   UNL     1      -7.307  13.564  16.837  0.00  0.00    +0.000 A 
ATOM      9  C   UNL     1      -6.881  13.614  18.192  0.00  0.00    +0.000 A 
ATOM     10  C   UNL     1      -6.835  12.360  18.968  0.00  0.00    +0.000 A 
ATOM     11  C   UNL     1      -6.571  11.114  18.377  0.00  0.00    +0.000 A 
ATOM     12  C   UNL     1      -6.812   9.921  19.067  0.00  0.00    +0.000 A 
ATOM     13  C   UNL     1      -7.449   9.948  20.303  0.00  0.00    +0.000 A 
ATOM     14  C   UNL     1      -7.662  11.171  20.926  0.00  0.00    +0.000 A 
ATOM     15  C   UNL     1      -7.136  12.332  20.331  0.00  0.00    +0.000 A 
ATOM     16  C   UNL     1      -6.081  12.946  21.181  0.00  0.00    +0.000 A 
ATOM     17  O   UNL     1      -5.520  12.206  21.994  0.00  0.00    +0.000 OA
ENDROOT
BRANCH   1  21
ATOM     18  C   UNL     1      -3.585  15.487  24.391  0.00  0.00    +0.000 A 
ATOM     19  C   UNL     1      -2.921  15.391  23.166  0.00  0.00    +0.000 A 
ATOM     20  C   UNL     1      -3.619  15.085  22.002  0.00  0.00    +0.000 A 
ATOM     21  C   UNL     1      -5.015  14.880  22.082  0.00  0.00    +0.000 A 
ATOM     22  C   UNL     1      -5.706  15.078  23.295  0.00  0.00    +0.000 A 
ATOM     23  C   UNL     1      -4.974  15.374  24.457  0.00  0.00    +0.000 A 
BRANCH  18  25
ATOM     24  C   UNL     1      -1.833  16.741  25.402  0.00  0.00    +0.000 C 
ATOM     25  O   UNL     1      -2.745  15.656  25.458  0.00  0.00    +0.000 OA
ENDBRANCH  18  25
BRANCH  20  26
ATOM     26  O   UNL     1      -3.029  14.913  20.776  0.00  0.00    +0.000 OA
ATOM     27  C   UNL     1      -2.076  13.874  20.641  0.00  0.00    +0.000 C 
ENDBRANCH  20  26
BRANCH  22  28
ATOM     28  O   UNL     1      -7.076  14.945  23.255  0.00  0.00    +0.000 OA
ATOM     29  C   UNL     1      -7.668  14.090  24.228  0.00  0.00    +0.000 C 
ENDBRANCH  22  28
ENDBRANCH   1  21
TORSDOF 4
ENDMDL
