MODEL 1
REMARK VINA RESULT:      -8.1      0.000      0.000
REMARK  Name = 
REMARK  7 active torsions:
REMARK  status: ('A' for Active; 'I' for Inactive)
REMARK    1  A    between atoms: N_3  and  N_4
REMARK    2  A    between atoms: N_4  and  C_5
REMARK    3  A    between atoms: N_11  and  CA_12
REMARK    4  A    between atoms: CA_12  and  CB_13
REMARK    5  A    between atoms: CA_12  and  C_20
REMARK    6  A    between atoms: CB_13  and  CG_14
REMARK    7  A    between atoms: C_20  and  OXT_22
REMARK                            x       y       z     vdW  Elec       q    Type
REMARK                         _______ _______ _______ _____ _____    ______ ____
ROOT
ATOM      1  O   UNK A   0       8.354   7.092  18.879  0.00  0.00    +0.000 OA
ATOM      2  C   UNK A   0       7.863   7.824  18.031  0.00  0.00    +0.000 C 
ATOM      3  N   UNK A   0       8.168   9.178  17.865  0.00  0.00    +0.000 N 
ATOM      4  N   PHE A   1       6.916   7.406  17.123  0.00  0.00    +0.000 N 
ATOM      5  H   UNK A   0       8.233   9.510  16.908  0.00  0.00    +0.000 HD
ATOM      6  H   PHE A   1       6.479   8.105  16.529  0.00  0.00    +0.000 HD
ENDROOT
BRANCH   3   7
ATOM      7  N   UNK A   0       9.126   9.755  18.749  0.00  0.00    +0.000 N 
ATOM      8  H   UNK A   0       9.826   9.084  19.065  0.00  0.00    +0.000 HD
BRANCH   7   9
ATOM      9  C   UNK A   0       9.647  11.016  18.355  0.00  0.00    +0.000 A 
ATOM     10  C   UNK A   0      11.024  11.250  18.213  0.00  0.00    +0.000 A 
ATOM     11  C   UNK A   0      11.510  12.476  17.731  0.00  0.00    +0.000 A 
ATOM     12  C   UNK A   0      10.624  13.483  17.360  0.00  0.00    +0.000 A 
ATOM     13  C   UNK A   0       9.256  13.264  17.459  0.00  0.00    +0.000 A 
ATOM     14  C   UNK A   0       8.770  12.036  17.939  0.00  0.00    +0.000 A 
ENDBRANCH   7   9
ENDBRANCH   3   7
BRANCH   4  15
ATOM     15  CA  PHE A   1       6.347   6.046  17.029  0.00  0.00    +0.000 C 
BRANCH  15  16
ATOM     16  C   PHE A   1       7.345   5.160  16.263  0.00  0.00    +0.000 C 
ATOM     17  O   PHE A   1       7.973   4.247  16.787  0.00  0.00    +0.000 OA
BRANCH  16  18
ATOM     18  OXT PHE A   1       7.470   5.427  14.940  0.00  0.00    +0.000 OA
ATOM     19  HXT PHE A   1       8.214   4.996  14.478  0.00  0.00    +0.000 HD
ENDBRANCH  16  18
ENDBRANCH  15  16
BRANCH  15  20
ATOM     20  CB  PHE A   1       4.952   5.957  16.391  0.00  0.00    +0.000 C 
BRANCH  20  21
ATOM     21  CG  PHE A   1       3.945   5.100  17.119  0.00  0.00    +0.000 A 
ATOM     22  CD1 PHE A   1       2.945   5.664  17.930  0.00  0.00    +0.000 A 
ATOM     23  CE1 PHE A   1       1.951   4.857  18.486  0.00  0.00    +0.000 A 
ATOM     24  CZ  PHE A   1       1.953   3.485  18.247  0.00  0.00    +0.000 A 
ATOM     25  CE2 PHE A   1       2.976   2.911  17.494  0.00  0.00    +0.000 A 
ATOM     26  CD2 PHE A   1       3.972   3.714  16.941  0.00  0.00    +0.000 A 
ENDBRANCH  20  21
ENDBRANCH  15  20
ENDBRANCH   4  15
TORSDOF 7
ENDMDL
MODEL 2
REMARK VINA RESULT:      -8.0      0.193      1.463
REMARK  Name = 
REMARK  7 active torsions:
REMARK  status: ('A' for Active; 'I' for Inactive)
REMARK    1  A    between atoms: N_3  and  N_4
REMARK    2  A    between atoms: N_4  and  C_5
REMARK    3  A    between atoms: N_11  and  CA_12
REMARK    4  A    between atoms: CA_12  and  CB_13
REMARK    5  A    between atoms: CA_12  and  C_20
REMARK    6  A    between atoms: CB_13  and  CG_14
REMARK    7  A    between atoms: C_20  and  OXT_22
REMARK                            x       y       z     vdW  Elec       q    Type
REMARK                         _______ _______ _______ _____ _____    ______ ____
ROOT
ATOM      1  O   UNK A   0       8.335   7.162  18.809  0.00  0.00    +0.000 OA
ATOM      2  C   UNK A   0       7.812   7.861  17.954  0.00  0.00    +0.000 C 
ATOM      3  N   UNK A   0       8.079   9.219  17.753  0.00  0.00    +0.000 N 
ATOM      4  N   PHE A   1       6.861   7.399  17.071  0.00  0.00    +0.000 N 
ATOM      5  H   UNK A   0       8.119   9.530  16.788  0.00  0.00    +0.000 HD
ATOM      6  H   PHE A   1       6.397   8.073  16.470  0.00  0.00    +0.000 HD
ENDROOT
BRANCH   3   7
ATOM      7  N   UNK A   0       9.036   9.840  18.607  0.00  0.00    +0.000 N 
ATOM      8  H   UNK A   0       9.736   9.186  18.957  0.00  0.00    +0.000 HD
BRANCH   7   9
ATOM      9  C   UNK A   0       9.557  11.080  18.151  0.00  0.00    +0.000 A 
ATOM     10  C   UNK A   0       8.747  12.208  17.947  0.00  0.00    +0.000 A 
ATOM     11  C   UNK A   0       9.299  13.448  17.589  0.00  0.00    +0.000 A 
ATOM     12  C   UNK A   0      10.677  13.587  17.450  0.00  0.00    +0.000 A 
ATOM     13  C   UNK A   0      11.503  12.494  17.679  0.00  0.00    +0.000 A 
ATOM     14  C   UNK A   0      10.950  11.254  18.041  0.00  0.00    +0.000 A 
ENDBRANCH   7   9
ENDBRANCH   3   7
BRANCH   4  15
ATOM     15  CA  PHE A   1       6.326   6.023  17.018  0.00  0.00    +0.000 C 
BRANCH  15  16
ATOM     16  C   PHE A   1       7.358   5.135  16.301  0.00  0.00    +0.000 C 
ATOM     17  O   PHE A   1       7.988   4.247  16.865  0.00  0.00    +0.000 OA
BRANCH  16  18
ATOM     18  OXT PHE A   1       7.512   5.369  14.974  0.00  0.00    +0.000 OA
ATOM     19  HXT PHE A   1       7.470   6.302  14.690  0.00  0.00    +0.000 HD
ENDBRANCH  16  18
ENDBRANCH  15  16
BRANCH  15  20
ATOM     20  CB  PHE A   1       4.945   5.878  16.360  0.00  0.00    +0.000 C 
BRANCH  20  21
ATOM     21  CG  PHE A   1       3.954   5.003  17.089  0.00  0.00    +0.000 A 
ATOM     22  CD1 PHE A   1       4.018   3.601  17.022  0.00  0.00    +0.000 A 
ATOM     23  CE1 PHE A   1       3.170   2.819  17.807  0.00  0.00    +0.000 A 
ATOM     24  CZ  PHE A   1       2.248   3.427  18.656  0.00  0.00    +0.000 A 
ATOM     25  CE2 PHE A   1       2.139   4.816  18.683  0.00  0.00    +0.000 A 
ATOM     26  CD2 PHE A   1       2.982   5.599  17.897  0.00  0.00    +0.000 A 
ENDBRANCH  20  21
ENDBRANCH  15  20
ENDBRANCH   4  15
TORSDOF 7
ENDMDL
MODEL 3
REMARK VINA RESULT:      -7.9      1.132      1.412
REMARK  Name = 
REMARK  7 active torsions:
REMARK  status: ('A' for Active; 'I' for Inactive)
REMARK    1  A    between atoms: N_3  and  N_4
REMARK    2  A    between atoms: N_4  and  C_5
REMARK    3  A    between atoms: N_11  and  CA_12
REMARK    4  A    between atoms: CA_12  and  CB_13
REMARK    5  A    between atoms: CA_12  and  C_20
REMARK    6  A    between atoms: CB_13  and  CG_14
REMARK    7  A    between atoms: C_20  and  OXT_22
REMARK                            x       y       z     vdW  Elec       q    Type
REMARK                         _______ _______ _______ _____ _____    ______ ____
ROOT
ATOM      1  O   UNK A   0       7.844   6.205  18.824  0.00  0.00    +0.000 OA
ATOM      2  C   UNK A   0       7.674   7.030  17.938  0.00  0.00    +0.000 C 
ATOM      3  N   UNK A   0       8.150   8.344  17.962  0.00  0.00    +0.000 N 
ATOM      4  N   PHE A   1       6.964   6.772  16.786  0.00  0.00    +0.000 N 
ATOM      5  H   UNK A   0       8.501   8.711  17.083  0.00  0.00    +0.000 HD
ATOM      6  H   PHE A   1       6.775   7.547  16.157  0.00  0.00    +0.000 HD
ENDROOT
BRANCH   3   7
ATOM      7  N   UNK A   0       8.894   8.759  19.105  0.00  0.00    +0.000 N 
ATOM      8  H   UNK A   0       9.673   8.134  19.317  0.00  0.00    +0.000 HD
BRANCH   7   9
ATOM      9  C   UNK A   0       9.209  10.142  19.168  0.00  0.00    +0.000 A 
ATOM     10  C   UNK A   0       9.519  10.789  20.375  0.00  0.00    +0.000 A 
ATOM     11  C   UNK A   0       9.919  12.134  20.399  0.00  0.00    +0.000 A 
ATOM     12  C   UNK A   0      10.039  12.851  19.212  0.00  0.00    +0.000 A 
ATOM     13  C   UNK A   0       9.772  12.224  18.002  0.00  0.00    +0.000 A 
ATOM     14  C   UNK A   0       9.374  10.877  17.978  0.00  0.00    +0.000 A 
ENDBRANCH   7   9
ENDBRANCH   3   7
BRANCH   4  15
ATOM     15  CA  PHE A   1       6.302   5.497  16.444  0.00  0.00    +0.000 C 
BRANCH  15  16
ATOM     16  C   PHE A   1       6.993   4.918  15.197  0.00  0.00    +0.000 C 
ATOM     17  O   PHE A   1       7.897   5.495  14.601  0.00  0.00    +0.000 OA
BRANCH  16  18
ATOM     18  OXT PHE A   1       6.565   3.694  14.804  0.00  0.00    +0.000 OA
ATOM     19  HXT PHE A   1       5.851   3.292  15.336  0.00  0.00    +0.000 HD
ENDBRANCH  16  18
ENDBRANCH  15  16
BRANCH  15  20
ATOM     20  CB  PHE A   1       4.784   5.580  16.225  0.00  0.00    +0.000 C 
BRANCH  20  21
ATOM     21  CG  PHE A   1       3.933   4.771  17.174  0.00  0.00    +0.000 A 
ATOM     22  CD1 PHE A   1       2.946   5.371  17.975  0.00  0.00    +0.000 A 
ATOM     23  CE1 PHE A   1       2.090   4.583  18.746  0.00  0.00    +0.000 A 
ATOM     24  CZ  PHE A   1       2.218   3.197  18.732  0.00  0.00    +0.000 A 
ATOM     25  CE2 PHE A   1       3.233   2.599  17.987  0.00  0.00    +0.000 A 
ATOM     26  CD2 PHE A   1       4.092   3.383  17.220  0.00  0.00    +0.000 A 
ENDBRANCH  20  21
ENDBRANCH  15  20
ENDBRANCH   4  15
TORSDOF 7
ENDMDL
MODEL 4
REMARK VINA RESULT:      -7.9      1.391      1.818
REMARK  Name = 
REMARK  7 active torsions:
REMARK  status: ('A' for Active; 'I' for Inactive)
REMARK    1  A    between atoms: N_3  and  N_4
REMARK    2  A    between atoms: N_4  and  C_5
REMARK    3  A    between atoms: N_11  and  CA_12
REMARK    4  A    between atoms: CA_12  and  CB_13
REMARK    5  A    between atoms: CA_12  and  C_20
REMARK    6  A    between atoms: CB_13  and  CG_14
REMARK    7  A    between atoms: C_20  and  OXT_22
REMARK                            x       y       z     vdW  Elec       q    Type
REMARK                         _______ _______ _______ _____ _____    ______ ____
ROOT
ATOM      1  O   UNK A   0       7.650   6.234  18.920  0.00  0.00    +0.000 OA
ATOM      2  C   UNK A   0       7.623   6.976  17.949  0.00  0.00    +0.000 C 
ATOM      3  N   UNK A   0       8.188   8.253  17.898  0.00  0.00    +0.000 N 
ATOM      4  N   PHE A   1       7.004   6.651  16.761  0.00  0.00    +0.000 N 
ATOM      5  H   UNK A   0       8.644   8.508  17.027  0.00  0.00    +0.000 HD
ATOM      6  H   PHE A   1       6.931   7.369  16.047  0.00  0.00    +0.000 HD
ENDROOT
BRANCH   3   7
ATOM      7  N   UNK A   0       8.852   8.732  19.065  0.00  0.00    +0.000 N 
ATOM      8  H   UNK A   0       9.651   8.155  19.329  0.00  0.00    +0.000 HD
BRANCH   7   9
ATOM      9  C   UNK A   0       9.090  10.131  19.110  0.00  0.00    +0.000 A 
ATOM     10  C   UNK A   0       9.560  10.778  20.263  0.00  0.00    +0.000 A 
ATOM     11  C   UNK A   0       9.878  12.145  20.254  0.00  0.00    +0.000 A 
ATOM     12  C   UNK A   0       9.753  12.886  19.083  0.00  0.00    +0.000 A 
ATOM     13  C   UNK A   0       9.323  12.261  17.919  0.00  0.00    +0.000 A 
ATOM     14  C   UNK A   0       9.007  10.892  17.928  0.00  0.00    +0.000 A 
ENDBRANCH   7   9
ENDBRANCH   3   7
BRANCH   4  15
ATOM     15  CA  PHE A   1       6.287   5.392  16.476  0.00  0.00    +0.000 C 
BRANCH  15  16
ATOM     16  C   PHE A   1       6.567   5.002  15.014  0.00  0.00    +0.000 C 
ATOM     17  O   PHE A   1       5.769   4.383  14.319  0.00  0.00    +0.000 OA
BRANCH  16  18
ATOM     18  OXT PHE A   1       7.755   5.420  14.513  0.00  0.00    +0.000 OA
ATOM     19  HXT PHE A   1       7.766   5.664  13.568  0.00  0.00    +0.000 HD
ENDBRANCH  16  18
ENDBRANCH  15  16
BRANCH  15  20
ATOM     20  CB  PHE A   1       4.774   5.420  16.742  0.00  0.00    +0.000 C 
BRANCH  20  21
ATOM     21  CG  PHE A   1       4.226   4.280  17.566  0.00  0.00    +0.000 A 
ATOM     22  CD1 PHE A   1       3.179   3.468  17.098  0.00  0.00    +0.000 A 
ATOM     23  CE1 PHE A   1       2.782   2.345  17.825  0.00  0.00    +0.000 A 
ATOM     24  CZ  PHE A   1       3.416   2.030  19.024  0.00  0.00    +0.000 A 
ATOM     25  CE2 PHE A   1       4.414   2.864  19.523  0.00  0.00    +0.000 A 
ATOM     26  CD2 PHE A   1       4.810   3.989  18.802  0.00  0.00    +0.000 A 
ENDBRANCH  20  21
ENDBRANCH  15  20
ENDBRANCH   4  15
TORSDOF 7
ENDMDL
MODEL 5
REMARK VINA RESULT:      -7.9      4.924      7.807
REMARK  Name = 
REMARK  7 active torsions:
REMARK  status: ('A' for Active; 'I' for Inactive)
REMARK    1  A    between atoms: N_3  and  N_4
REMARK    2  A    between atoms: N_4  and  C_5
REMARK    3  A    between atoms: N_11  and  CA_12
REMARK    4  A    between atoms: CA_12  and  CB_13
REMARK    5  A    between atoms: CA_12  and  C_20
REMARK    6  A    between atoms: CB_13  and  CG_14
REMARK    7  A    between atoms: C_20  and  OXT_22
REMARK                            x       y       z     vdW  Elec       q    Type
REMARK                         _______ _______ _______ _____ _____    ______ ____
ROOT
ATOM      1  O   UNK A   0       3.013   3.686  16.668  0.00  0.00    +0.000 OA
ATOM      2  C   UNK A   0       4.089   3.156  16.898  0.00  0.00    +0.000 C 
ATOM      3  N   UNK A   0       4.264   1.980  17.635  0.00  0.00    +0.000 N 
ATOM      4  N   PHE A   1       5.295   3.665  16.467  0.00  0.00    +0.000 N 
ATOM      5  H   UNK A   0       4.969   1.336  17.291  0.00  0.00    +0.000 HD
ATOM      6  H   PHE A   1       6.147   3.223  16.799  0.00  0.00    +0.000 HD
ENDROOT
BRANCH   3   7
ATOM      7  N   UNK A   0       3.100   1.347  18.158  0.00  0.00    +0.000 N 
ATOM      8  H   UNK A   0       3.208   0.336  18.250  0.00  0.00    +0.000 HD
BRANCH   7   9
ATOM      9  C   UNK A   0       2.501   1.984  19.277  0.00  0.00    +0.000 A 
ATOM     10  C   UNK A   0       3.209   2.250  20.460  0.00  0.00    +0.000 A 
ATOM     11  C   UNK A   0       2.623   2.966  21.515  0.00  0.00    +0.000 A 
ATOM     12  C   UNK A   0       1.323   3.451  21.397  0.00  0.00    +0.000 A 
ATOM     13  C   UNK A   0       0.614   3.231  20.223  0.00  0.00    +0.000 A 
ATOM     14  C   UNK A   0       1.202   2.516  19.166  0.00  0.00    +0.000 A 
ENDBRANCH   7   9
ENDBRANCH   3   7
BRANCH   4  15
ATOM     15  CA  PHE A   1       5.482   4.904  15.686  0.00  0.00    +0.000 C 
BRANCH  15  16
ATOM     16  C   PHE A   1       6.674   4.695  14.735  0.00  0.00    +0.000 C 
ATOM     17  O   PHE A   1       7.656   5.430  14.718  0.00  0.00    +0.000 OA
BRANCH  16  18
ATOM     18  OXT PHE A   1       6.595   3.612  13.924  0.00  0.00    +0.000 OA
ATOM     19  HXT PHE A   1       6.809   2.750  14.329  0.00  0.00    +0.000 HD
ENDBRANCH  16  18
ENDBRANCH  15  16
BRANCH  15  20
ATOM     20  CB  PHE A   1       5.675   6.183  16.514  0.00  0.00    +0.000 C 
BRANCH  20  21
ATOM     21  CG  PHE A   1       4.611   6.470  17.545  0.00  0.00    +0.000 A 
ATOM     22  CD1 PHE A   1       3.557   7.364  17.289  0.00  0.00    +0.000 A 
ATOM     23  CE1 PHE A   1       2.519   7.511  18.211  0.00  0.00    +0.000 A 
ATOM     24  CZ  PHE A   1       2.529   6.778  19.395  0.00  0.00    +0.000 A 
ATOM     25  CE2 PHE A   1       3.601   5.935  19.682  0.00  0.00    +0.000 A 
ATOM     26  CD2 PHE A   1       4.641   5.789  18.766  0.00  0.00    +0.000 A 
ENDBRANCH  20  21
ENDBRANCH  15  20
ENDBRANCH   4  15
TORSDOF 7
ENDMDL
MODEL 6
REMARK VINA RESULT:      -7.8      1.308      1.808
REMARK  Name = 
REMARK  7 active torsions:
REMARK  status: ('A' for Active; 'I' for Inactive)
REMARK    1  A    between atoms: N_3  and  N_4
REMARK    2  A    between atoms: N_4  and  C_5
REMARK    3  A    between atoms: N_11  and  CA_12
REMARK    4  A    between atoms: CA_12  and  CB_13
REMARK    5  A    between atoms: CA_12  and  C_20
REMARK    6  A    between atoms: CB_13  and  CG_14
REMARK    7  A    between atoms: C_20  and  OXT_22
REMARK                            x       y       z     vdW  Elec       q    Type
REMARK                         _______ _______ _______ _____ _____    ______ ____
ROOT
ATOM      1  O   UNK A   0       7.702   6.198  18.856  0.00  0.00    +0.000 OA
ATOM      2  C   UNK A   0       7.668   6.960  17.901  0.00  0.00    +0.000 C 
ATOM      3  N   UNK A   0       8.196   8.255  17.888  0.00  0.00    +0.000 N 
ATOM      4  N   PHE A   1       7.080   6.644  16.696  0.00  0.00    +0.000 N 
ATOM      5  H   UNK A   0       8.657   8.543  17.031  0.00  0.00    +0.000 HD
ATOM      6  H   PHE A   1       6.996   7.376  15.997  0.00  0.00    +0.000 HD
ENDROOT
BRANCH   3   7
ATOM      7  N   UNK A   0       8.825   8.726  19.077  0.00  0.00    +0.000 N 
ATOM      8  H   UNK A   0       9.584   8.120  19.389  0.00  0.00    +0.000 HD
BRANCH   7   9
ATOM      9  C   UNK A   0       9.124  10.115  19.109  0.00  0.00    +0.000 A 
ATOM     10  C   UNK A   0       9.719  10.731  20.220  0.00  0.00    +0.000 A 
ATOM     11  C   UNK A   0      10.092  12.084  20.191  0.00  0.00    +0.000 A 
ATOM     12  C   UNK A   0       9.897  12.840  19.039  0.00  0.00    +0.000 A 
ATOM     13  C   UNK A   0       9.342  12.244  17.914  0.00  0.00    +0.000 A 
ATOM     14  C   UNK A   0       8.971  10.889  17.942  0.00  0.00    +0.000 A 
ENDBRANCH   7   9
ENDBRANCH   3   7
BRANCH   4  15
ATOM     15  CA  PHE A   1       6.405   5.372  16.370  0.00  0.00    +0.000 C 
BRANCH  15  16
ATOM     16  C   PHE A   1       6.961   4.865  15.028  0.00  0.00    +0.000 C 
ATOM     17  O   PHE A   1       7.817   5.464  14.386  0.00  0.00    +0.000 OA
BRANCH  16  18
ATOM     18  OXT PHE A   1       6.468   3.678  14.599  0.00  0.00    +0.000 OA
ATOM     19  HXT PHE A   1       5.614   3.707  14.127  0.00  0.00    +0.000 HD
ENDBRANCH  16  18
ENDBRANCH  15  16
BRANCH  15  20
ATOM     20  CB  PHE A   1       4.871   5.431  16.326  0.00  0.00    +0.000 C 
BRANCH  20  21
ATOM     21  CG  PHE A   1       4.150   4.747  17.462  0.00  0.00    +0.000 A 
ATOM     22  CD1 PHE A   1       3.753   3.401  17.381  0.00  0.00    +0.000 A 
ATOM     23  CE1 PHE A   1       3.204   2.760  18.493  0.00  0.00    +0.000 A 
ATOM     24  CZ  PHE A   1       3.039   3.457  19.688  0.00  0.00    +0.000 A 
ATOM     25  CE2 PHE A   1       3.376   4.808  19.757  0.00  0.00    +0.000 A 
ATOM     26  CD2 PHE A   1       3.919   5.451  18.647  0.00  0.00    +0.000 A 
ENDBRANCH  20  21
ENDBRANCH  15  20
ENDBRANCH   4  15
TORSDOF 7
ENDMDL
MODEL 7
REMARK VINA RESULT:      -7.7      1.420      2.037
REMARK  Name = 
REMARK  7 active torsions:
REMARK  status: ('A' for Active; 'I' for Inactive)
REMARK    1  A    between atoms: N_3  and  N_4
REMARK    2  A    between atoms: N_4  and  C_5
REMARK    3  A    between atoms: N_11  and  CA_12
REMARK    4  A    between atoms: CA_12  and  CB_13
REMARK    5  A    between atoms: CA_12  and  C_20
REMARK    6  A    between atoms: CB_13  and  CG_14
REMARK    7  A    between atoms: C_20  and  OXT_22
REMARK                            x       y       z     vdW  Elec       q    Type
REMARK                         _______ _______ _______ _____ _____    ______ ____
ROOT
ATOM      1  O   UNK A   0       7.410   6.300  18.750  0.00  0.00    +0.000 OA
ATOM      2  C   UNK A   0       7.630   6.975  17.755  0.00  0.00    +0.000 C 
ATOM      3  N   UNK A   0       8.270   8.218  17.752  0.00  0.00    +0.000 N 
ATOM      4  N   PHE A   1       7.256   6.599  16.483  0.00  0.00    +0.000 N 
ATOM      5  H   UNK A   0       8.912   8.392  16.985  0.00  0.00    +0.000 HD
ATOM      6  H   PHE A   1       7.377   7.269  15.730  0.00  0.00    +0.000 HD
ENDROOT
BRANCH   3   7
ATOM      7  N   UNK A   0       8.702   8.743  19.005  0.00  0.00    +0.000 N 
ATOM      8  H   UNK A   0       9.337   8.115  19.498  0.00  0.00    +0.000 HD
BRANCH   7   9
ATOM      9  C   UNK A   0       9.101  10.106  18.998  0.00  0.00    +0.000 A 
ATOM     10  C   UNK A   0       8.886  10.948  17.896  0.00  0.00    +0.000 A 
ATOM     11  C   UNK A   0       9.203  12.315  17.949  0.00  0.00    +0.000 A 
ATOM     12  C   UNK A   0       9.720  12.869  19.116  0.00  0.00    +0.000 A 
ATOM     13  C   UNK A   0       9.910  12.064  20.232  0.00  0.00    +0.000 A 
ATOM     14  C   UNK A   0       9.590  10.697  20.179  0.00  0.00    +0.000 A 
ENDBRANCH   7   9
ENDBRANCH   3   7
BRANCH   4  15
ATOM     15  CA  PHE A   1       6.540   5.358  16.123  0.00  0.00    +0.000 C 
BRANCH  15  16
ATOM     16  C   PHE A   1       7.071   4.877  14.762  0.00  0.00    +0.000 C 
ATOM     17  O   PHE A   1       7.934   5.474  14.128  0.00  0.00    +0.000 OA
BRANCH  16  18
ATOM     18  OXT PHE A   1       6.547   3.713  14.306  0.00  0.00    +0.000 OA
ATOM     19  HXT PHE A   1       7.184   3.007  14.085  0.00  0.00    +0.000 HD
ENDBRANCH  16  18
ENDBRANCH  15  16
BRANCH  15  20
ATOM     20  CB  PHE A   1       5.008   5.466  16.093  0.00  0.00    +0.000 C 
BRANCH  20  21
ATOM     21  CG  PHE A   1       4.295   5.128  17.380  0.00  0.00    +0.000 A 
ATOM     22  CD1 PHE A   1       4.133   3.799  17.806  0.00  0.00    +0.000 A 
ATOM     23  CE1 PHE A   1       3.585   3.524  19.060  0.00  0.00    +0.000 A 
ATOM     24  CZ  PHE A   1       3.187   4.568  19.891  0.00  0.00    +0.000 A 
ATOM     25  CE2 PHE A   1       3.290   5.886  19.450  0.00  0.00    +0.000 A 
ATOM     26  CD2 PHE A   1       3.833   6.163  18.196  0.00  0.00    +0.000 A 
ENDBRANCH  20  21
ENDBRANCH  15  20
ENDBRANCH   4  15
TORSDOF 7
ENDMDL
MODEL 8
REMARK VINA RESULT:      -7.7      1.071      1.530
REMARK  Name = 
REMARK  7 active torsions:
REMARK  status: ('A' for Active; 'I' for Inactive)
REMARK    1  A    between atoms: N_3  and  N_4
REMARK    2  A    between atoms: N_4  and  C_5
REMARK    3  A    between atoms: N_11  and  CA_12
REMARK    4  A    between atoms: CA_12  and  CB_13
REMARK    5  A    between atoms: CA_12  and  C_20
REMARK    6  A    between atoms: CB_13  and  CG_14
REMARK    7  A    between atoms: C_20  and  OXT_22
REMARK                            x       y       z     vdW  Elec       q    Type
REMARK                         _______ _______ _______ _____ _____    ______ ____
ROOT
ATOM      1  O   UNK A   0       8.254   6.724  18.905  0.00  0.00    +0.000 OA
ATOM      2  C   UNK A   0       7.839   7.566  18.123  0.00  0.00    +0.000 C 
ATOM      3  N   UNK A   0       8.251   8.902  18.087  0.00  0.00    +0.000 N 
ATOM      4  N   PHE A   1       6.880   7.309  17.168  0.00  0.00    +0.000 N 
ATOM      5  H   UNK A   0       8.360   9.313  17.166  0.00  0.00    +0.000 HD
ATOM      6  H   PHE A   1       6.511   8.092  16.636  0.00  0.00    +0.000 HD
ENDROOT
BRANCH   3   7
ATOM      7  N   UNK A   0       9.233   9.318  19.032  0.00  0.00    +0.000 N 
ATOM      8  H   UNK A   0      10.101   8.786  18.960  0.00  0.00    +0.000 HD
BRANCH   7   9
ATOM      9  C   UNK A   0       9.406  10.721  19.165  0.00  0.00    +0.000 A 
ATOM     10  C   UNK A   0       9.273  11.602  18.081  0.00  0.00    +0.000 A 
ATOM     11  C   UNK A   0       9.354  12.992  18.256  0.00  0.00    +0.000 A 
ATOM     12  C   UNK A   0       9.548  13.528  19.526  0.00  0.00    +0.000 A 
ATOM     13  C   UNK A   0       9.648  12.679  20.620  0.00  0.00    +0.000 A 
ATOM     14  C   UNK A   0       9.564  11.288  20.445  0.00  0.00    +0.000 A 
ENDBRANCH   7   9
ENDBRANCH   3   7
BRANCH   4  15
ATOM     15  CA  PHE A   1       6.209   6.013  16.942  0.00  0.00    +0.000 C 
BRANCH  15  16
ATOM     16  C   PHE A   1       7.000   5.245  15.868  0.00  0.00    +0.000 C 
ATOM     17  O   PHE A   1       6.859   5.435  14.665  0.00  0.00    +0.000 OA
BRANCH  16  18
ATOM     18  OXT PHE A   1       7.906   4.351  16.335  0.00  0.00    +0.000 OA
ATOM     19  HXT PHE A   1       7.886   4.173  17.294  0.00  0.00    +0.000 HD
ENDBRANCH  16  18
ENDBRANCH  15  16
BRANCH  15  20
ATOM     20  CB  PHE A   1       4.724   6.097  16.555  0.00  0.00    +0.000 C 
BRANCH  20  21
ATOM     21  CG  PHE A   1       3.752   5.473  17.526  0.00  0.00    +0.000 A 
ATOM     22  CD1 PHE A   1       3.321   6.152  18.679  0.00  0.00    +0.000 A 
ATOM     23  CE1 PHE A   1       2.326   5.603  19.488  0.00  0.00    +0.000 A 
ATOM     24  CZ  PHE A   1       1.760   4.373  19.161  0.00  0.00    +0.000 A 
ATOM     25  CE2 PHE A   1       2.225   3.667  18.053  0.00  0.00    +0.000 A 
ATOM     26  CD2 PHE A   1       3.222   4.211  17.245  0.00  0.00    +0.000 A 
ENDBRANCH  20  21
ENDBRANCH  15  20
ENDBRANCH   4  15
TORSDOF 7
ENDMDL
MODEL 9
REMARK VINA RESULT:      -7.7      4.899      6.404
REMARK  Name = 
REMARK  7 active torsions:
REMARK  status: ('A' for Active; 'I' for Inactive)
REMARK    1  A    between atoms: N_3  and  N_4
REMARK    2  A    between atoms: N_4  and  C_5
REMARK    3  A    between atoms: N_11  and  CA_12
REMARK    4  A    between atoms: CA_12  and  CB_13
REMARK    5  A    between atoms: CA_12  and  C_20
REMARK    6  A    between atoms: CB_13  and  CG_14
REMARK    7  A    between atoms: C_20  and  OXT_22
REMARK                            x       y       z     vdW  Elec       q    Type
REMARK                         _______ _______ _______ _____ _____    ______ ____
ROOT
ATOM      1  O   UNK A   0       4.838   4.785  17.265  0.00  0.00    +0.000 OA
ATOM      2  C   UNK A   0       5.020   5.956  16.967  0.00  0.00    +0.000 C 
ATOM      3  N   UNK A   0       6.112   6.440  16.241  0.00  0.00    +0.000 N 
ATOM      4  N   PHE A   1       4.165   6.974  17.329  0.00  0.00    +0.000 N 
ATOM      5  H   UNK A   0       5.914   7.171  15.565  0.00  0.00    +0.000 HD
ATOM      6  H   PHE A   1       4.450   7.930  17.138  0.00  0.00    +0.000 HD
ENDROOT
BRANCH   3   7
ATOM      7  N   UNK A   0       7.091   5.498  15.810  0.00  0.00    +0.000 N 
ATOM      8  H   UNK A   0       7.274   4.773  16.505  0.00  0.00    +0.000 HD
BRANCH   7   9
ATOM      9  C   UNK A   0       6.947   5.022  14.480  0.00  0.00    +0.000 A 
ATOM     10  C   UNK A   0       7.764   5.466  13.429  0.00  0.00    +0.000 A 
ATOM     11  C   UNK A   0       7.665   4.911  12.143  0.00  0.00    +0.000 A 
ATOM     12  C   UNK A   0       6.762   3.882  11.892  0.00  0.00    +0.000 A 
ATOM     13  C   UNK A   0       5.967   3.401  12.924  0.00  0.00    +0.000 A 
ATOM     14  C   UNK A   0       6.068   3.955  14.211  0.00  0.00    +0.000 A 
ENDBRANCH   7   9
ENDBRANCH   3   7
BRANCH   4  15
ATOM     15  CA  PHE A   1       2.927   6.825  18.120  0.00  0.00    +0.000 C 
BRANCH  15  16
ATOM     16  C   PHE A   1       2.267   8.209  18.243  0.00  0.00    +0.000 C 
ATOM     17  O   PHE A   1       1.706   8.598  19.262  0.00  0.00    +0.000 OA
BRANCH  16  18
ATOM     18  OXT PHE A   1       2.372   9.008  17.153  0.00  0.00    +0.000 OA
ATOM     19  HXT PHE A   1       2.231   8.580  16.287  0.00  0.00    +0.000 HD
ENDBRANCH  16  18
ENDBRANCH  15  16
BRANCH  15  20
ATOM     20  CB  PHE A   1       3.104   6.190  19.508  0.00  0.00    +0.000 C 
BRANCH  20  21
ATOM     21  CG  PHE A   1       2.307   4.935  19.769  0.00  0.00    +0.000 A 
ATOM     22  CD1 PHE A   1       1.700   4.216  18.725  0.00  0.00    +0.000 A 
ATOM     23  CE1 PHE A   1       1.079   2.993  18.981  0.00  0.00    +0.000 A 
ATOM     24  CZ  PHE A   1       1.051   2.483  20.277  0.00  0.00    +0.000 A 
ATOM     25  CE2 PHE A   1       1.598   3.220  21.326  0.00  0.00    +0.000 A 
ATOM     26  CD2 PHE A   1       2.214   4.444  21.074  0.00  0.00    +0.000 A 
ENDBRANCH  20  21
ENDBRANCH  15  20
ENDBRANCH   4  15
TORSDOF 7
ENDMDL
