MODEL 1
REMARK VINA RESULT:      -7.8      0.000      0.000
REMARK  Name = 
REMARK  13 active torsions:
REMARK  status: ('A' for Active; 'I' for Inactive)
REMARK    1  A    between atoms: C_1  and  C_2
REMARK    2  A    between atoms: C_7  and  N_8
REMARK    3  A    between atoms: N_11  and  C_12
REMARK    4  A    between atoms: C_12  and  C_13
REMARK    5  A    between atoms: C_13  and  O_14
REMARK    6  A    between atoms: C_13  and  C_15
REMARK    7  A    between atoms: C_18  and  O_19
REMARK    8  A    between atoms: C_20  and  C_21
REMARK    9  A    between atoms: N_23  and  C_24
REMARK   10  A    between atoms: C_24  and  C_25
REMARK   11  A    between atoms: C_25  and  C_26
REMARK   12  A    between atoms: C_25  and  C_27
REMARK   13  A    between atoms: C_25  and  C_28
REMARK                            x       y       z     vdW  Elec       q    Type
REMARK                         _______ _______ _______ _____ _____    ______ ____
ROOT
ATOM      1  C   UNL     1       8.442   8.447  18.119  0.00  0.00    +0.000 C 
ENDROOT
BRANCH   1   2
ATOM      2  C   UNL     1       8.884   9.869  18.500  0.00  0.00    +0.000 A 
ATOM      3  C   UNL     1       9.067  10.816  17.477  0.00  0.00    +0.000 A 
ATOM      4  C   UNL     1       9.363  12.143  17.783  0.00  0.00    +0.000 A 
ATOM      5  C   UNL     1       9.420  12.593  19.124  0.00  0.00    +0.000 A 
ATOM      6  C   UNL     1       9.200  11.670  20.192  0.00  0.00    +0.000 A 
ATOM      7  C   UNL     1       8.995  10.307  19.832  0.00  0.00    +0.000 A 
BRANCH   6   8
ATOM      8  C   UNL     1       9.092  11.995  21.696  0.00  0.00    +0.000 C 
ATOM      9  O   UNL     1       9.810  12.896  22.105  0.00  0.00    +0.000 OA
ATOM     10  N   UNL     1       8.313  11.326  22.622  0.00  0.00    +0.000 N 
ATOM     11  H   UNL     1       7.682  10.584  22.304  0.00  0.00    +0.000 HD
BRANCH  10  12
ATOM     12  C   UNL     1       8.321  11.660  24.076  0.00  0.00    +0.000 C 
BRANCH  12  13
ATOM     13  C   UNL     1       6.989  12.281  24.661  0.00  0.00    +0.000 C 
ATOM     14  C   UNL     1       6.121  11.199  25.330  0.00  0.00    +0.000 C 
ATOM     15  C   UNL     1       7.271  13.360  25.750  0.00  0.00    +0.000 C 
ATOM     16  C   UNL     1       6.201  12.995  23.545  0.00  0.00    +0.000 C 
ENDBRANCH  12  13
ENDBRANCH  10  12
ENDBRANCH   6   8
BRANCH   5  17
ATOM     17  O   UNL     1       9.686  13.891  19.353  0.00  0.00    +0.000 OA
ATOM     18  H   UNL     1      10.061  14.195  20.197  0.00  0.00    +0.000 HD
ENDBRANCH   5  17
ENDBRANCH   1   2
BRANCH   1  19
ATOM     19  O   UNL     1       8.700   7.559  19.187  0.00  0.00    +0.000 OA
ATOM     20  H   UNL     1       7.834   7.215  19.535  0.00  0.00    +0.000 HD
ENDBRANCH   1  19
BRANCH   1  21
ATOM     21  C   UNL     1       7.005   8.150  17.571  0.00  0.00    +0.000 C 
BRANCH  21  25
ATOM     22  N   UNL     1       4.302   5.687  18.323  0.00  0.00    +0.000 N 
ATOM     23  C   UNL     1       5.645   5.534  18.922  0.00  0.00    +0.000 C 
ATOM     24  C   UNL     1       6.789   5.627  17.887  0.00  0.00    +0.000 C 
ATOM     25  N   UNL     1       6.689   6.806  17.014  0.00  0.00    +0.000 NA
ATOM     26  C   UNL     1       5.362   6.797  16.367  0.00  0.00    +0.000 C 
ATOM     27  C   UNL     1       4.218   6.833  17.401  0.00  0.00    +0.000 C 
BRANCH  22  34
ATOM     28  C   UNL     1       2.729   3.099  17.049  0.00  0.00    +0.000 C 
ATOM     29  C   UNL     1       2.432   3.834  18.351  0.00  0.00    +0.000 A 
ATOM     30  C   UNL     1       1.341   3.272  19.042  0.00  0.00    +0.000 A 
ATOM     31  C   UNL     1       0.871   3.810  20.226  0.00  0.00    +0.000 A 
ATOM     32  C   UNL     1       1.467   4.933  20.749  0.00  0.00    +0.000 A 
ATOM     33  C   UNL     1       2.553   5.514  20.112  0.00  0.00    +0.000 A 
ATOM     34  C   UNL     1       3.123   5.012  18.907  0.00  0.00    +0.000 A 
ENDBRANCH  22  34
ENDBRANCH  21  25
ENDBRANCH   1  21
TORSDOF 9
ENDMDL
MODEL 2
REMARK VINA RESULT:      -7.6      6.863     10.324
REMARK  Name = 
REMARK  13 active torsions:
REMARK  status: ('A' for Active; 'I' for Inactive)
REMARK    1  A    between atoms: C_1  and  C_2
REMARK    2  A    between atoms: C_7  and  N_8
REMARK    3  A    between atoms: N_11  and  C_12
REMARK    4  A    between atoms: C_12  and  C_13
REMARK    5  A    between atoms: C_13  and  O_14
REMARK    6  A    between atoms: C_13  and  C_15
REMARK    7  A    between atoms: C_18  and  O_19
REMARK    8  A    between atoms: C_20  and  C_21
REMARK    9  A    between atoms: N_23  and  C_24
REMARK   10  A    between atoms: C_24  and  C_25
REMARK   11  A    between atoms: C_25  and  C_26
REMARK   12  A    between atoms: C_25  and  C_27
REMARK   13  A    between atoms: C_25  and  C_28
REMARK                            x       y       z     vdW  Elec       q    Type
REMARK                         _______ _______ _______ _____ _____    ______ ____
ROOT
ATOM      1  C   UNL     1       1.353   9.560  18.763  0.00  0.00    +0.000 C 
ENDROOT
BRANCH   1   2
ATOM      2  C   UNL     1       1.716   8.242  19.465  0.00  0.00    +0.000 A 
ATOM      3  C   UNL     1       1.036   7.897  20.646  0.00  0.00    +0.000 A 
ATOM      4  C   UNL     1       1.257   6.664  21.258  0.00  0.00    +0.000 A 
ATOM      5  C   UNL     1       2.112   5.697  20.676  0.00  0.00    +0.000 A 
ATOM      6  C   UNL     1       2.790   5.994  19.454  0.00  0.00    +0.000 A 
ATOM      7  C   UNL     1       2.607   7.301  18.918  0.00  0.00    +0.000 A 
BRANCH   6   8
ATOM      8  C   UNL     1       3.650   5.032  18.610  0.00  0.00    +0.000 C 
ATOM      9  O   UNL     1       4.421   4.312  19.229  0.00  0.00    +0.000 OA
ATOM     10  N   UNL     1       3.672   4.954  17.229  0.00  0.00    +0.000 N 
ATOM     11  H   UNL     1       3.018   5.526  16.685  0.00  0.00    +0.000 HD
BRANCH  10  12
ATOM     12  C   UNL     1       4.589   4.042  16.486  0.00  0.00    +0.000 C 
BRANCH  12  13
ATOM     13  C   UNL     1       5.744   4.733  15.654  0.00  0.00    +0.000 C 
ATOM     14  C   UNL     1       5.427   6.218  15.397  0.00  0.00    +0.000 C 
ATOM     15  C   UNL     1       7.111   4.694  16.401  0.00  0.00    +0.000 C 
ATOM     16  C   UNL     1       5.961   3.986  14.324  0.00  0.00    +0.000 C 
ENDBRANCH  12  13
ENDBRANCH  10  12
ENDBRANCH   6   8
BRANCH   5  17
ATOM     17  O   UNL     1       2.264   4.517  21.302  0.00  0.00    +0.000 OA
ATOM     18  H   UNL     1       3.141   4.123  21.444  0.00  0.00    +0.000 HD
ENDBRANCH   5  17
ENDBRANCH   1   2
BRANCH   1  19
ATOM     19  O   UNL     1       1.615   9.458  17.379  0.00  0.00    +0.000 OA
ATOM     20  H   UNL     1       0.755   9.516  16.883  0.00  0.00    +0.000 HD
ENDBRANCH   1  19
BRANCH   1  21
ATOM     21  C   UNL     1      -0.051  10.232  18.946  0.00  0.00    +0.000 C 
BRANCH  21  25
ATOM     22  N   UNL     1      -3.481  11.626  18.469  0.00  0.00    +0.000 N 
ATOM     23  C   UNL     1      -3.149  10.266  17.991  0.00  0.00    +0.000 C 
ATOM     24  C   UNL     1      -1.857  10.216  17.144  0.00  0.00    +0.000 C 
ATOM     25  N   UNL     1      -0.715  10.884  17.785  0.00  0.00    +0.000 NA
ATOM     26  C   UNL     1      -1.107  12.271  18.106  0.00  0.00    +0.000 C 
ATOM     27  C   UNL     1      -2.322  12.320  19.056  0.00  0.00    +0.000 C 
BRANCH  22  34
ATOM     28  C   UNL     1      -4.797  12.584  21.324  0.00  0.00    +0.000 C 
ATOM     29  C   UNL     1      -5.470  12.495  19.958  0.00  0.00    +0.000 A 
ATOM     30  C   UNL     1      -6.819  12.896  20.004  0.00  0.00    +0.000 A 
ATOM     31  C   UNL     1      -7.633  12.852  18.886  0.00  0.00    +0.000 A 
ATOM     32  C   UNL     1      -7.127  12.393  17.693  0.00  0.00    +0.000 A 
ATOM     33  C   UNL     1      -5.802  11.999  17.596  0.00  0.00    +0.000 A 
ATOM     34  C   UNL     1      -4.884  12.039  18.684  0.00  0.00    +0.000 A 
ENDBRANCH  22  34
ENDBRANCH  21  25
ENDBRANCH   1  21
TORSDOF 9
ENDMDL
MODEL 3
REMARK VINA RESULT:      -7.6      5.596      7.517
REMARK  Name = 
REMARK  13 active torsions:
REMARK  status: ('A' for Active; 'I' for Inactive)
REMARK    1  A    between atoms: C_1  and  C_2
REMARK    2  A    between atoms: C_7  and  N_8
REMARK    3  A    between atoms: N_11  and  C_12
REMARK    4  A    between atoms: C_12  and  C_13
REMARK    5  A    between atoms: C_13  and  O_14
REMARK    6  A    between atoms: C_13  and  C_15
REMARK    7  A    between atoms: C_18  and  O_19
REMARK    8  A    between atoms: C_20  and  C_21
REMARK    9  A    between atoms: N_23  and  C_24
REMARK   10  A    between atoms: C_24  and  C_25
REMARK   11  A    between atoms: C_25  and  C_26
REMARK   12  A    between atoms: C_25  and  C_27
REMARK   13  A    between atoms: C_25  and  C_28
REMARK                            x       y       z     vdW  Elec       q    Type
REMARK                         _______ _______ _______ _____ _____    ______ ____
ROOT
ATOM      1  C   UNL     1       2.600   5.283  20.239  0.00  0.00    +0.000 C 
ENDROOT
BRANCH   1   2
ATOM      2  C   UNL     1       2.462   6.655  19.563  0.00  0.00    +0.000 A 
ATOM      3  C   UNL     1       2.915   6.806  18.241  0.00  0.00    +0.000 A 
ATOM      4  C   UNL     1       2.714   8.002  17.553  0.00  0.00    +0.000 A 
ATOM      5  C   UNL     1       1.989   9.071  18.133  0.00  0.00    +0.000 A 
ATOM      6  C   UNL     1       1.477   8.942  19.461  0.00  0.00    +0.000 A 
ATOM      7  C   UNL     1       1.790   7.739  20.157  0.00  0.00    +0.000 A 
BRANCH   6   8
ATOM      8  C   UNL     1       0.562   9.935  20.205  0.00  0.00    +0.000 C 
ATOM      9  O   UNL     1      -0.460   9.468  20.689  0.00  0.00    +0.000 OA
ATOM     10  N   UNL     1       0.758  11.299  20.320  0.00  0.00    +0.000 N 
ATOM     11  H   UNL     1       1.618  11.714  19.947  0.00  0.00    +0.000 HD
BRANCH  10  12
ATOM     12  C   UNL     1      -0.217  12.201  20.998  0.00  0.00    +0.000 C 
BRANCH  12  13
ATOM     13  C   UNL     1      -1.159  13.052  20.054  0.00  0.00    +0.000 C 
ATOM     14  C   UNL     1      -1.362  14.474  20.611  0.00  0.00    +0.000 C 
ATOM     15  C   UNL     1      -0.564  13.217  18.623  0.00  0.00    +0.000 C 
ATOM     16  C   UNL     1      -2.515  12.341  19.875  0.00  0.00    +0.000 C 
ENDBRANCH  12  13
ENDBRANCH  10  12
ENDBRANCH   6   8
BRANCH   5  17
ATOM     17  O   UNL     1       1.807  10.189  17.409  0.00  0.00    +0.000 OA
ATOM     18  H   UNL     1       2.549  10.773  17.176  0.00  0.00    +0.000 HD
ENDBRANCH   5  17
ENDBRANCH   1   2
BRANCH   1  19
ATOM     19  O   UNL     1       2.346   5.398  21.623  0.00  0.00    +0.000 OA
ATOM     20  H   UNL     1       3.110   5.007  22.124  0.00  0.00    +0.000 HD
ENDBRANCH   1  19
BRANCH   1  21
ATOM     21  C   UNL     1       1.840   4.021  19.705  0.00  0.00    +0.000 C 
BRANCH  21  25
ATOM     22  N   UNL     1       4.480   3.800  17.074  0.00  0.00    +0.000 N 
ATOM     23  C   UNL     1       3.070   3.492  16.751  0.00  0.00    +0.000 C 
ATOM     24  C   UNL     1       2.421   2.498  17.741  0.00  0.00    +0.000 C 
ATOM     25  N   UNL     1       2.610   2.874  19.150  0.00  0.00    +0.000 NA
ATOM     26  C   UNL     1       4.056   3.032  19.401  0.00  0.00    +0.000 C 
ATOM     27  C   UNL     1       4.681   4.117  18.499  0.00  0.00    +0.000 C 
BRANCH  22  34
ATOM     28  C   UNL     1       7.247   5.528  17.462  0.00  0.00    +0.000 C 
ATOM     29  C   UNL     1       6.707   4.887  16.188  0.00  0.00    +0.000 A 
ATOM     30  C   UNL     1       7.558   5.098  15.085  0.00  0.00    +0.000 A 
ATOM     31  C   UNL     1       7.239   4.640  13.819  0.00  0.00    +0.000 A 
ATOM     32  C   UNL     1       6.057   3.971  13.614  0.00  0.00    +0.000 A 
ATOM     33  C   UNL     1       5.193   3.729  14.671  0.00  0.00    +0.000 A 
ATOM     34  C   UNL     1       5.452   4.134  16.011  0.00  0.00    +0.000 A 
ENDBRANCH  22  34
ENDBRANCH  21  25
ENDBRANCH   1  21
TORSDOF 9
ENDMDL
MODEL 4
REMARK VINA RESULT:      -7.5      6.402     10.275
REMARK  Name = 
REMARK  13 active torsions:
REMARK  status: ('A' for Active; 'I' for Inactive)
REMARK    1  A    between atoms: C_1  and  C_2
REMARK    2  A    between atoms: C_7  and  N_8
REMARK    3  A    between atoms: N_11  and  C_12
REMARK    4  A    between atoms: C_12  and  C_13
REMARK    5  A    between atoms: C_13  and  O_14
REMARK    6  A    between atoms: C_13  and  C_15
REMARK    7  A    between atoms: C_18  and  O_19
REMARK    8  A    between atoms: C_20  and  C_21
REMARK    9  A    between atoms: N_23  and  C_24
REMARK   10  A    between atoms: C_24  and  C_25
REMARK   11  A    between atoms: C_25  and  C_26
REMARK   12  A    between atoms: C_25  and  C_27
REMARK   13  A    between atoms: C_25  and  C_28
REMARK                            x       y       z     vdW  Elec       q    Type
REMARK                         _______ _______ _______ _____ _____    ______ ____
ROOT
ATOM      1  C   UNL     1       1.602   9.669  18.624  0.00  0.00    +0.000 C 
ENDROOT
BRANCH   1   2
ATOM      2  C   UNL     1       1.873   8.343  19.352  0.00  0.00    +0.000 A 
ATOM      3  C   UNL     1       1.112   8.031  20.491  0.00  0.00    +0.000 A 
ATOM      4  C   UNL     1       1.250   6.794  21.120  0.00  0.00    +0.000 A 
ATOM      5  C   UNL     1       2.103   5.793  20.595  0.00  0.00    +0.000 A 
ATOM      6  C   UNL     1       2.864   6.058  19.416  0.00  0.00    +0.000 A 
ATOM      7  C   UNL     1       2.761   7.367  18.864  0.00  0.00    +0.000 A 
BRANCH   6   8
ATOM      8  C   UNL     1       3.738   5.060  18.628  0.00  0.00    +0.000 C 
ATOM      9  O   UNL     1       4.595   4.470  19.271  0.00  0.00    +0.000 OA
ATOM     10  N   UNL     1       3.681   4.822  17.268  0.00  0.00    +0.000 N 
ATOM     11  H   UNL     1       2.956   5.282  16.708  0.00  0.00    +0.000 HD
BRANCH  10  12
ATOM     12  C   UNL     1       4.614   3.889  16.571  0.00  0.00    +0.000 C 
BRANCH  12  13
ATOM     13  C   UNL     1       5.794   4.557  15.755  0.00  0.00    +0.000 C 
ATOM     14  C   UNL     1       6.024   3.826  14.419  0.00  0.00    +0.000 C 
ATOM     15  C   UNL     1       5.496   6.045  15.401  0.00  0.00    +0.000 C 
ATOM     16  C   UNL     1       7.084   4.567  16.598  0.00  0.00    +0.000 C 
ENDBRANCH  12  13
ENDBRANCH  10  12
ENDBRANCH   6   8
BRANCH   5  17
ATOM     17  O   UNL     1       2.174   4.612  21.234  0.00  0.00    +0.000 OA
ATOM     18  H   UNL     1       2.924   4.387  21.810  0.00  0.00    +0.000 HD
ENDBRANCH   5  17
ENDBRANCH   1   2
BRANCH   1  19
ATOM     19  O   UNL     1       1.792   9.504  17.234  0.00  0.00    +0.000 OA
ATOM     20  H   UNL     1       1.436  10.305  16.764  0.00  0.00    +0.000 HD
ENDBRANCH   1  19
BRANCH   1  21
ATOM     21  C   UNL     1       0.275  10.473  18.844  0.00  0.00    +0.000 C 
BRANCH  21  25
ATOM     22  N   UNL     1      -1.817  12.552  21.133  0.00  0.00    +0.000 N 
ATOM     23  C   UNL     1      -2.054  12.572  19.673  0.00  0.00    +0.000 C 
ATOM     24  C   UNL     1      -0.766  12.803  18.850  0.00  0.00    +0.000 C 
ATOM     25  N   UNL     1       0.337  11.908  19.233  0.00  0.00    +0.000 NA
ATOM     26  C   UNL     1       0.578  12.058  20.681  0.00  0.00    +0.000 C 
ATOM     27  C   UNL     1      -0.674  11.704  21.512  0.00  0.00    +0.000 C 
BRANCH  22  34
ATOM     28  C   UNL     1      -1.311  14.317  23.857  0.00  0.00    +0.000 C 
ATOM     29  C   UNL     1      -2.636  13.819  23.290  0.00  0.00    +0.000 A 
ATOM     30  C   UNL     1      -3.733  14.209  24.082  0.00  0.00    +0.000 A 
ATOM     31  C   UNL     1      -5.027  13.827  23.776  0.00  0.00    +0.000 A 
ATOM     32  C   UNL     1      -5.262  13.033  22.679  0.00  0.00    +0.000 A 
ATOM     33  C   UNL     1      -4.215  12.634  21.863  0.00  0.00    +0.000 A 
ATOM     34  C   UNL     1      -2.857  13.004  22.081  0.00  0.00    +0.000 A 
ENDBRANCH  22  34
ENDBRANCH  21  25
ENDBRANCH   1  21
TORSDOF 9
ENDMDL
MODEL 5
REMARK VINA RESULT:      -7.5      5.688     10.340
REMARK  Name = 
REMARK  13 active torsions:
REMARK  status: ('A' for Active; 'I' for Inactive)
REMARK    1  A    between atoms: C_1  and  C_2
REMARK    2  A    between atoms: C_7  and  N_8
REMARK    3  A    between atoms: N_11  and  C_12
REMARK    4  A    between atoms: C_12  and  C_13
REMARK    5  A    between atoms: C_13  and  O_14
REMARK    6  A    between atoms: C_13  and  C_15
REMARK    7  A    between atoms: C_18  and  O_19
REMARK    8  A    between atoms: C_20  and  C_21
REMARK    9  A    between atoms: N_23  and  C_24
REMARK   10  A    between atoms: C_24  and  C_25
REMARK   11  A    between atoms: C_25  and  C_26
REMARK   12  A    between atoms: C_25  and  C_27
REMARK   13  A    between atoms: C_25  and  C_28
REMARK                            x       y       z     vdW  Elec       q    Type
REMARK                         _______ _______ _______ _____ _____    ______ ____
ROOT
ATOM      1  C   UNL     1       1.453   9.622  18.581  0.00  0.00    +0.000 C 
ENDROOT
BRANCH   1   2
ATOM      2  C   UNL     1       1.796   8.317  19.314  0.00  0.00    +0.000 A 
ATOM      3  C   UNL     1       1.082   7.991  20.481  0.00  0.00    +0.000 A 
ATOM      4  C   UNL     1       1.286   6.768  21.119  0.00  0.00    +0.000 A 
ATOM      5  C   UNL     1       2.158   5.792  20.578  0.00  0.00    +0.000 A 
ATOM      6  C   UNL     1       2.871   6.070  19.372  0.00  0.00    +0.000 A 
ATOM      7  C   UNL     1       2.703   7.367  18.809  0.00  0.00    +0.000 A 
BRANCH   6   8
ATOM      8  C   UNL     1       3.755   5.094  18.568  0.00  0.00    +0.000 C 
ATOM      9  O   UNL     1       4.654   4.545  19.189  0.00  0.00    +0.000 OA
ATOM     10  N   UNL     1       3.663   4.836  17.213  0.00  0.00    +0.000 N 
ATOM     11  H   UNL     1       2.903   5.262  16.672  0.00  0.00    +0.000 HD
BRANCH  10  12
ATOM     12  C   UNL     1       4.607   3.929  16.497  0.00  0.00    +0.000 C 
BRANCH  12  13
ATOM     13  C   UNL     1       5.787   4.627  15.708  0.00  0.00    +0.000 C 
ATOM     14  C   UNL     1       5.468   6.108  15.431  0.00  0.00    +0.000 C 
ATOM     15  C   UNL     1       7.125   4.603  16.508  0.00  0.00    +0.000 C 
ATOM     16  C   UNL     1       6.063   3.876  14.391  0.00  0.00    +0.000 C 
ENDBRANCH  12  13
ENDBRANCH  10  12
ENDBRANCH   6   8
BRANCH   5  17
ATOM     17  O   UNL     1       2.292   4.623  21.228  0.00  0.00    +0.000 OA
ATOM     18  H   UNL     1       2.830   3.897  20.868  0.00  0.00    +0.000 HD
ENDBRANCH   5  17
ENDBRANCH   1   2
BRANCH   1  19
ATOM     19  O   UNL     1       2.011   9.608  17.283  0.00  0.00    +0.000 OA
ATOM     20  H   UNL     1       2.226   8.670  17.036  0.00  0.00    +0.000 HD
ENDBRANCH   1  19
BRANCH   1  21
ATOM     21  C   UNL     1      -0.020  10.145  18.473  0.00  0.00    +0.000 C 
BRANCH  21  25
ATOM     22  N   UNL     1       0.313  13.803  19.138  0.00  0.00    +0.000 N 
ATOM     23  C   UNL     1       1.158  12.828  19.862  0.00  0.00    +0.000 C 
ATOM     24  C   UNL     1       0.350  11.668  20.487  0.00  0.00    +0.000 C 
ATOM     25  N   UNL     1      -0.572  11.025  19.540  0.00  0.00    +0.000 NA
ATOM     26  C   UNL     1      -1.454  12.062  18.970  0.00  0.00    +0.000 C 
ATOM     27  C   UNL     1      -0.653  13.157  18.234  0.00  0.00    +0.000 C 
BRANCH  22  34
ATOM     28  C   UNL     1       3.147  14.977  17.960  0.00  0.00    +0.000 C 
ATOM     29  C   UNL     1       1.955  15.759  18.500  0.00  0.00    +0.000 A 
ATOM     30  C   UNL     1       2.166  17.151  18.449  0.00  0.00    +0.000 A 
ATOM     31  C   UNL     1       1.231  18.050  18.929  0.00  0.00    +0.000 A 
ATOM     32  C   UNL     1       0.064  17.585  19.488  0.00  0.00    +0.000 A 
ATOM     33  C   UNL     1      -0.193  16.225  19.550  0.00  0.00    +0.000 A 
ATOM     34  C   UNL     1       0.695  15.229  19.053  0.00  0.00    +0.000 A 
ENDBRANCH  22  34
ENDBRANCH  21  25
ENDBRANCH   1  21
TORSDOF 9
ENDMDL
MODEL 6
REMARK VINA RESULT:      -7.4      5.810     10.422
REMARK  Name = 
REMARK  13 active torsions:
REMARK  status: ('A' for Active; 'I' for Inactive)
REMARK    1  A    between atoms: C_1  and  C_2
REMARK    2  A    between atoms: C_7  and  N_8
REMARK    3  A    between atoms: N_11  and  C_12
REMARK    4  A    between atoms: C_12  and  C_13
REMARK    5  A    between atoms: C_13  and  O_14
REMARK    6  A    between atoms: C_13  and  C_15
REMARK    7  A    between atoms: C_18  and  O_19
REMARK    8  A    between atoms: C_20  and  C_21
REMARK    9  A    between atoms: N_23  and  C_24
REMARK   10  A    between atoms: C_24  and  C_25
REMARK   11  A    between atoms: C_25  and  C_26
REMARK   12  A    between atoms: C_25  and  C_27
REMARK   13  A    between atoms: C_25  and  C_28
REMARK                            x       y       z     vdW  Elec       q    Type
REMARK                         _______ _______ _______ _____ _____    ______ ____
ROOT
ATOM      1  C   UNL     1       1.374   9.707  18.584  0.00  0.00    +0.000 C 
ENDROOT
BRANCH   1   2
ATOM      2  C   UNL     1       1.755   8.426  19.342  0.00  0.00    +0.000 A 
ATOM      3  C   UNL     1       1.077   8.122  20.536  0.00  0.00    +0.000 A 
ATOM      4  C   UNL     1       1.314   6.919  21.200  0.00  0.00    +0.000 A 
ATOM      5  C   UNL     1       2.186   5.942  20.663  0.00  0.00    +0.000 A 
ATOM      6  C   UNL     1       2.864   6.197  19.431  0.00  0.00    +0.000 A 
ATOM      7  C   UNL     1       2.663   7.477  18.839  0.00  0.00    +0.000 A 
BRANCH   6   8
ATOM      8  C   UNL     1       3.742   5.213  18.631  0.00  0.00    +0.000 C 
ATOM      9  O   UNL     1       4.674   4.706  19.238  0.00  0.00    +0.000 OA
ATOM     10  N   UNL     1       3.608   4.904  17.290  0.00  0.00    +0.000 N 
ATOM     11  H   UNL     1       2.820   5.294  16.762  0.00  0.00    +0.000 HD
BRANCH  10  12
ATOM     12  C   UNL     1       4.547   3.993  16.573  0.00  0.00    +0.000 C 
BRANCH  12  13
ATOM     13  C   UNL     1       5.707   4.687  15.751  0.00  0.00    +0.000 C 
ATOM     14  C   UNL     1       5.399   6.177  15.509  0.00  0.00    +0.000 C 
ATOM     15  C   UNL     1       7.073   4.633  16.500  0.00  0.00    +0.000 C 
ATOM     16  C   UNL     1       5.923   3.953  14.413  0.00  0.00    +0.000 C 
ENDBRANCH  12  13
ENDBRANCH  10  12
ENDBRANCH   6   8
BRANCH   5  17
ATOM     17  O   UNL     1       2.355   4.792  21.339  0.00  0.00    +0.000 OA
ATOM     18  H   UNL     1       1.668   4.104  21.356  0.00  0.00    +0.000 HD
ENDBRANCH   5  17
ENDBRANCH   1   2
BRANCH   1  19
ATOM     19  O   UNL     1       1.977   9.709  17.306  0.00  0.00    +0.000 OA
ATOM     20  H   UNL     1       1.392  10.207  16.676  0.00  0.00    +0.000 HD
ENDBRANCH   1  19
BRANCH   1  21
ATOM     21  C   UNL     1      -0.119  10.155  18.421  0.00  0.00    +0.000 C 
BRANCH  21  25
ATOM     22  N   UNL     1       0.207  13.802  19.149  0.00  0.00    +0.000 N 
ATOM     23  C   UNL     1       0.978  12.808  19.928  0.00  0.00    +0.000 C 
ATOM     24  C   UNL     1       0.107  11.653  20.474  0.00  0.00    +0.000 C 
ATOM     25  N   UNL     1      -0.743  11.032  19.448  0.00  0.00    +0.000 NA
ATOM     26  C   UNL     1      -1.563  12.087  18.820  0.00  0.00    +0.000 C 
ATOM     27  C   UNL     1      -0.691  13.178  18.163  0.00  0.00    +0.000 C 
BRANCH  22  34
ATOM     28  C   UNL     1      -1.614  16.357  20.122  0.00  0.00    +0.000 C 
ATOM     29  C   UNL     1      -0.192  16.369  19.571  0.00  0.00    +0.000 A 
ATOM     30  C   UNL     1       0.343  17.671  19.508  0.00  0.00    +0.000 A 
ATOM     31  C   UNL     1       1.604  17.918  18.998  0.00  0.00    +0.000 A 
ATOM     32  C   UNL     1       2.363  16.876  18.522  0.00  0.00    +0.000 A 
ATOM     33  C   UNL     1       1.884  15.576  18.574  0.00  0.00    +0.000 A 
ATOM     34  C   UNL     1       0.613  15.223  19.110  0.00  0.00    +0.000 A 
ENDBRANCH  22  34
ENDBRANCH  21  25
ENDBRANCH   1  21
TORSDOF 9
ENDMDL
MODEL 7
REMARK VINA RESULT:      -7.4      5.586      7.452
REMARK  Name = 
REMARK  13 active torsions:
REMARK  status: ('A' for Active; 'I' for Inactive)
REMARK    1  A    between atoms: C_1  and  C_2
REMARK    2  A    between atoms: C_7  and  N_8
REMARK    3  A    between atoms: N_11  and  C_12
REMARK    4  A    between atoms: C_12  and  C_13
REMARK    5  A    between atoms: C_13  and  O_14
REMARK    6  A    between atoms: C_13  and  C_15
REMARK    7  A    between atoms: C_18  and  O_19
REMARK    8  A    between atoms: C_20  and  C_21
REMARK    9  A    between atoms: N_23  and  C_24
REMARK   10  A    between atoms: C_24  and  C_25
REMARK   11  A    between atoms: C_25  and  C_26
REMARK   12  A    between atoms: C_25  and  C_27
REMARK   13  A    between atoms: C_25  and  C_28
REMARK                            x       y       z     vdW  Elec       q    Type
REMARK                         _______ _______ _______ _____ _____    ______ ____
ROOT
ATOM      1  C   UNL     1       2.521   5.272  20.259  0.00  0.00    +0.000 C 
ENDROOT
BRANCH   1   2
ATOM      2  C   UNL     1       2.286   6.685  19.702  0.00  0.00    +0.000 A 
ATOM      3  C   UNL     1       2.485   6.911  18.329  0.00  0.00    +0.000 A 
ATOM      4  C   UNL     1       2.182   8.148  17.762  0.00  0.00    +0.000 A 
ATOM      5  C   UNL     1       1.602   9.186  18.529  0.00  0.00    +0.000 A 
ATOM      6  C   UNL     1       1.348   8.982  19.920  0.00  0.00    +0.000 A 
ATOM      7  C   UNL     1       1.761   7.737  20.474  0.00  0.00    +0.000 A 
BRANCH   6   8
ATOM      8  C   UNL     1       0.609   9.937  20.881  0.00  0.00    +0.000 C 
ATOM      9  O   UNL     1       1.132  10.114  21.972  0.00  0.00    +0.000 OA
ATOM     10  N   UNL     1      -0.606  10.554  20.646  0.00  0.00    +0.000 N 
ATOM     11  H   UNL     1      -1.054  10.445  19.730  0.00  0.00    +0.000 HD
BRANCH  10  12
ATOM     12  C   UNL     1      -1.287  11.408  21.661  0.00  0.00    +0.000 C 
BRANCH  12  13
ATOM     13  C   UNL     1      -1.349  12.958  21.345  0.00  0.00    +0.000 C 
ATOM     14  C   UNL     1      -1.086  13.229  19.852  0.00  0.00    +0.000 C 
ATOM     15  C   UNL     1      -2.747  13.568  21.667  0.00  0.00    +0.000 C 
ATOM     16  C   UNL     1      -0.337  13.719  22.223  0.00  0.00    +0.000 C 
ENDBRANCH  12  13
ENDBRANCH  10  12
ENDBRANCH   6   8
BRANCH   5  17
ATOM     17  O   UNL     1       1.311  10.348  17.918  0.00  0.00    +0.000 OA
ATOM     18  H   UNL     1       2.007  10.948  17.602  0.00  0.00    +0.000 HD
ENDBRANCH   5  17
ENDBRANCH   1   2
BRANCH   1  19
ATOM     19  O   UNL     1       2.444   5.290  21.669  0.00  0.00    +0.000 OA
ATOM     20  H   UNL     1       2.699   6.194  21.994  0.00  0.00    +0.000 HD
ENDBRANCH   1  19
BRANCH   1  21
ATOM     21  C   UNL     1       1.710   4.036  19.740  0.00  0.00    +0.000 C 
BRANCH  21  25
ATOM     22  N   UNL     1       4.405   3.811  17.167  0.00  0.00    +0.000 N 
ATOM     23  C   UNL     1       2.989   3.604  16.792  0.00  0.00    +0.000 C 
ATOM     24  C   UNL     1       2.258   2.595  17.707  0.00  0.00    +0.000 C 
ATOM     25  N   UNL     1       2.428   2.880  19.139  0.00  0.00    +0.000 NA
ATOM     26  C   UNL     1       3.873   2.939  19.434  0.00  0.00    +0.000 C 
ATOM     27  C   UNL     1       4.584   4.035  18.612  0.00  0.00    +0.000 C 
BRANCH  22  34
ATOM     28  C   UNL     1       7.215   5.425  17.707  0.00  0.00    +0.000 C 
ATOM     29  C   UNL     1       6.697   4.848  16.394  0.00  0.00    +0.000 A 
ATOM     30  C   UNL     1       7.591   5.068  15.328  0.00  0.00    +0.000 A 
ATOM     31  C   UNL     1       7.300   4.666  14.036  0.00  0.00    +0.000 A 
ATOM     32  C   UNL     1       6.103   4.047  13.768  0.00  0.00    +0.000 A 
ATOM     33  C   UNL     1       5.196   3.799  14.787  0.00  0.00    +0.000 A 
ATOM     34  C   UNL     1       5.423   4.148  16.149  0.00  0.00    +0.000 A 
ENDBRANCH  22  34
ENDBRANCH  21  25
ENDBRANCH   1  21
TORSDOF 9
ENDMDL
MODEL 8
REMARK VINA RESULT:      -7.3      5.785     10.351
REMARK  Name = 
REMARK  13 active torsions:
REMARK  status: ('A' for Active; 'I' for Inactive)
REMARK    1  A    between atoms: C_1  and  C_2
REMARK    2  A    between atoms: C_7  and  N_8
REMARK    3  A    between atoms: N_11  and  C_12
REMARK    4  A    between atoms: C_12  and  C_13
REMARK    5  A    between atoms: C_13  and  O_14
REMARK    6  A    between atoms: C_13  and  C_15
REMARK    7  A    between atoms: C_18  and  O_19
REMARK    8  A    between atoms: C_20  and  C_21
REMARK    9  A    between atoms: N_23  and  C_24
REMARK   10  A    between atoms: C_24  and  C_25
REMARK   11  A    between atoms: C_25  and  C_26
REMARK   12  A    between atoms: C_25  and  C_27
REMARK   13  A    between atoms: C_25  and  C_28
REMARK                            x       y       z     vdW  Elec       q    Type
REMARK                         _______ _______ _______ _____ _____    ______ ____
ROOT
ATOM      1  C   UNL     1       1.856   8.158  19.812  0.00  0.00    +0.000 C 
ENDROOT
BRANCH   1   2
ATOM      2  C   UNL     1       2.220   6.676  19.983  0.00  0.00    +0.000 A 
ATOM      3  C   UNL     1       1.372   5.857  20.751  0.00  0.00    +0.000 A 
ATOM      4  C   UNL     1       1.605   4.486  20.846  0.00  0.00    +0.000 A 
ATOM      5  C   UNL     1       2.652   3.866  20.121  0.00  0.00    +0.000 A 
ATOM      6  C   UNL     1       3.511   4.658  19.299  0.00  0.00    +0.000 A 
ATOM      7  C   UNL     1       3.292   6.065  19.309  0.00  0.00    +0.000 A 
BRANCH   6   8
ATOM      8  C   UNL     1       4.610   4.151  18.343  0.00  0.00    +0.000 C 
ATOM      9  O   UNL     1       5.740   4.086  18.807  0.00  0.00    +0.000 OA
ATOM     10  N   UNL     1       4.447   3.829  17.009  0.00  0.00    +0.000 N 
ATOM     11  H   UNL     1       3.508   3.849  16.599  0.00  0.00    +0.000 HD
BRANCH  10  12
ATOM     12  C   UNL     1       5.582   3.414  16.133  0.00  0.00    +0.000 C 
BRANCH  12  13
ATOM     13  C   UNL     1       6.156   4.519  15.158  0.00  0.00    +0.000 C 
ATOM     14  C   UNL     1       6.195   4.009  13.705  0.00  0.00    +0.000 C 
ATOM     15  C   UNL     1       5.282   5.809  15.151  0.00  0.00    +0.000 C 
ATOM     16  C   UNL     1       7.561   4.956  15.618  0.00  0.00    +0.000 C 
ENDBRANCH  12  13
ENDBRANCH  10  12
ENDBRANCH   6   8
BRANCH   5  17
ATOM     17  O   UNL     1       2.810   2.536  20.236  0.00  0.00    +0.000 OA
ATOM     18  H   UNL     1       3.653   2.143  20.516  0.00  0.00    +0.000 HD
ENDBRANCH   5  17
ENDBRANCH   1   2
BRANCH   1  19
ATOM     19  O   UNL     1       1.474   8.411  18.475  0.00  0.00    +0.000 OA
ATOM     20  H   UNL     1       2.271   8.312  17.889  0.00  0.00    +0.000 HD
ENDBRANCH   1  19
BRANCH   1  21
ATOM     21  C   UNL     1       0.828   8.869  20.756  0.00  0.00    +0.000 C 
BRANCH  21  25
ATOM     22  N   UNL     1      -0.929  11.574  22.636  0.00  0.00    +0.000 N 
ATOM     23  C   UNL     1      -0.181  11.884  21.398  0.00  0.00    +0.000 C 
ATOM     24  C   UNL     1       1.252  11.304  21.391  0.00  0.00    +0.000 C 
ATOM     25  N   UNL     1       1.304   9.877  21.742  0.00  0.00    +0.000 NA
ATOM     26  C   UNL     1       0.645   9.695  23.051  0.00  0.00    +0.000 C 
ATOM     27  C   UNL     1      -0.827  10.157  23.023  0.00  0.00    +0.000 C 
BRANCH  22  34
ATOM     28  C   UNL     1      -0.577  14.811  23.076  0.00  0.00    +0.000 C 
ATOM     29  C   UNL     1      -1.813  13.955  23.330  0.00  0.00    +0.000 A 
ATOM     30  C   UNL     1      -2.899  14.716  23.803  0.00  0.00    +0.000 A 
ATOM     31  C   UNL     1      -4.107  14.134  24.141  0.00  0.00    +0.000 A 
ATOM     32  C   UNL     1      -4.262  12.773  24.030  0.00  0.00    +0.000 A 
ATOM     33  C   UNL     1      -3.226  11.983  23.557  0.00  0.00    +0.000 A 
ATOM     34  C   UNL     1      -1.960  12.498  23.157  0.00  0.00    +0.000 A 
ENDBRANCH  22  34
ENDBRANCH  21  25
ENDBRANCH   1  21
TORSDOF 9
ENDMDL
MODEL 9
REMARK VINA RESULT:      -7.3      6.726      9.450
REMARK  Name = 
REMARK  13 active torsions:
REMARK  status: ('A' for Active; 'I' for Inactive)
REMARK    1  A    between atoms: C_1  and  C_2
REMARK    2  A    between atoms: C_7  and  N_8
REMARK    3  A    between atoms: N_11  and  C_12
REMARK    4  A    between atoms: C_12  and  C_13
REMARK    5  A    between atoms: C_13  and  O_14
REMARK    6  A    between atoms: C_13  and  C_15
REMARK    7  A    between atoms: C_18  and  O_19
REMARK    8  A    between atoms: C_20  and  C_21
REMARK    9  A    between atoms: N_23  and  C_24
REMARK   10  A    between atoms: C_24  and  C_25
REMARK   11  A    between atoms: C_25  and  C_26
REMARK   12  A    between atoms: C_25  and  C_27
REMARK   13  A    between atoms: C_25  and  C_28
REMARK                            x       y       z     vdW  Elec       q    Type
REMARK                         _______ _______ _______ _____ _____    ______ ____
ROOT
ATOM      1  C   UNL     1       0.959   9.075  21.054  0.00  0.00    +0.000 C 
ENDROOT
BRANCH   1   2
ATOM      2  C   UNL     1       0.432  10.236  20.197  0.00  0.00    +0.000 A 
ATOM      3  C   UNL     1       1.342  11.209  19.747  0.00  0.00    +0.000 A 
ATOM      4  C   UNL     1       0.928  12.220  18.880  0.00  0.00    +0.000 A 
ATOM      5  C   UNL     1      -0.393  12.258  18.372  0.00  0.00    +0.000 A 
ATOM      6  C   UNL     1      -1.336  11.263  18.774  0.00  0.00    +0.000 A 
ATOM      7  C   UNL     1      -0.894  10.308  19.733  0.00  0.00    +0.000 A 
BRANCH   6   8
ATOM      8  C   UNL     1      -2.767  11.065  18.232  0.00  0.00    +0.000 C 
ATOM      9  O   UNL     1      -3.057   9.930  17.880  0.00  0.00    +0.000 OA
ATOM     10  N   UNL     1      -3.717  12.053  18.054  0.00  0.00    +0.000 N 
ATOM     11  H   UNL     1      -3.511  13.008  18.365  0.00  0.00    +0.000 HD
BRANCH  10  12
ATOM     12  C   UNL     1      -5.057  11.787  17.455  0.00  0.00    +0.000 C 
BRANCH  12  13
ATOM     13  C   UNL     1      -6.296  11.888  18.434  0.00  0.00    +0.000 C 
ATOM     14  C   UNL     1      -5.895  12.546  19.767  0.00  0.00    +0.000 C 
ATOM     15  C   UNL     1      -7.446  12.755  17.839  0.00  0.00    +0.000 C 
ATOM     16  C   UNL     1      -6.895  10.489  18.678  0.00  0.00    +0.000 C 
ENDBRANCH  12  13
ENDBRANCH  10  12
ENDBRANCH   6   8
BRANCH   5  17
ATOM     17  O   UNL     1      -0.723  13.245  17.520  0.00  0.00    +0.000 OA
ATOM     18  H   UNL     1      -1.639  13.558  17.432  0.00  0.00    +0.000 HD
ENDBRANCH   5  17
ENDBRANCH   1   2
BRANCH   1  19
ATOM     19  O   UNL     1      -0.122   8.356  21.610  0.00  0.00    +0.000 OA
ATOM     20  H   UNL     1      -0.594   8.939  22.262  0.00  0.00    +0.000 HD
ENDBRANCH   1  19
BRANCH   1  21
ATOM     21  C   UNL     1       1.997   8.043  20.495  0.00  0.00    +0.000 C 
BRANCH  21  25
ATOM     22  N   UNL     1       3.948   6.157  17.931  0.00  0.00    +0.000 N 
ATOM     23  C   UNL     1       3.270   7.423  17.578  0.00  0.00    +0.000 C 
ATOM     24  C   UNL     1       1.789   7.464  18.019  0.00  0.00    +0.000 C 
ATOM     25  N   UNL     1       1.590   7.090  19.427  0.00  0.00    +0.000 NA
ATOM     26  C   UNL     1       2.190   5.759  19.644  0.00  0.00    +0.000 C 
ATOM     27  C   UNL     1       3.700   5.749  19.324  0.00  0.00    +0.000 C 
BRANCH  22  34
ATOM     28  C   UNL     1       6.922   7.503  17.558  0.00  0.00    +0.000 C 
ATOM     29  C   UNL     1       6.390   6.209  16.951  0.00  0.00    +0.000 A 
ATOM     30  C   UNL     1       7.352   5.564  16.150  0.00  0.00    +0.000 A 
ATOM     31  C   UNL     1       7.069   4.395  15.467  0.00  0.00    +0.000 A 
ATOM     32  C   UNL     1       5.812   3.844  15.551  0.00  0.00    +0.000 A 
ATOM     33  C   UNL     1       4.836   4.437  16.337  0.00  0.00    +0.000 A 
ATOM     34  C   UNL     1       5.046   5.621  17.099  0.00  0.00    +0.000 A 
ENDBRANCH  22  34
ENDBRANCH  21  25
ENDBRANCH   1  21
TORSDOF 9
ENDMDL
