MODEL 1
REMARK VINA RESULT:      -7.8      0.000      0.000
REMARK  Name = 
REMARK  4 active torsions:
REMARK  status: ('A' for Active; 'I' for Inactive)
REMARK    1  A    between atoms: C_1  and  C_2
REMARK    2  A    between atoms: C_4  and  C_5
REMARK    3  A    between atoms: C_15  and  C_16
REMARK    4  A    between atoms: N_17  and  C_18
REMARK                            x       y       z     vdW  Elec       q    Type
REMARK                         _______ _______ _______ _____ _____    ______ ____
ROOT
ATOM      1  C   UNL     1       4.569   6.417  16.635  0.00  0.00    +0.000 C 
ATOM      2  C   UNL     1       3.643   6.753  17.748  0.00  0.00    +0.000 A 
ATOM      3  C   UNL     1       3.140   8.019  18.072  0.00  0.00    +0.000 A 
ATOM      4  C   UNL     1       2.187   7.876  19.092  0.00  0.00    +0.000 A 
ATOM      5  C   UNL     1       2.211   6.531  19.471  0.00  0.00    +0.000 A 
ATOM      6  C   UNL     1       1.597   5.879  20.673  0.00  0.00    +0.000 C 
ATOM      7  N   UNL     1       3.029   5.815  18.577  0.00  0.00    +0.000 N 
ENDROOT
BRANCH   4   8
ATOM      8  C   UNL     1       1.253   8.875  19.766  0.00  0.00    +0.000 A 
ATOM      9  N   UNL     1       1.394   9.050  21.059  0.00  0.00    +0.000 NA
ATOM     10  N   UNL     1       0.621  10.074  21.455  0.00  0.00    +0.000 NA
ATOM     11  C   UNL     1      -0.035  10.518  20.411  0.00  0.00    +0.000 A 
ATOM     12  N   UNL     1       0.225   9.711  19.320  0.00  0.00    +0.000 N 
ATOM     13  C   UNL     1      -0.263   9.833  17.966  0.00  0.00    +0.000 C 
ATOM     14  C   UNL     1      -1.677  10.329  17.570  0.00  0.00    +0.000 C 
ATOM     15  C   UNL     1      -2.304  11.602  18.110  0.00  0.00    +0.000 C 
ATOM     16  C   UNL     1      -1.911  12.076  19.522  0.00  0.00    +0.000 C 
ATOM     17  C   UNL     1      -0.787  11.782  20.521  0.00  0.00    +0.000 C 
ENDBRANCH   4   8
BRANCH   7  18
ATOM     18  C   UNL     1       3.168   4.383  18.530  0.00  0.00    +0.000 A 
ATOM     19  C   UNL     1       2.359   3.578  17.717  0.00  0.00    +0.000 A 
ATOM     20  C   UNL     1       2.535   2.185  17.707  0.00  0.00    +0.000 A 
ATOM     21  C   UNL     1       3.518   1.647  18.524  0.00  0.00    +0.000 A 
ATOM     22  N   UNL     1       4.316   2.386  19.320  0.00  0.00    +0.000 NA
ATOM     23  C   UNL     1       4.114   3.732  19.316  0.00  0.00    +0.000 A 
ENDBRANCH   7  18
TORSDOF 2
ENDMDL
MODEL 2
REMARK VINA RESULT:      -7.7      1.556      7.677
REMARK  Name = 
REMARK  4 active torsions:
REMARK  status: ('A' for Active; 'I' for Inactive)
REMARK    1  A    between atoms: C_1  and  C_2
REMARK    2  A    between atoms: C_4  and  C_5
REMARK    3  A    between atoms: C_15  and  C_16
REMARK    4  A    between atoms: N_17  and  C_18
REMARK                            x       y       z     vdW  Elec       q    Type
REMARK                         _______ _______ _______ _____ _____    ______ ____
ROOT
ATOM      1  C   UNL     1       0.198   9.299  22.553  0.00  0.00    +0.000 C 
ATOM      2  C   UNL     1       0.874   8.894  21.294  0.00  0.00    +0.000 A 
ATOM      3  C   UNL     1       1.548   7.691  21.047  0.00  0.00    +0.000 A 
ATOM      4  C   UNL     1       1.909   7.647  19.692  0.00  0.00    +0.000 A 
ATOM      5  C   UNL     1       1.562   8.888  19.150  0.00  0.00    +0.000 A 
ATOM      6  C   UNL     1       1.950   9.480  17.829  0.00  0.00    +0.000 C 
ATOM      7  N   UNL     1       0.832   9.620  20.104  0.00  0.00    +0.000 N 
ENDROOT
BRANCH   4   8
ATOM      8  C   UNL     1       2.559   6.561  18.842  0.00  0.00    +0.000 A 
ATOM      9  N   UNL     1       3.466   6.943  17.973  0.00  0.00    +0.000 NA
ATOM     10  N   UNL     1       4.052   5.860  17.439  0.00  0.00    +0.000 NA
ATOM     11  C   UNL     1       3.483   4.795  17.948  0.00  0.00    +0.000 A 
ATOM     12  N   UNL     1       2.430   5.172  18.759  0.00  0.00    +0.000 N 
ATOM     13  C   UNL     1       1.539   4.340  19.534  0.00  0.00    +0.000 C 
ATOM     14  C   UNL     1       1.027   2.942  19.104  0.00  0.00    +0.000 C 
ATOM     15  C   UNL     1       1.932   1.831  18.603  0.00  0.00    +0.000 C 
ATOM     16  C   UNL     1       3.227   2.213  17.862  0.00  0.00    +0.000 C 
ATOM     17  C   UNL     1       4.086   3.471  17.701  0.00  0.00    +0.000 C 
ENDBRANCH   4   8
BRANCH   7  18
ATOM     18  C   UNL     1       0.154  10.868  19.864  0.00  0.00    +0.000 A 
ATOM     19  C   UNL     1      -1.132  10.927  19.312  0.00  0.00    +0.000 A 
ATOM     20  C   UNL     1      -1.750  12.170  19.099  0.00  0.00    +0.000 A 
ATOM     21  C   UNL     1      -1.048  13.315  19.444  0.00  0.00    +0.000 A 
ATOM     22  N   UNL     1       0.191  13.300  19.977  0.00  0.00    +0.000 NA
ATOM     23  C   UNL     1       0.768  12.081  20.161  0.00  0.00    +0.000 A 
ENDBRANCH   7  18
TORSDOF 2
ENDMDL
MODEL 3
REMARK VINA RESULT:      -7.6      1.536      2.334
REMARK  Name = 
REMARK  4 active torsions:
REMARK  status: ('A' for Active; 'I' for Inactive)
REMARK    1  A    between atoms: C_1  and  C_2
REMARK    2  A    between atoms: C_4  and  C_5
REMARK    3  A    between atoms: C_15  and  C_16
REMARK    4  A    between atoms: N_17  and  C_18
REMARK                            x       y       z     vdW  Elec       q    Type
REMARK                         _______ _______ _______ _____ _____    ______ ____
ROOT
ATOM      1  C   UNL     1       2.525   3.726  20.485  0.00  0.00    +0.000 C 
ATOM      2  C   UNL     1       2.325   5.153  20.127  0.00  0.00    +0.000 A 
ATOM      3  C   UNL     1       1.498   6.078  20.779  0.00  0.00    +0.000 A 
ATOM      4  C   UNL     1       1.713   7.346  20.218  0.00  0.00    +0.000 A 
ATOM      5  C   UNL     1       2.579   7.159  19.137  0.00  0.00    +0.000 A 
ATOM      6  C   UNL     1       2.935   8.115  18.038  0.00  0.00    +0.000 C 
ATOM      7  N   UNL     1       3.041   5.830  19.141  0.00  0.00    +0.000 N 
ENDROOT
BRANCH   4   8
ATOM      8  C   UNL     1       1.181   8.728  20.581  0.00  0.00    +0.000 A 
ATOM      9  N   UNL     1       1.442   9.172  21.789  0.00  0.00    +0.000 NA
ATOM     10  N   UNL     1       1.055  10.455  21.883  0.00  0.00    +0.000 NA
ATOM     11  C   UNL     1       0.515  10.802  20.741  0.00  0.00    +0.000 A 
ATOM     12  N   UNL     1       0.446   9.705  19.904  0.00  0.00    +0.000 N 
ATOM     13  C   UNL     1      -0.053   9.627  18.551  0.00  0.00    +0.000 C 
ATOM     14  C   UNL     1      -1.258  10.430  17.999  0.00  0.00    +0.000 C 
ATOM     15  C   UNL     1      -1.420  11.930  18.172  0.00  0.00    +0.000 C 
ATOM     16  C   UNL     1      -0.820  12.597  19.423  0.00  0.00    +0.000 C 
ATOM     17  C   UNL     1       0.207  12.225  20.496  0.00  0.00    +0.000 C 
ENDBRANCH   4   8
BRANCH   7  18
ATOM     18  C   UNL     1       4.078   5.300  18.294  0.00  0.00    +0.000 A 
ATOM     19  C   UNL     1       3.797   4.625  17.099  0.00  0.00    +0.000 A 
ATOM     20  C   UNL     1       4.844   4.128  16.307  0.00  0.00    +0.000 A 
ATOM     21  C   UNL     1       6.144   4.321  16.751  0.00  0.00    +0.000 A 
ATOM     22  N   UNL     1       6.456   4.964  17.894  0.00  0.00    +0.000 NA
ATOM     23  C   UNL     1       5.419   5.425  18.645  0.00  0.00    +0.000 A 
ENDBRANCH   7  18
TORSDOF 2
ENDMDL
MODEL 4
REMARK VINA RESULT:      -7.6      1.562      7.727
REMARK  Name = 
REMARK  4 active torsions:
REMARK  status: ('A' for Active; 'I' for Inactive)
REMARK    1  A    between atoms: C_1  and  C_2
REMARK    2  A    between atoms: C_4  and  C_5
REMARK    3  A    between atoms: C_15  and  C_16
REMARK    4  A    between atoms: N_17  and  C_18
REMARK                            x       y       z     vdW  Elec       q    Type
REMARK                         _______ _______ _______ _____ _____    ______ ____
ROOT
ATOM      1  C   UNL     1       0.229   9.327  22.576  0.00  0.00    +0.000 C 
ATOM      2  C   UNL     1       0.890   8.917  21.310  0.00  0.00    +0.000 A 
ATOM      3  C   UNL     1       1.552   7.708  21.058  0.00  0.00    +0.000 A 
ATOM      4  C   UNL     1       1.900   7.661  19.699  0.00  0.00    +0.000 A 
ATOM      5  C   UNL     1       1.558   8.905  19.160  0.00  0.00    +0.000 A 
ATOM      6  C   UNL     1       1.939   9.494  17.835  0.00  0.00    +0.000 C 
ATOM      7  N   UNL     1       0.843   9.643  20.121  0.00  0.00    +0.000 N 
ENDROOT
BRANCH   4   8
ATOM      8  C   UNL     1       2.533   6.570  18.844  0.00  0.00    +0.000 A 
ATOM      9  N   UNL     1       3.430   6.945  17.961  0.00  0.00    +0.000 NA
ATOM     10  N   UNL     1       4.004   5.858  17.422  0.00  0.00    +0.000 NA
ATOM     11  C   UNL     1       3.437   4.797  17.942  0.00  0.00    +0.000 A 
ATOM     12  N   UNL     1       2.397   5.181  18.766  0.00  0.00    +0.000 N 
ATOM     13  C   UNL     1       1.513   4.356  19.556  0.00  0.00    +0.000 C 
ATOM     14  C   UNL     1       0.989   2.958  19.137  0.00  0.00    +0.000 C 
ATOM     15  C   UNL     1       1.882   1.842  18.627  0.00  0.00    +0.000 C 
ATOM     16  C   UNL     1       3.168   2.216  17.867  0.00  0.00    +0.000 C 
ATOM     17  C   UNL     1       4.030   3.470  17.690  0.00  0.00    +0.000 C 
ENDBRANCH   4   8
BRANCH   7  18
ATOM     18  C   UNL     1       0.173  10.896  19.887  0.00  0.00    +0.000 A 
ATOM     19  C   UNL     1       0.766  12.129  20.185  0.00  0.00    +0.000 A 
ATOM     20  C   UNL     1       0.071  13.324  19.937  0.00  0.00    +0.000 A 
ATOM     21  C   UNL     1      -1.206  13.235  19.403  0.00  0.00    +0.000 A 
ATOM     22  N   UNL     1      -1.812  12.069  19.104  0.00  0.00    +0.000 NA
ATOM     23  C   UNL     1      -1.117  10.928  19.365  0.00  0.00    +0.000 A 
ENDBRANCH   7  18
TORSDOF 2
ENDMDL
MODEL 5
REMARK VINA RESULT:      -7.6      1.726      7.629
REMARK  Name = 
REMARK  4 active torsions:
REMARK  status: ('A' for Active; 'I' for Inactive)
REMARK    1  A    between atoms: C_1  and  C_2
REMARK    2  A    between atoms: C_4  and  C_5
REMARK    3  A    between atoms: C_15  and  C_16
REMARK    4  A    between atoms: N_17  and  C_18
REMARK                            x       y       z     vdW  Elec       q    Type
REMARK                         _______ _______ _______ _____ _____    ______ ____
ROOT
ATOM      1  C   UNL     1       0.475   9.179  22.172  0.00  0.00    +0.000 C 
ATOM      2  C   UNL     1       1.150   8.632  20.967  0.00  0.00    +0.000 A 
ATOM      3  C   UNL     1       1.806   7.399  20.855  0.00  0.00    +0.000 A 
ATOM      4  C   UNL     1       2.172   7.205  19.514  0.00  0.00    +0.000 A 
ATOM      5  C   UNL     1       1.847   8.386  18.840  0.00  0.00    +0.000 A 
ATOM      6  C   UNL     1       2.249   8.827  17.466  0.00  0.00    +0.000 C 
ATOM      7  N   UNL     1       1.123   9.227  19.706  0.00  0.00    +0.000 N 
ENDROOT
BRANCH   4   8
ATOM      8  C   UNL     1       2.809   6.025  18.789  0.00  0.00    +0.000 A 
ATOM      9  N   UNL     1       2.146   4.892  18.790  0.00  0.00    +0.000 NA
ATOM     10  N   UNL     1       2.757   4.019  17.973  0.00  0.00    +0.000 NA
ATOM     11  C   UNL     1       3.829   4.597  17.488  0.00  0.00    +0.000 A 
ATOM     12  N   UNL     1       3.993   5.839  18.070  0.00  0.00    +0.000 N 
ATOM     13  C   UNL     1       5.018   6.827  17.825  0.00  0.00    +0.000 C 
ATOM     14  C   UNL     1       6.502   6.510  17.505  0.00  0.00    +0.000 C 
ATOM     15  C   UNL     1       6.940   5.517  16.445  0.00  0.00    +0.000 C 
ATOM     16  C   UNL     1       6.025   4.319  16.132  0.00  0.00    +0.000 C 
ATOM     17  C   UNL     1       4.563   3.939  16.390  0.00  0.00    +0.000 C 
ENDBRANCH   4   8
BRANCH   7  18
ATOM     18  C   UNL     1       0.466  10.451  19.331  0.00  0.00    +0.000 A 
ATOM     19  C   UNL     1      -0.852  10.479  18.858  0.00  0.00    +0.000 A 
ATOM     20  C   UNL     1      -1.449  11.701  18.506  0.00  0.00    +0.000 A 
ATOM     21  C   UNL     1      -0.693  12.856  18.636  0.00  0.00    +0.000 A 
ATOM     22  N   UNL     1       0.578  12.871  19.086  0.00  0.00    +0.000 NA
ATOM     23  C   UNL     1       1.132  11.671  19.409  0.00  0.00    +0.000 A 
ENDBRANCH   7  18
TORSDOF 2
ENDMDL
MODEL 6
REMARK VINA RESULT:      -7.6      0.583      1.001
REMARK  Name = 
REMARK  4 active torsions:
REMARK  status: ('A' for Active; 'I' for Inactive)
REMARK    1  A    between atoms: C_1  and  C_2
REMARK    2  A    between atoms: C_4  and  C_5
REMARK    3  A    between atoms: C_15  and  C_16
REMARK    4  A    between atoms: N_17  and  C_18
REMARK                            x       y       z     vdW  Elec       q    Type
REMARK                         _______ _______ _______ _____ _____    ______ ____
ROOT
ATOM      1  C   UNL     1       4.591   6.364  16.633  0.00  0.00    +0.000 C 
ATOM      2  C   UNL     1       3.670   6.703  17.749  0.00  0.00    +0.000 A 
ATOM      3  C   UNL     1       3.151   7.966  18.059  0.00  0.00    +0.000 A 
ATOM      4  C   UNL     1       2.209   7.824  19.090  0.00  0.00    +0.000 A 
ATOM      5  C   UNL     1       2.257   6.486  19.488  0.00  0.00    +0.000 A 
ATOM      6  C   UNL     1       1.664   5.843  20.706  0.00  0.00    +0.000 C 
ATOM      7  N   UNL     1       3.078   5.769  18.598  0.00  0.00    +0.000 N 
ENDROOT
BRANCH   4   8
ATOM      8  C   UNL     1       1.266   8.820  19.756  0.00  0.00    +0.000 A 
ATOM      9  N   UNL     1       1.387   8.984  21.054  0.00  0.00    +0.000 NA
ATOM     10  N   UNL     1       0.610  10.006  21.445  0.00  0.00    +0.000 NA
ATOM     11  C   UNL     1      -0.029  10.459  20.395  0.00  0.00    +0.000 A 
ATOM     12  N   UNL     1       0.247   9.661  19.301  0.00  0.00    +0.000 N 
ATOM     13  C   UNL     1      -0.220   9.794  17.941  0.00  0.00    +0.000 C 
ATOM     14  C   UNL     1      -1.627  10.296  17.527  0.00  0.00    +0.000 C 
ATOM     15  C   UNL     1      -2.260  11.565  18.067  0.00  0.00    +0.000 C 
ATOM     16  C   UNL     1      -1.889  12.027  19.488  0.00  0.00    +0.000 C 
ATOM     17  C   UNL     1      -0.781  11.724  20.503  0.00  0.00    +0.000 C 
ENDBRANCH   4   8
BRANCH   7  18
ATOM     18  C   UNL     1       3.238   4.338  18.572  0.00  0.00    +0.000 A 
ATOM     19  C   UNL     1       4.185   3.676  19.362  0.00  0.00    +0.000 A 
ATOM     20  C   UNL     1       4.300   2.278  19.301  0.00  0.00    +0.000 A 
ATOM     21  C   UNL     1       3.459   1.592  18.437  0.00  0.00    +0.000 A 
ATOM     22  N   UNL     1       2.536   2.192  17.660  0.00  0.00    +0.000 NA
ATOM     23  C   UNL     1       2.455   3.549  17.734  0.00  0.00    +0.000 A 
ENDBRANCH   7  18
TORSDOF 2
ENDMDL
MODEL 7
REMARK VINA RESULT:      -7.5      1.226      2.268
REMARK  Name = 
REMARK  4 active torsions:
REMARK  status: ('A' for Active; 'I' for Inactive)
REMARK    1  A    between atoms: C_1  and  C_2
REMARK    2  A    between atoms: C_4  and  C_5
REMARK    3  A    between atoms: C_15  and  C_16
REMARK    4  A    between atoms: N_17  and  C_18
REMARK                            x       y       z     vdW  Elec       q    Type
REMARK                         _______ _______ _______ _____ _____    ______ ____
ROOT
ATOM      1  C   UNL     1       5.168   5.863  16.452  0.00  0.00    +0.000 C 
ATOM      2  C   UNL     1       4.138   6.376  17.391  0.00  0.00    +0.000 A 
ATOM      3  C   UNL     1       3.684   7.697  17.505  0.00  0.00    +0.000 A 
ATOM      4  C   UNL     1       2.606   7.725  18.402  0.00  0.00    +0.000 A 
ATOM      5  C   UNL     1       2.494   6.435  18.928  0.00  0.00    +0.000 A 
ATOM      6  C   UNL     1       1.695   5.964  20.105  0.00  0.00    +0.000 C 
ATOM      7  N   UNL     1       3.366   5.577  18.233  0.00  0.00    +0.000 N 
ENDROOT
BRANCH   4   8
ATOM      8  C   UNL     1       1.665   8.845  18.834  0.00  0.00    +0.000 A 
ATOM      9  N   UNL     1       1.264   9.682  17.905  0.00  0.00    +0.000 NA
ATOM     10  N   UNL     1       0.319  10.489  18.414  0.00  0.00    +0.000 NA
ATOM     11  C   UNL     1       0.155  10.179  19.676  0.00  0.00    +0.000 A 
ATOM     12  N   UNL     1       1.078   9.220  20.045  0.00  0.00    +0.000 N 
ATOM     13  C   UNL     1       1.252   8.574  21.325  0.00  0.00    +0.000 C 
ATOM     14  C   UNL     1       1.046   9.256  22.702  0.00  0.00    +0.000 C 
ATOM     15  C   UNL     1      -0.187  10.064  23.065  0.00  0.00    +0.000 C 
ATOM     16  C   UNL     1      -0.936  10.809  21.946  0.00  0.00    +0.000 C 
ATOM     17  C   UNL     1      -0.982  10.762  20.416  0.00  0.00    +0.000 C 
ENDBRANCH   4   8
BRANCH   7  18
ATOM     18  C   UNL     1       3.413   4.144  18.364  0.00  0.00    +0.000 A 
ATOM     19  C   UNL     1       2.629   3.293  17.575  0.00  0.00    +0.000 A 
ATOM     20  C   UNL     1       2.713   1.901  17.741  0.00  0.00    +0.000 A 
ATOM     21  C   UNL     1       3.582   1.412  18.705  0.00  0.00    +0.000 A 
ATOM     22  N   UNL     1       4.353   2.197  19.485  0.00  0.00    +0.000 NA
ATOM     23  C   UNL     1       4.241   3.541  19.307  0.00  0.00    +0.000 A 
ENDBRANCH   7  18
TORSDOF 2
ENDMDL
MODEL 8
REMARK VINA RESULT:      -7.5      1.743      7.690
REMARK  Name = 
REMARK  4 active torsions:
REMARK  status: ('A' for Active; 'I' for Inactive)
REMARK    1  A    between atoms: C_1  and  C_2
REMARK    2  A    between atoms: C_4  and  C_5
REMARK    3  A    between atoms: C_15  and  C_16
REMARK    4  A    between atoms: N_17  and  C_18
REMARK                            x       y       z     vdW  Elec       q    Type
REMARK                         _______ _______ _______ _____ _____    ______ ____
ROOT
ATOM      1  C   UNL     1       0.474   9.088  22.175  0.00  0.00    +0.000 C 
ATOM      2  C   UNL     1       1.157   8.573  20.960  0.00  0.00    +0.000 A 
ATOM      3  C   UNL     1       1.812   7.342  20.820  0.00  0.00    +0.000 A 
ATOM      4  C   UNL     1       2.187   7.184  19.477  0.00  0.00    +0.000 A 
ATOM      5  C   UNL     1       1.869   8.382  18.833  0.00  0.00    +0.000 A 
ATOM      6  C   UNL     1       2.283   8.860  17.473  0.00  0.00    +0.000 C 
ATOM      7  N   UNL     1       1.141   9.201  19.716  0.00  0.00    +0.000 N 
ENDROOT
BRANCH   4   8
ATOM      8  C   UNL     1       2.828   6.022  18.725  0.00  0.00    +0.000 A 
ATOM      9  N   UNL     1       2.144   4.903  18.655  0.00  0.00    +0.000 NA
ATOM     10  N   UNL     1       2.768   4.053  17.823  0.00  0.00    +0.000 NA
ATOM     11  C   UNL     1       3.866   4.629  17.401  0.00  0.00    +0.000 A 
ATOM     12  N   UNL     1       4.033   5.843  18.040  0.00  0.00    +0.000 N 
ATOM     13  C   UNL     1       5.084   6.818  17.873  0.00  0.00    +0.000 C 
ATOM     14  C   UNL     1       6.572   6.485  17.592  0.00  0.00    +0.000 C 
ATOM     15  C   UNL     1       7.030   5.529  16.506  0.00  0.00    +0.000 C 
ATOM     16  C   UNL     1       6.104   4.363  16.112  0.00  0.00    +0.000 C 
ATOM     17  C   UNL     1       4.627   4.003  16.302  0.00  0.00    +0.000 C 
ENDBRANCH   4   8
BRANCH   7  18
ATOM     18  C   UNL     1       0.489  10.437  19.369  0.00  0.00    +0.000 A 
ATOM     19  C   UNL     1       1.105  11.683  19.538  0.00  0.00    +0.000 A 
ATOM     20  C   UNL     1       0.426  12.859  19.182  0.00  0.00    +0.000 A 
ATOM     21  C   UNL     1      -0.859  12.741  18.674  0.00  0.00    +0.000 A 
ATOM     22  N   UNL     1      -1.487  11.562  18.497  0.00  0.00    +0.000 NA
ATOM     23  C   UNL     1      -0.807  10.440  18.860  0.00  0.00    +0.000 A 
ENDBRANCH   7  18
TORSDOF 2
ENDMDL
MODEL 9
REMARK VINA RESULT:      -7.4      1.519      2.510
REMARK  Name = 
REMARK  4 active torsions:
REMARK  status: ('A' for Active; 'I' for Inactive)
REMARK    1  A    between atoms: C_1  and  C_2
REMARK    2  A    between atoms: C_4  and  C_5
REMARK    3  A    between atoms: C_15  and  C_16
REMARK    4  A    between atoms: N_17  and  C_18
REMARK                            x       y       z     vdW  Elec       q    Type
REMARK                         _______ _______ _______ _____ _____    ______ ____
ROOT
ATOM      1  C   UNL     1       2.500   3.816  20.588  0.00  0.00    +0.000 C 
ATOM      2  C   UNL     1       2.298   5.234  20.193  0.00  0.00    +0.000 A 
ATOM      3  C   UNL     1       1.465   6.172  20.816  0.00  0.00    +0.000 A 
ATOM      4  C   UNL     1       1.680   7.427  20.225  0.00  0.00    +0.000 A 
ATOM      5  C   UNL     1       2.553   7.216  19.155  0.00  0.00    +0.000 A 
ATOM      6  C   UNL     1       2.913   8.145  18.035  0.00  0.00    +0.000 C 
ATOM      7  N   UNL     1       3.018   5.888  19.195  0.00  0.00    +0.000 N 
ENDROOT
BRANCH   4   8
ATOM      8  C   UNL     1       1.141   8.816  20.551  0.00  0.00    +0.000 A 
ATOM      9  N   UNL     1       1.416   9.302  21.739  0.00  0.00    +0.000 NA
ATOM     10  N   UNL     1       1.020  10.583  21.797  0.00  0.00    +0.000 NA
ATOM     11  C   UNL     1       0.461  10.889  20.652  0.00  0.00    +0.000 A 
ATOM     12  N   UNL     1       0.389   9.764  19.853  0.00  0.00    +0.000 N 
ATOM     13  C   UNL     1      -0.130   9.637  18.511  0.00  0.00    +0.000 C 
ATOM     14  C   UNL     1      -1.349  10.413  17.950  0.00  0.00    +0.000 C 
ATOM     15  C   UNL     1      -1.521  11.916  18.076  0.00  0.00    +0.000 C 
ATOM     16  C   UNL     1      -0.909  12.628  19.296  0.00  0.00    +0.000 C 
ATOM     17  C   UNL     1       0.138  12.300  20.366  0.00  0.00    +0.000 C 
ENDBRANCH   4   8
BRANCH   7  18
ATOM     18  C   UNL     1       4.062   5.340  18.367  0.00  0.00    +0.000 A 
ATOM     19  C   UNL     1       5.419   5.477  18.685  0.00  0.00    +0.000 A 
ATOM     20  C   UNL     1       6.399   4.922  17.846  0.00  0.00    +0.000 A 
ATOM     21  C   UNL     1       5.977   4.253  16.707  0.00  0.00    +0.000 A 
ATOM     22  N   UNL     1       4.682   4.101  16.365  0.00  0.00    +0.000 NA
ATOM     23  C   UNL     1       3.757   4.658  17.193  0.00  0.00    +0.000 A 
ENDBRANCH   7  18
TORSDOF 2
ENDMDL
