MODEL 1
REMARK VINA RESULT:      -8.2      0.000      0.000
REMARK  Name = 
REMARK  12 active torsions:
REMARK  status: ('A' for Active; 'I' for Inactive)
REMARK    1  A    between atoms: N_3  and  C_4
REMARK    2  A    between atoms: C_4  and  C_5
REMARK    3  A    between atoms: N_17  and  C_18
REMARK    4  A    between atoms: C_18  and  C_19
REMARK    5  A    between atoms: C_19  and  C_20
REMARK    6  A    between atoms: C_20  and  C_21
REMARK    7  A    between atoms: C_21  and  C_22
REMARK    8  A    between atoms: C_22  and  C_23
REMARK    9  A    between atoms: C_23  and  C_24
REMARK   10  A    between atoms: C_24  and  C_25
REMARK   11  A    between atoms: C_25  and  N_26
REMARK   12  A    between atoms: N_29  and  C_30
REMARK                            x       y       z     vdW  Elec       q    Type
REMARK                         _______ _______ _______ _____ _____    ______ ____
ROOT
ATOM      1  C   UNL     1       6.719   6.024  16.787  0.00  0.00    +0.000 C 
ENDROOT
BRANCH   1  11
ATOM      2  N   UNL     1       5.646   3.284  16.455  0.00  0.00    +0.000 N 
ATOM      3  C   UNL     1       4.929   4.304  16.915  0.00  0.00    +0.000 A 
ATOM      4  N   UNL     1       3.671   4.223  17.330  0.00  0.00    +0.000 N 
ATOM      5  C   UNL     1       3.199   5.506  17.594  0.00  0.00    +0.000 A 
ATOM      6  C   UNL     1       1.942   5.968  17.975  0.00  0.00    +0.000 A 
ATOM      7  C   UNL     1       1.822   7.353  18.145  0.00  0.00    +0.000 A 
ATOM      8  C   UNL     1       2.912   8.222  17.943  0.00  0.00    +0.000 A 
ATOM      9  C   UNL     1       4.174   7.745  17.560  0.00  0.00    +0.000 A 
ATOM     10  C   UNL     1       4.281   6.367  17.388  0.00  0.00    +0.000 A 
ATOM     11  N   UNL     1       5.352   5.559  17.011  0.00  0.00    +0.000 N 
ATOM     12  H   UNL     1       5.219   2.387  16.279  0.00  0.00    +0.000 HD
ATOM     13  H   UNL     1       6.603   3.412  16.170  0.00  0.00    +0.000 HD
BRANCH   4  14
ATOM     14  C   UNL     1       2.910   2.996  17.517  0.00  0.00    +0.000 C 
BRANCH  14  15
ATOM     15  C   UNL     1       2.414   2.852  18.934  0.00  0.00    +0.000 A 
ATOM     16  C   UNL     1       1.059   2.932  19.293  0.00  0.00    +0.000 A 
ATOM     17  C   UNL     1       0.668   2.880  20.631  0.00  0.00    +0.000 A 
ATOM     18  C   UNL     1       1.624   2.726  21.631  0.00  0.00    +0.000 A 
ATOM     19  C   UNL     1       2.968   2.598  21.293  0.00  0.00    +0.000 A 
ATOM     20  C   UNL     1       3.361   2.656  19.954  0.00  0.00    +0.000 A 
ENDBRANCH  14  15
ENDBRANCH   4  14
ENDBRANCH   1  11
BRANCH   1  21
ATOM     21  C   UNL     1       7.578   5.871  18.034  0.00  0.00    +0.000 C 
BRANCH  21  22
ATOM     22  C   UNL     1       8.179   7.201  18.507  0.00  0.00    +0.000 C 
BRANCH  22  23
ATOM     23  C   UNL     1       7.607   8.443  17.818  0.00  0.00    +0.000 C 
BRANCH  23  24
ATOM     24  C   UNL     1       8.604   9.598  17.781  0.00  0.00    +0.000 C 
BRANCH  24  25
ATOM     25  C   UNL     1       9.111   9.936  19.177  0.00  0.00    +0.000 C 
BRANCH  25  26
ATOM     26  C   UNL     1      10.113  11.084  19.109  0.00  0.00    +0.000 C 
BRANCH  26  27
ATOM     27  C   UNL     1      10.113  11.871  20.419  0.00  0.00    +0.000 C 
BRANCH  27  28
ATOM     28  N   UNL     1       9.355  13.106  20.277  0.00  0.00    +0.000 NA
ATOM     29  C   UNL     1       8.164  13.202  21.153  0.00  0.00    +0.000 C 
ATOM     30  C   UNL     1       7.458  14.578  21.016  0.00  0.00    +0.000 C 
ATOM     31  N   UNL     1       7.156  14.838  19.603  0.00  0.00    +0.000 N 
ATOM     32  C   UNL     1       8.303  14.696  18.694  0.00  0.00    +0.000 C 
ATOM     33  C   UNL     1       8.917  13.295  18.874  0.00  0.00    +0.000 C 
BRANCH  31  34
ATOM     34  C   UNL     1       5.975  15.411  19.187  0.00  0.00    +0.000 A 
ATOM     35  C   UNL     1       5.345  16.437  19.902  0.00  0.00    +0.000 A 
ATOM     36  C   UNL     1       4.112  16.964  19.501  0.00  0.00    +0.000 A 
ATOM     37  C   UNL     1       3.479  16.468  18.366  0.00  0.00    +0.000 A 
ATOM     38  C   UNL     1       4.085  15.459  17.630  0.00  0.00    +0.000 A 
ATOM     39  C   UNL     1       5.317  14.942  18.039  0.00  0.00    +0.000 A 
ENDBRANCH  31  34
ENDBRANCH  27  28
ENDBRANCH  26  27
ENDBRANCH  25  26
ENDBRANCH  24  25
ENDBRANCH  23  24
ENDBRANCH  22  23
ENDBRANCH  21  22
ENDBRANCH   1  21
TORSDOF 12
ENDMDL
MODEL 2
REMARK VINA RESULT:      -7.7      3.264     10.114
REMARK  Name = 
REMARK  12 active torsions:
REMARK  status: ('A' for Active; 'I' for Inactive)
REMARK    1  A    between atoms: N_3  and  C_4
REMARK    2  A    between atoms: C_4  and  C_5
REMARK    3  A    between atoms: N_17  and  C_18
REMARK    4  A    between atoms: C_18  and  C_19
REMARK    5  A    between atoms: C_19  and  C_20
REMARK    6  A    between atoms: C_20  and  C_21
REMARK    7  A    between atoms: C_21  and  C_22
REMARK    8  A    between atoms: C_22  and  C_23
REMARK    9  A    between atoms: C_23  and  C_24
REMARK   10  A    between atoms: C_24  and  C_25
REMARK   11  A    between atoms: C_25  and  N_26
REMARK   12  A    between atoms: N_29  and  C_30
REMARK                            x       y       z     vdW  Elec       q    Type
REMARK                         _______ _______ _______ _____ _____    ______ ____
ROOT
ATOM      1  C   UNL     1       1.495   9.127  17.733  0.00  0.00    +0.000 C 
ENDROOT
BRANCH   1  11
ATOM      2  N   UNL     1       2.486  11.905  17.462  0.00  0.00    +0.000 N 
ATOM      3  C   UNL     1       1.750  11.483  18.485  0.00  0.00    +0.000 A 
ATOM      4  N   UNL     1       1.323  12.250  19.481  0.00  0.00    +0.000 N 
ATOM      5  C   UNL     1       0.718  11.445  20.443  0.00  0.00    +0.000 A 
ATOM      6  C   UNL     1       0.182  11.742  21.693  0.00  0.00    +0.000 A 
ATOM      7  C   UNL     1      -0.346  10.660  22.408  0.00  0.00    +0.000 A 
ATOM      8  C   UNL     1      -0.336   9.352  21.887  0.00  0.00    +0.000 A 
ATOM      9  C   UNL     1       0.205   9.064  20.627  0.00  0.00    +0.000 A 
ATOM     10  C   UNL     1       0.734  10.146  19.926  0.00  0.00    +0.000 A 
ATOM     11  N   UNL     1       1.347  10.233  18.678  0.00  0.00    +0.000 N 
ATOM     12  H   UNL     1       2.873  12.837  17.450  0.00  0.00    +0.000 HD
ATOM     13  H   UNL     1       2.764  11.272  16.730  0.00  0.00    +0.000 HD
BRANCH   4  14
ATOM     14  C   UNL     1       1.433  13.700  19.551  0.00  0.00    +0.000 C 
BRANCH  14  15
ATOM     15  C   UNL     1       2.801  14.140  20.007  0.00  0.00    +0.000 A 
ATOM     16  C   UNL     1       3.304  13.896  21.295  0.00  0.00    +0.000 A 
ATOM     17  C   UNL     1       4.543  14.404  21.687  0.00  0.00    +0.000 A 
ATOM     18  C   UNL     1       5.308  15.146  20.792  0.00  0.00    +0.000 A 
ATOM     19  C   UNL     1       4.847  15.358  19.496  0.00  0.00    +0.000 A 
ATOM     20  C   UNL     1       3.606  14.855  19.104  0.00  0.00    +0.000 A 
ENDBRANCH  14  15
ENDBRANCH   4  14
ENDBRANCH   1  11
BRANCH   1  21
ATOM     21  C   UNL     1       2.707   8.265  18.060  0.00  0.00    +0.000 C 
BRANCH  21  22
ATOM     22  C   UNL     1       2.327   6.824  18.422  0.00  0.00    +0.000 C 
BRANCH  22  23
ATOM     23  C   UNL     1       2.595   6.436  19.879  0.00  0.00    +0.000 C 
BRANCH  23  24
ATOM     24  C   UNL     1       1.579   5.426  20.407  0.00  0.00    +0.000 C 
BRANCH  24  25
ATOM     25  C   UNL     1       2.210   4.488  21.427  0.00  0.00    +0.000 C 
BRANCH  25  26
ATOM     26  C   UNL     1       2.027   3.038  20.990  0.00  0.00    +0.000 C 
BRANCH  26  27
ATOM     27  C   UNL     1       3.281   2.531  20.280  0.00  0.00    +0.000 C 
BRANCH  27  28
ATOM     28  N   UNL     1       3.610   3.385  19.148  0.00  0.00    +0.000 NA
ATOM     29  C   UNL     1       3.153   2.872  17.836  0.00  0.00    +0.000 C 
ATOM     30  C   UNL     1       3.456   3.872  16.687  0.00  0.00    +0.000 C 
ATOM     31  N   UNL     1       4.881   4.223  16.704  0.00  0.00    +0.000 N 
ATOM     32  C   UNL     1       5.385   4.683  18.006  0.00  0.00    +0.000 C 
ATOM     33  C   UNL     1       5.072   3.617  19.072  0.00  0.00    +0.000 C 
BRANCH  31  34
ATOM     34  C   UNL     1       5.629   4.356  15.555  0.00  0.00    +0.000 A 
ATOM     35  C   UNL     1       5.331   3.655  14.380  0.00  0.00    +0.000 A 
ATOM     36  C   UNL     1       6.138   3.753  13.240  0.00  0.00    +0.000 A 
ATOM     37  C   UNL     1       7.270   4.561  13.256  0.00  0.00    +0.000 A 
ATOM     38  C   UNL     1       7.584   5.278  14.402  0.00  0.00    +0.000 A 
ATOM     39  C   UNL     1       6.769   5.175  15.534  0.00  0.00    +0.000 A 
ENDBRANCH  31  34
ENDBRANCH  27  28
ENDBRANCH  26  27
ENDBRANCH  25  26
ENDBRANCH  24  25
ENDBRANCH  23  24
ENDBRANCH  22  23
ENDBRANCH  21  22
ENDBRANCH   1  21
TORSDOF 12
ENDMDL
MODEL 3
REMARK VINA RESULT:      -7.7      0.818      1.012
REMARK  Name = 
REMARK  12 active torsions:
REMARK  status: ('A' for Active; 'I' for Inactive)
REMARK    1  A    between atoms: N_3  and  C_4
REMARK    2  A    between atoms: C_4  and  C_5
REMARK    3  A    between atoms: N_17  and  C_18
REMARK    4  A    between atoms: C_18  and  C_19
REMARK    5  A    between atoms: C_19  and  C_20
REMARK    6  A    between atoms: C_20  and  C_21
REMARK    7  A    between atoms: C_21  and  C_22
REMARK    8  A    between atoms: C_22  and  C_23
REMARK    9  A    between atoms: C_23  and  C_24
REMARK   10  A    between atoms: C_24  and  C_25
REMARK   11  A    between atoms: C_25  and  N_26
REMARK   12  A    between atoms: N_29  and  C_30
REMARK                            x       y       z     vdW  Elec       q    Type
REMARK                         _______ _______ _______ _____ _____    ______ ____
ROOT
ATOM      1  C   UNL     1       6.874   6.465  16.864  0.00  0.00    +0.000 C 
ENDROOT
BRANCH   1  11
ATOM      2  N   UNL     1       6.218   3.595  16.535  0.00  0.00    +0.000 N 
ATOM      3  C   UNL     1       5.355   4.500  16.986  0.00  0.00    +0.000 A 
ATOM      4  N   UNL     1       4.119   4.236  17.391  0.00  0.00    +0.000 N 
ATOM      5  C   UNL     1       3.461   5.436  17.646  0.00  0.00    +0.000 A 
ATOM      6  C   UNL     1       2.147   5.710  18.016  0.00  0.00    +0.000 A 
ATOM      7  C   UNL     1       1.823   7.063  18.179  0.00  0.00    +0.000 A 
ATOM      8  C   UNL     1       2.775   8.081  17.983  0.00  0.00    +0.000 A 
ATOM      9  C   UNL     1       4.096   7.794  17.611  0.00  0.00    +0.000 A 
ATOM     10  C   UNL     1       4.406   6.446  17.445  0.00  0.00    +0.000 A 
ATOM     11  N   UNL     1       5.587   5.804  17.080  0.00  0.00    +0.000 N 
ATOM     12  H   UNL     1       5.929   2.645  16.359  0.00  0.00    +0.000 HD
ATOM     13  H   UNL     1       7.148   3.862  16.257  0.00  0.00    +0.000 HD
BRANCH   4  14
ATOM     14  C   UNL     1       3.545   2.911  17.577  0.00  0.00    +0.000 C 
BRANCH  14  15
ATOM     15  C   UNL     1       2.747   2.818  18.853  0.00  0.00    +0.000 A 
ATOM     16  C   UNL     1       1.346   2.731  18.886  0.00  0.00    +0.000 A 
ATOM     17  C   UNL     1       0.657   2.737  20.099  0.00  0.00    +0.000 A 
ATOM     18  C   UNL     1       1.358   2.808  21.299  0.00  0.00    +0.000 A 
ATOM     19  C   UNL     1       2.749   2.847  21.289  0.00  0.00    +0.000 A 
ATOM     20  C   UNL     1       3.440   2.847  20.075  0.00  0.00    +0.000 A 
ENDBRANCH  14  15
ENDBRANCH   4  14
ENDBRANCH   1  11
BRANCH   1  21
ATOM     21  C   UNL     1       7.226   7.399  18.013  0.00  0.00    +0.000 C 
BRANCH  21  22
ATOM     22  C   UNL     1       8.166   8.534  17.586  0.00  0.00    +0.000 C 
BRANCH  22  23
ATOM     23  C   UNL     1       8.889   9.236  18.739  0.00  0.00    +0.000 C 
BRANCH  23  24
ATOM     24  C   UNL     1       8.977  10.746  18.536  0.00  0.00    +0.000 C 
BRANCH  24  25
ATOM     25  C   UNL     1      10.409  11.186  18.265  0.00  0.00    +0.000 C 
BRANCH  25  26
ATOM     26  C   UNL     1      10.458  12.688  18.006  0.00  0.00    +0.000 C 
BRANCH  26  27
ATOM     27  C   UNL     1      10.535  13.455  19.325  0.00  0.00    +0.000 C 
BRANCH  27  28
ATOM     28  N   UNL     1       9.435  14.403  19.434  0.00  0.00    +0.000 NA
ATOM     29  C   UNL     1       8.327  13.963  20.312  0.00  0.00    +0.000 C 
ATOM     30  C   UNL     1       7.234  15.058  20.454  0.00  0.00    +0.000 C 
ATOM     31  N   UNL     1       6.783  15.477  19.121  0.00  0.00    +0.000 N 
ATOM     32  C   UNL     1       7.861  15.867  18.202  0.00  0.00    +0.000 C 
ATOM     33  C   UNL     1       8.875  14.713  18.098  0.00  0.00    +0.000 C 
BRANCH  31  34
ATOM     34  C   UNL     1       5.460  15.730  18.829  0.00  0.00    +0.000 A 
ATOM     35  C   UNL     1       4.663  16.566  19.621  0.00  0.00    +0.000 A 
ATOM     36  C   UNL     1       3.304  16.761  19.346  0.00  0.00    +0.000 A 
ATOM     37  C   UNL     1       2.712  16.118  18.265  0.00  0.00    +0.000 A 
ATOM     38  C   UNL     1       3.480  15.293  17.455  0.00  0.00    +0.000 A 
ATOM     39  C   UNL     1       4.836  15.106  17.737  0.00  0.00    +0.000 A 
ENDBRANCH  31  34
ENDBRANCH  27  28
ENDBRANCH  26  27
ENDBRANCH  25  26
ENDBRANCH  24  25
ENDBRANCH  23  24
ENDBRANCH  22  23
ENDBRANCH  21  22
ENDBRANCH   1  21
TORSDOF 12
ENDMDL
MODEL 4
REMARK VINA RESULT:      -7.6      2.121      3.389
REMARK  Name = 
REMARK  12 active torsions:
REMARK  status: ('A' for Active; 'I' for Inactive)
REMARK    1  A    between atoms: N_3  and  C_4
REMARK    2  A    between atoms: C_4  and  C_5
REMARK    3  A    between atoms: N_17  and  C_18
REMARK    4  A    between atoms: C_18  and  C_19
REMARK    5  A    between atoms: C_19  and  C_20
REMARK    6  A    between atoms: C_20  and  C_21
REMARK    7  A    between atoms: C_21  and  C_22
REMARK    8  A    between atoms: C_22  and  C_23
REMARK    9  A    between atoms: C_23  and  C_24
REMARK   10  A    between atoms: C_24  and  C_25
REMARK   11  A    between atoms: C_25  and  N_26
REMARK   12  A    between atoms: N_29  and  C_30
REMARK                            x       y       z     vdW  Elec       q    Type
REMARK                         _______ _______ _______ _____ _____    ______ ____
ROOT
ATOM      1  C   UNL     1       6.824   6.239  16.595  0.00  0.00    +0.000 C 
ENDROOT
BRANCH   1  11
ATOM      2  N   UNL     1       5.943   3.416  16.432  0.00  0.00    +0.000 N 
ATOM      3  C   UNL     1       5.172   4.402  16.878  0.00  0.00    +0.000 A 
ATOM      4  N   UNL     1       3.942   4.250  17.350  0.00  0.00    +0.000 N 
ATOM      5  C   UNL     1       3.387   5.507  17.578  0.00  0.00    +0.000 A 
ATOM      6  C   UNL     1       2.116   5.895  17.993  0.00  0.00    +0.000 A 
ATOM      7  C   UNL     1       1.901   7.275  18.107  0.00  0.00    +0.000 A 
ATOM      8  C   UNL     1       2.915   8.209  17.820  0.00  0.00    +0.000 A 
ATOM      9  C   UNL     1       4.191   7.806  17.403  0.00  0.00    +0.000 A 
ATOM     10  C   UNL     1       4.393   6.433  17.287  0.00  0.00    +0.000 A 
ATOM     11  N   UNL     1       5.505   5.688  16.899  0.00  0.00    +0.000 N 
ATOM     12  H   UNL     1       5.577   2.483  16.314  0.00  0.00    +0.000 HD
ATOM     13  H   UNL     1       6.876   3.599  16.099  0.00  0.00    +0.000 HD
BRANCH   4  14
ATOM     14  C   UNL     1       3.281   2.982  17.625  0.00  0.00    +0.000 C 
BRANCH  14  15
ATOM     15  C   UNL     1       2.714   2.934  19.022  0.00  0.00    +0.000 A 
ATOM     16  C   UNL     1       3.501   2.775  20.173  0.00  0.00    +0.000 A 
ATOM     17  C   UNL     1       2.912   2.648  21.431  0.00  0.00    +0.000 A 
ATOM     18  C   UNL     1       1.528   2.701  21.561  0.00  0.00    +0.000 A 
ATOM     19  C   UNL     1       0.732   2.905  20.437  0.00  0.00    +0.000 A 
ATOM     20  C   UNL     1       1.320   3.026  19.177  0.00  0.00    +0.000 A 
ENDBRANCH  14  15
ENDBRANCH   4  14
ENDBRANCH   1  11
BRANCH   1  21
ATOM     21  C   UNL     1       7.407   6.994  17.781  0.00  0.00    +0.000 C 
BRANCH  21  22
ATOM     22  C   UNL     1       8.005   8.349  17.384  0.00  0.00    +0.000 C 
BRANCH  22  23
ATOM     23  C   UNL     1       8.529   9.186  18.555  0.00  0.00    +0.000 C 
BRANCH  23  24
ATOM     24  C   UNL     1       8.687  10.661  18.190  0.00  0.00    +0.000 C 
BRANCH  24  25
ATOM     25  C   UNL     1      10.113  11.139  18.423  0.00  0.00    +0.000 C 
BRANCH  25  26
ATOM     26  C   UNL     1      10.160  12.663  18.441  0.00  0.00    +0.000 C 
BRANCH  26  27
ATOM     27  C   UNL     1      10.347  13.175  19.869  0.00  0.00    +0.000 C 
BRANCH  27  28
ATOM     28  N   UNL     1       9.131  12.984  20.647  0.00  0.00    +0.000 NA
ATOM     29  C   UNL     1       8.436  14.237  21.021  0.00  0.00    +0.000 C 
ATOM     30  C   UNL     1       7.104  13.957  21.767  0.00  0.00    +0.000 C 
ATOM     31  N   UNL     1       7.358  13.074  22.912  0.00  0.00    +0.000 N 
ATOM     32  C   UNL     1       8.097  11.845  22.589  0.00  0.00    +0.000 C 
ATOM     33  C   UNL     1       9.413  12.221  21.885  0.00  0.00    +0.000 C 
BRANCH  31  34
ATOM     34  C   UNL     1       6.746  13.245  24.135  0.00  0.00    +0.000 A 
ATOM     35  C   UNL     1       6.577  12.193  25.043  0.00  0.00    +0.000 A 
ATOM     36  C   UNL     1       5.895  12.368  26.253  0.00  0.00    +0.000 A 
ATOM     37  C   UNL     1       5.364  13.612  26.580  0.00  0.00    +0.000 A 
ATOM     38  C   UNL     1       5.526  14.676  25.704  0.00  0.00    +0.000 A 
ATOM     39  C   UNL     1       6.211  14.491  24.500  0.00  0.00    +0.000 A 
ENDBRANCH  31  34
ENDBRANCH  27  28
ENDBRANCH  26  27
ENDBRANCH  25  26
ENDBRANCH  24  25
ENDBRANCH  23  24
ENDBRANCH  22  23
ENDBRANCH  21  22
ENDBRANCH   1  21
TORSDOF 12
ENDMDL
MODEL 5
REMARK VINA RESULT:      -7.4      3.366      9.413
REMARK  Name = 
REMARK  12 active torsions:
REMARK  status: ('A' for Active; 'I' for Inactive)
REMARK    1  A    between atoms: N_3  and  C_4
REMARK    2  A    between atoms: C_4  and  C_5
REMARK    3  A    between atoms: N_17  and  C_18
REMARK    4  A    between atoms: C_18  and  C_19
REMARK    5  A    between atoms: C_19  and  C_20
REMARK    6  A    between atoms: C_20  and  C_21
REMARK    7  A    between atoms: C_21  and  C_22
REMARK    8  A    between atoms: C_22  and  C_23
REMARK    9  A    between atoms: C_23  and  C_24
REMARK   10  A    between atoms: C_24  and  C_25
REMARK   11  A    between atoms: C_25  and  N_26
REMARK   12  A    between atoms: N_29  and  C_30
REMARK                            x       y       z     vdW  Elec       q    Type
REMARK                         _______ _______ _______ _____ _____    ______ ____
ROOT
ATOM      1  C   UNL     1       2.177   7.657  19.562  0.00  0.00    +0.000 C 
ENDROOT
BRANCH   1  11
ATOM      2  N   UNL     1       1.679   9.783  17.561  0.00  0.00    +0.000 N 
ATOM      3  C   UNL     1       1.157   9.786  18.783  0.00  0.00    +0.000 A 
ATOM      4  N   UNL     1       0.314  10.700  19.247  0.00  0.00    +0.000 N 
ATOM      5  C   UNL     1       0.100  10.470  20.604  0.00  0.00    +0.000 A 
ATOM      6  C   UNL     1      -0.628  11.176  21.558  0.00  0.00    +0.000 A 
ATOM      7  C   UNL     1      -0.614  10.650  22.856  0.00  0.00    +0.000 A 
ATOM      8  C   UNL     1       0.093   9.474  23.170  0.00  0.00    +0.000 A 
ATOM      9  C   UNL     1       0.822   8.770  22.201  0.00  0.00    +0.000 A 
ATOM     10  C   UNL     1       0.807   9.305  20.915  0.00  0.00    +0.000 A 
ATOM     11  N   UNL     1       1.412   8.891  19.731  0.00  0.00    +0.000 N 
ATOM     12  H   UNL     1       1.552  10.568  16.941  0.00  0.00    +0.000 HD
ATOM     13  H   UNL     1       2.302   9.049  17.268  0.00  0.00    +0.000 HD
BRANCH   4  14
ATOM     14  C   UNL     1      -0.318  11.755  18.467  0.00  0.00    +0.000 C 
BRANCH  14  15
ATOM     15  C   UNL     1       0.393  13.075  18.625  0.00  0.00    +0.000 A 
ATOM     16  C   UNL     1       1.727  13.287  18.241  0.00  0.00    +0.000 A 
ATOM     17  C   UNL     1       2.359  14.504  18.494  0.00  0.00    +0.000 A 
ATOM     18  C   UNL     1       1.662  15.537  19.113  0.00  0.00    +0.000 A 
ATOM     19  C   UNL     1       0.325  15.362  19.459  0.00  0.00    +0.000 A 
ATOM     20  C   UNL     1      -0.307  14.142  19.212  0.00  0.00    +0.000 A 
ENDBRANCH  14  15
ENDBRANCH   4  14
ENDBRANCH   1  11
BRANCH   1  21
ATOM     21  C   UNL     1       1.997   6.716  20.746  0.00  0.00    +0.000 C 
BRANCH  21  22
ATOM     22  C   UNL     1       0.963   5.616  20.475  0.00  0.00    +0.000 C 
BRANCH  22  23
ATOM     23  C   UNL     1       1.491   4.187  20.635  0.00  0.00    +0.000 C 
BRANCH  23  24
ATOM     24  C   UNL     1       0.486   3.140  20.158  0.00  0.00    +0.000 C 
BRANCH  24  25
ATOM     25  C   UNL     1       1.085   2.252  19.076  0.00  0.00    +0.000 C 
BRANCH  25  26
ATOM     26  C   UNL     1       1.874   3.096  18.080  0.00  0.00    +0.000 C 
BRANCH  26  27
ATOM     27  C   UNL     1       2.977   2.263  17.430  0.00  0.00    +0.000 C 
BRANCH  27  28
ATOM     28  N   UNL     1       4.274   2.900  17.608  0.00  0.00    +0.000 NA
ATOM     29  C   UNL     1       4.422   3.654  18.874  0.00  0.00    +0.000 C 
ATOM     30  C   UNL     1       5.855   4.228  19.039  0.00  0.00    +0.000 C 
ATOM     31  N   UNL     1       6.207   5.019  17.853  0.00  0.00    +0.000 N 
ATOM     32  C   UNL     1       6.019   4.322  16.573  0.00  0.00    +0.000 C 
ATOM     33  C   UNL     1       4.567   3.818  16.483  0.00  0.00    +0.000 C 
BRANCH  31  34
ATOM     34  C   UNL     1       6.893   6.211  17.930  0.00  0.00    +0.000 A 
ATOM     35  C   UNL     1       7.957   6.409  18.819  0.00  0.00    +0.000 A 
ATOM     36  C   UNL     1       8.601   7.648  18.930  0.00  0.00    +0.000 A 
ATOM     37  C   UNL     1       8.188   8.721  18.147  0.00  0.00    +0.000 A 
ATOM     38  C   UNL     1       7.144   8.550  17.249  0.00  0.00    +0.000 A 
ATOM     39  C   UNL     1       6.509   7.309  17.144  0.00  0.00    +0.000 A 
ENDBRANCH  31  34
ENDBRANCH  27  28
ENDBRANCH  26  27
ENDBRANCH  25  26
ENDBRANCH  24  25
ENDBRANCH  23  24
ENDBRANCH  22  23
ENDBRANCH  21  22
ENDBRANCH   1  21
TORSDOF 12
ENDMDL
MODEL 6
REMARK VINA RESULT:      -7.3      5.123      9.905
REMARK  Name = 
REMARK  12 active torsions:
REMARK  status: ('A' for Active; 'I' for Inactive)
REMARK    1  A    between atoms: N_3  and  C_4
REMARK    2  A    between atoms: C_4  and  C_5
REMARK    3  A    between atoms: N_17  and  C_18
REMARK    4  A    between atoms: C_18  and  C_19
REMARK    5  A    between atoms: C_19  and  C_20
REMARK    6  A    between atoms: C_20  and  C_21
REMARK    7  A    between atoms: C_21  and  C_22
REMARK    8  A    between atoms: C_22  and  C_23
REMARK    9  A    between atoms: C_23  and  C_24
REMARK   10  A    between atoms: C_24  and  C_25
REMARK   11  A    between atoms: C_25  and  N_26
REMARK   12  A    between atoms: N_29  and  C_30
REMARK                            x       y       z     vdW  Elec       q    Type
REMARK                         _______ _______ _______ _____ _____    ______ ____
ROOT
ATOM      1  C   UNL     1       0.412   9.333  18.195  0.00  0.00    +0.000 C 
ENDROOT
BRANCH   1  11
ATOM      2  N   UNL     1      -0.751  12.014  17.722  0.00  0.00    +0.000 N 
ATOM      3  C   UNL     1      -0.719  11.427  18.913  0.00  0.00    +0.000 A 
ATOM      4  N   UNL     1      -1.240  11.932  20.024  0.00  0.00    +0.000 N 
ATOM      5  C   UNL     1      -0.884  11.121  21.100  0.00  0.00    +0.000 A 
ATOM      6  C   UNL     1      -1.109  11.248  22.467  0.00  0.00    +0.000 A 
ATOM      7  C   UNL     1      -0.587  10.229  23.274  0.00  0.00    +0.000 A 
ATOM      8  C   UNL     1       0.120   9.141  22.727  0.00  0.00    +0.000 A 
ATOM      9  C   UNL     1       0.340   9.023  21.348  0.00  0.00    +0.000 A 
ATOM     10  C   UNL     1      -0.177  10.045  20.555  0.00  0.00    +0.000 A 
ATOM     11  N   UNL     1      -0.144  10.259  19.179  0.00  0.00    +0.000 N 
ATOM     12  H   UNL     1      -1.081  12.963  17.620  0.00  0.00    +0.000 HD
ATOM     13  H   UNL     1      -0.349  11.568  16.914  0.00  0.00    +0.000 HD
BRANCH   4  14
ATOM     14  C   UNL     1      -2.079  13.118  20.113  0.00  0.00    +0.000 C 
BRANCH  14  15
ATOM     15  C   UNL     1      -3.531  12.766  20.320  0.00  0.00    +0.000 A 
ATOM     16  C   UNL     1      -4.339  12.195  19.325  0.00  0.00    +0.000 A 
ATOM     17  C   UNL     1      -5.699  11.973  19.547  0.00  0.00    +0.000 A 
ATOM     18  C   UNL     1      -6.267  12.299  20.775  0.00  0.00    +0.000 A 
ATOM     19  C   UNL     1      -5.472  12.823  21.790  0.00  0.00    +0.000 A 
ATOM     20  C   UNL     1      -4.113  13.051  21.567  0.00  0.00    +0.000 A 
ENDBRANCH  14  15
ENDBRANCH   4  14
ENDBRANCH   1  11
BRANCH   1  21
ATOM     21  C   UNL     1       1.899   9.096  18.421  0.00  0.00    +0.000 C 
BRANCH  21  22
ATOM     22  C   UNL     1       2.291   7.619  18.288  0.00  0.00    +0.000 C 
BRANCH  22  23
ATOM     23  C   UNL     1       2.556   6.904  19.616  0.00  0.00    +0.000 C 
BRANCH  23  24
ATOM     24  C   UNL     1       1.354   6.086  20.085  0.00  0.00    +0.000 C 
BRANCH  24  25
ATOM     25  C   UNL     1       1.755   4.657  20.421  0.00  0.00    +0.000 C 
BRANCH  25  26
ATOM     26  C   UNL     1       0.666   3.687  19.977  0.00  0.00    +0.000 C 
BRANCH  26  27
ATOM     27  C   UNL     1       1.275   2.513  19.212  0.00  0.00    +0.000 C 
BRANCH  27  28
ATOM     28  N   UNL     1       2.631   2.827  18.784  0.00  0.00    +0.000 NA
ATOM     29  C   UNL     1       3.543   3.234  19.878  0.00  0.00    +0.000 C 
ATOM     30  C   UNL     1       4.991   3.465  19.365  0.00  0.00    +0.000 C 
ATOM     31  N   UNL     1       4.971   4.416  18.247  0.00  0.00    +0.000 N 
ATOM     32  C   UNL     1       4.034   4.074  17.167  0.00  0.00    +0.000 C 
ATOM     33  C   UNL     1       2.624   3.899  17.761  0.00  0.00    +0.000 C 
BRANCH  31  34
ATOM     34  C   UNL     1       5.919   5.403  18.092  0.00  0.00    +0.000 A 
ATOM     35  C   UNL     1       7.107   5.425  18.833  0.00  0.00    +0.000 A 
ATOM     36  C   UNL     1       8.031   6.471  18.710  0.00  0.00    +0.000 A 
ATOM     37  C   UNL     1       7.780   7.522  17.836  0.00  0.00    +0.000 A 
ATOM     38  C   UNL     1       6.617   7.521  17.079  0.00  0.00    +0.000 A 
ATOM     39  C   UNL     1       5.703   6.472  17.208  0.00  0.00    +0.000 A 
ENDBRANCH  31  34
ENDBRANCH  27  28
ENDBRANCH  26  27
ENDBRANCH  25  26
ENDBRANCH  24  25
ENDBRANCH  23  24
ENDBRANCH  22  23
ENDBRANCH  21  22
ENDBRANCH   1  21
TORSDOF 12
ENDMDL
MODEL 7
REMARK VINA RESULT:      -7.3      6.027      8.512
REMARK  Name = 
REMARK  12 active torsions:
REMARK  status: ('A' for Active; 'I' for Inactive)
REMARK    1  A    between atoms: N_3  and  C_4
REMARK    2  A    between atoms: C_4  and  C_5
REMARK    3  A    between atoms: N_17  and  C_18
REMARK    4  A    between atoms: C_18  and  C_19
REMARK    5  A    between atoms: C_19  and  C_20
REMARK    6  A    between atoms: C_20  and  C_21
REMARK    7  A    between atoms: C_21  and  C_22
REMARK    8  A    between atoms: C_22  and  C_23
REMARK    9  A    between atoms: C_23  and  C_24
REMARK   10  A    between atoms: C_24  and  C_25
REMARK   11  A    between atoms: C_25  and  N_26
REMARK   12  A    between atoms: N_29  and  C_30
REMARK                            x       y       z     vdW  Elec       q    Type
REMARK                         _______ _______ _______ _____ _____    ______ ____
ROOT
ATOM      1  C   UNL     1       2.462   7.271  18.755  0.00  0.00    +0.000 C 
ENDROOT
BRANCH   1  11
ATOM      2  N   UNL     1       5.173   7.132  17.573  0.00  0.00    +0.000 N 
ATOM      3  C   UNL     1       4.432   6.061  17.842  0.00  0.00    +0.000 A 
ATOM      4  N   UNL     1       4.820   4.805  17.667  0.00  0.00    +0.000 N 
ATOM      5  C   UNL     1       3.739   3.960  17.906  0.00  0.00    +0.000 A 
ATOM      6  C   UNL     1       3.600   2.580  17.788  0.00  0.00    +0.000 A 
ATOM      7  C   UNL     1       2.340   2.059  18.107  0.00  0.00    +0.000 A 
ATOM      8  C   UNL     1       1.281   2.888  18.526  0.00  0.00    +0.000 A 
ATOM      9  C   UNL     1       1.432   4.276  18.642  0.00  0.00    +0.000 A 
ATOM     10  C   UNL     1       2.687   4.785  18.315  0.00  0.00    +0.000 A 
ATOM     11  N   UNL     1       3.187   6.085  18.304  0.00  0.00    +0.000 N 
ATOM     12  H   UNL     1       6.056   7.044  17.093  0.00  0.00    +0.000 HD
ATOM     13  H   UNL     1       4.822   8.059  17.743  0.00  0.00    +0.000 HD
BRANCH   4  14
ATOM     14  C   UNL     1       6.164   4.365  17.319  0.00  0.00    +0.000 C 
BRANCH  14  15
ATOM     15  C   UNL     1       6.389   4.371  15.827  0.00  0.00    +0.000 A 
ATOM     16  C   UNL     1       7.416   5.095  15.201  0.00  0.00    +0.000 A 
ATOM     17  C   UNL     1       7.519   5.132  13.810  0.00  0.00    +0.000 A 
ATOM     18  C   UNL     1       6.611   4.429  13.024  0.00  0.00    +0.000 A 
ATOM     19  C   UNL     1       5.615   3.667  13.627  0.00  0.00    +0.000 A 
ATOM     20  C   UNL     1       5.506   3.634  15.019  0.00  0.00    +0.000 A 
ENDBRANCH  14  15
ENDBRANCH   4  14
ENDBRANCH   1  11
BRANCH   1  21
ATOM     21  C   UNL     1       2.365   8.323  17.659  0.00  0.00    +0.000 C 
BRANCH  21  22
ATOM     22  C   UNL     1       1.165   9.261  17.842  0.00  0.00    +0.000 C 
BRANCH  22  23
ATOM     23  C   UNL     1       1.304  10.263  18.992  0.00  0.00    +0.000 C 
BRANCH  23  24
ATOM     24  C   UNL     1       1.723  11.649  18.507  0.00  0.00    +0.000 C 
BRANCH  24  25
ATOM     25  C   UNL     1       1.556  12.692  19.603  0.00  0.00    +0.000 C 
BRANCH  25  26
ATOM     26  C   UNL     1       0.683  12.141  20.725  0.00  0.00    +0.000 C 
BRANCH  26  27
ATOM     27  C   UNL     1       0.273  13.259  21.681  0.00  0.00    +0.000 C 
BRANCH  27  28
ATOM     28  N   UNL     1      -1.147  13.554  21.548  0.00  0.00    +0.000 NA
ATOM     29  C   UNL     1      -1.784  14.082  22.776  0.00  0.00    +0.000 C 
ATOM     30  C   UNL     1      -3.272  14.459  22.538  0.00  0.00    +0.000 C 
ATOM     31  N   UNL     1      -3.985  13.310  21.967  0.00  0.00    +0.000 N 
ATOM     32  C   UNL     1      -3.350  12.722  20.778  0.00  0.00    +0.000 C 
ATOM     33  C   UNL     1      -1.895  12.350  21.117  0.00  0.00    +0.000 C 
BRANCH  31  34
ATOM     34  C   UNL     1      -5.263  12.963  22.346  0.00  0.00    +0.000 A 
ATOM     35  C   UNL     1      -6.249  12.602  21.419  0.00  0.00    +0.000 A 
ATOM     36  C   UNL     1      -7.561  12.316  21.815  0.00  0.00    +0.000 A 
ATOM     37  C   UNL     1      -7.914  12.386  23.158  0.00  0.00    +0.000 A 
ATOM     38  C   UNL     1      -6.955  12.730  24.101  0.00  0.00    +0.000 A 
ATOM     39  C   UNL     1      -5.648  13.012  23.695  0.00  0.00    +0.000 A 
ENDBRANCH  31  34
ENDBRANCH  27  28
ENDBRANCH  26  27
ENDBRANCH  25  26
ENDBRANCH  24  25
ENDBRANCH  23  24
ENDBRANCH  22  23
ENDBRANCH  21  22
ENDBRANCH   1  21
TORSDOF 12
ENDMDL
MODEL 8
REMARK VINA RESULT:      -7.2      5.109      9.841
REMARK  Name = 
REMARK  12 active torsions:
REMARK  status: ('A' for Active; 'I' for Inactive)
REMARK    1  A    between atoms: N_3  and  C_4
REMARK    2  A    between atoms: C_4  and  C_5
REMARK    3  A    between atoms: N_17  and  C_18
REMARK    4  A    between atoms: C_18  and  C_19
REMARK    5  A    between atoms: C_19  and  C_20
REMARK    6  A    between atoms: C_20  and  C_21
REMARK    7  A    between atoms: C_21  and  C_22
REMARK    8  A    between atoms: C_22  and  C_23
REMARK    9  A    between atoms: C_23  and  C_24
REMARK   10  A    between atoms: C_24  and  C_25
REMARK   11  A    between atoms: C_25  and  N_26
REMARK   12  A    between atoms: N_29  and  C_30
REMARK                            x       y       z     vdW  Elec       q    Type
REMARK                         _______ _______ _______ _____ _____    ______ ____
ROOT
ATOM      1  C   UNL     1       1.850   8.005  19.565  0.00  0.00    +0.000 C 
ENDROOT
BRANCH   1  11
ATOM      2  N   UNL     1       1.410  10.203  17.629  0.00  0.00    +0.000 N 
ATOM      3  C   UNL     1       0.856  10.164  18.836  0.00  0.00    +0.000 A 
ATOM      4  N   UNL     1       0.004  11.064  19.310  0.00  0.00    +0.000 N 
ATOM      5  C   UNL     1      -0.247  10.787  20.652  0.00  0.00    +0.000 A 
ATOM      6  C   UNL     1      -0.997  11.462  21.611  0.00  0.00    +0.000 A 
ATOM      7  C   UNL     1      -1.019  10.889  22.889  0.00  0.00    +0.000 A 
ATOM      8  C   UNL     1      -0.323   9.700  23.180  0.00  0.00    +0.000 A 
ATOM      9  C   UNL     1       0.429   9.029  22.206  0.00  0.00    +0.000 A 
ATOM     10  C   UNL     1       0.450   9.610  20.940  0.00  0.00    +0.000 A 
ATOM     11  N   UNL     1       1.084   9.235  19.758  0.00  0.00    +0.000 N 
ATOM     12  H   UNL     1       1.301  11.010  17.034  0.00  0.00    +0.000 HD
ATOM     13  H   UNL     1       2.039   9.477  17.326  0.00  0.00    +0.000 HD
BRANCH   4  14
ATOM     14  C   UNL     1      -0.605  12.148  18.552  0.00  0.00    +0.000 C 
BRANCH  14  15
ATOM     15  C   UNL     1      -1.956  11.762  18.004  0.00  0.00    +0.000 A 
ATOM     16  C   UNL     1      -3.145  11.844  18.746  0.00  0.00    +0.000 A 
ATOM     17  C   UNL     1      -4.352  11.388  18.215  0.00  0.00    +0.000 A 
ATOM     18  C   UNL     1      -4.394  10.863  16.927  0.00  0.00    +0.000 A 
ATOM     19  C   UNL     1      -3.234  10.816  16.159  0.00  0.00    +0.000 A 
ATOM     20  C   UNL     1      -2.024  11.266  16.691  0.00  0.00    +0.000 A 
ENDBRANCH  14  15
ENDBRANCH   4  14
ENDBRANCH   1  11
BRANCH   1  21
ATOM     21  C   UNL     1       1.736   7.077  20.767  0.00  0.00    +0.000 C 
BRANCH  21  22
ATOM     22  C   UNL     1       1.363   5.642  20.374  0.00  0.00    +0.000 C 
BRANCH  22  23
ATOM     23  C   UNL     1       1.945   4.556  21.283  0.00  0.00    +0.000 C 
BRANCH  23  24
ATOM     24  C   UNL     1       1.567   3.150  20.824  0.00  0.00    +0.000 C 
BRANCH  24  25
ATOM     25  C   UNL     1       2.398   2.719  19.623  0.00  0.00    +0.000 C 
BRANCH  25  26
ATOM     26  C   UNL     1       3.871   2.630  20.008  0.00  0.00    +0.000 C 
BRANCH  26  27
ATOM     27  C   UNL     1       4.584   3.944  19.695  0.00  0.00    +0.000 C 
BRANCH  27  28
ATOM     28  N   UNL     1       4.524   4.235  18.270  0.00  0.00    +0.000 NA
ATOM     29  C   UNL     1       4.546   3.039  17.396  0.00  0.00    +0.000 C 
ATOM     30  C   UNL     1       4.388   3.416  15.898  0.00  0.00    +0.000 C 
ATOM     31  N   UNL     1       5.399   4.415  15.533  0.00  0.00    +0.000 N 
ATOM     32  C   UNL     1       5.445   5.592  16.413  0.00  0.00    +0.000 C 
ATOM     33  C   UNL     1       5.638   5.125  17.867  0.00  0.00    +0.000 C 
BRANCH  31  34
ATOM     34  C   UNL     1       6.074   4.387  14.332  0.00  0.00    +0.000 A 
ATOM     35  C   UNL     1       7.235   5.137  14.107  0.00  0.00    +0.000 A 
ATOM     36  C   UNL     1       7.873   5.148  12.860  0.00  0.00    +0.000 A 
ATOM     37  C   UNL     1       7.356   4.402  11.807  0.00  0.00    +0.000 A 
ATOM     38  C   UNL     1       6.213   3.639  12.004  0.00  0.00    +0.000 A 
ATOM     39  C   UNL     1       5.586   3.634  13.253  0.00  0.00    +0.000 A 
ENDBRANCH  31  34
ENDBRANCH  27  28
ENDBRANCH  26  27
ENDBRANCH  25  26
ENDBRANCH  24  25
ENDBRANCH  23  24
ENDBRANCH  22  23
ENDBRANCH  21  22
ENDBRANCH   1  21
TORSDOF 12
ENDMDL
MODEL 9
REMARK VINA RESULT:      -7.1      5.177      7.727
REMARK  Name = 
REMARK  12 active torsions:
REMARK  status: ('A' for Active; 'I' for Inactive)
REMARK    1  A    between atoms: N_3  and  C_4
REMARK    2  A    between atoms: C_4  and  C_5
REMARK    3  A    between atoms: N_17  and  C_18
REMARK    4  A    between atoms: C_18  and  C_19
REMARK    5  A    between atoms: C_19  and  C_20
REMARK    6  A    between atoms: C_20  and  C_21
REMARK    7  A    between atoms: C_21  and  C_22
REMARK    8  A    between atoms: C_22  and  C_23
REMARK    9  A    between atoms: C_23  and  C_24
REMARK   10  A    between atoms: C_24  and  C_25
REMARK   11  A    between atoms: C_25  and  N_26
REMARK   12  A    between atoms: N_29  and  C_30
REMARK                            x       y       z     vdW  Elec       q    Type
REMARK                         _______ _______ _______ _____ _____    ______ ____
ROOT
ATOM      1  C   UNL     1       1.727   3.271  17.960  0.00  0.00    +0.000 C 
ENDROOT
BRANCH   1  11
ATOM      2  N   UNL     1       4.452   2.171  17.587  0.00  0.00    +0.000 N 
ATOM      3  C   UNL     1       4.158   3.463  17.476  0.00  0.00    +0.000 A 
ATOM      4  N   UNL     1       5.022   4.412  17.137  0.00  0.00    +0.000 N 
ATOM      5  C   UNL     1       4.405   5.653  17.271  0.00  0.00    +0.000 A 
ATOM      6  C   UNL     1       4.890   6.949  17.115  0.00  0.00    +0.000 A 
ATOM      7  C   UNL     1       3.972   7.981  17.345  0.00  0.00    +0.000 A 
ATOM      8  C   UNL     1       2.637   7.718  17.708  0.00  0.00    +0.000 A 
ATOM      9  C   UNL     1       2.159   6.409  17.861  0.00  0.00    +0.000 A 
ATOM     10  C   UNL     1       3.081   5.389  17.637  0.00  0.00    +0.000 A 
ATOM     11  N   UNL     1       2.967   4.003  17.704  0.00  0.00    +0.000 N 
ATOM     12  H   UNL     1       5.407   1.850  17.535  0.00  0.00    +0.000 HD
ATOM     13  H   UNL     1       3.743   1.500  17.834  0.00  0.00    +0.000 HD
BRANCH   4  14
ATOM     14  C   UNL     1       6.384   4.201  16.667  0.00  0.00    +0.000 C 
BRANCH  14  15
ATOM     15  C   UNL     1       6.473   4.249  15.162  0.00  0.00    +0.000 A 
ATOM     16  C   UNL     1       5.694   3.445  14.314  0.00  0.00    +0.000 A 
ATOM     17  C   UNL     1       5.884   3.470  12.932  0.00  0.00    +0.000 A 
ATOM     18  C   UNL     1       6.839   4.314  12.374  0.00  0.00    +0.000 A 
ATOM     19  C   UNL     1       7.588   5.152  13.194  0.00  0.00    +0.000 A 
ATOM     20  C   UNL     1       7.404   5.125  14.578  0.00  0.00    +0.000 A 
ENDBRANCH  14  15
ENDBRANCH   4  14
ENDBRANCH   1  11
BRANCH   1  21
ATOM     21  C   UNL     1       1.059   3.729  19.249  0.00  0.00    +0.000 C 
BRANCH  21  22
ATOM     22  C   UNL     1       1.978   3.601  20.470  0.00  0.00    +0.000 C 
BRANCH  22  23
ATOM     23  C   UNL     1       2.299   4.924  21.172  0.00  0.00    +0.000 C 
BRANCH  23  24
ATOM     24  C   UNL     1       1.194   5.962  20.988  0.00  0.00    +0.000 C 
BRANCH  24  25
ATOM     25  C   UNL     1       1.702   7.368  21.279  0.00  0.00    +0.000 C 
BRANCH  25  26
ATOM     26  C   UNL     1       0.531   8.340  21.375  0.00  0.00    +0.000 C 
BRANCH  26  27
ATOM     27  C   UNL     1       0.736   9.519  20.425  0.00  0.00    +0.000 C 
BRANCH  27  28
ATOM     28  N   UNL     1       0.087  10.715  20.943  0.00  0.00    +0.000 NA
ATOM     29  C   UNL     1      -0.514  10.557  22.287  0.00  0.00    +0.000 C 
ATOM     30  C   UNL     1      -1.107  11.892  22.815  0.00  0.00    +0.000 C 
ATOM     31  N   UNL     1      -2.043  12.438  21.825  0.00  0.00    +0.000 N 
ATOM     32  C   UNL     1      -1.499  12.557  20.465  0.00  0.00    +0.000 C 
ATOM     33  C   UNL     1      -0.968  11.184  20.014  0.00  0.00    +0.000 C 
BRANCH  31  34
ATOM     34  C   UNL     1      -3.238  13.028  22.177  0.00  0.00    +0.000 A 
ATOM     35  C   UNL     1      -3.319  14.048  23.133  0.00  0.00    +0.000 A 
ATOM     36  C   UNL     1      -4.548  14.591  23.526  0.00  0.00    +0.000 A 
ATOM     37  C   UNL     1      -5.729  14.119  22.965  0.00  0.00    +0.000 A 
ATOM     38  C   UNL     1      -5.679  13.118  22.005  0.00  0.00    +0.000 A 
ATOM     39  C   UNL     1      -4.447  12.584  21.619  0.00  0.00    +0.000 A 
ENDBRANCH  31  34
ENDBRANCH  27  28
ENDBRANCH  26  27
ENDBRANCH  25  26
ENDBRANCH  24  25
ENDBRANCH  23  24
ENDBRANCH  22  23
ENDBRANCH  21  22
ENDBRANCH   1  21
TORSDOF 12
ENDMDL
