MODEL 1
REMARK VINA RESULT:      -7.9      0.000      0.000
REMARK  Name = 
REMARK  7 active torsions:
REMARK  status: ('A' for Active; 'I' for Inactive)
REMARK    1  A    between atoms: C_1  and  C_2
REMARK    2  A    between atoms: C_2  and  C_3
REMARK    3  A    between atoms: C_3  and  N_4
REMARK    4  A    between atoms: C_3  and  C_15
REMARK    5  A    between atoms: N_4  and  C_5
REMARK    6  A    between atoms: C_5  and  C_6
REMARK    7  A    between atoms: C_20  and  C_21
REMARK                            x       y       z     vdW  Elec       q    Type
REMARK                         _______ _______ _______ _____ _____    ______ ____
ROOT
ATOM      1  C   UNL     1       4.564   6.079  18.870  0.00  0.00    +0.000 C 
ENDROOT
BRANCH   1   2
ATOM      2  C   UNL     1       5.537   6.184  17.681  0.00  0.00    +0.000 C 
ATOM      3  O   UNL     1       6.518   6.924  17.741  0.00  0.00    +0.000 OA
ATOM      4  N   UNL     1       5.185   5.350  16.641  0.00  0.00    +0.000 N 
ATOM      5  C   UNL     1       5.981   5.138  15.535  0.00  0.00    +0.000 A 
ATOM      6  C   UNL     1       5.565   4.411  14.393  0.00  0.00    +0.000 A 
ATOM      7  C   UNL     1       6.653   4.441  13.556  0.00  0.00    +0.000 A 
ATOM      8  C   UNL     1       6.949   3.917  12.215  0.00  0.00    +0.000 C 
ATOM      9  O   UNL     1       7.661   5.117  14.162  0.00  0.00    +0.000 OA
ATOM     10  N   UNL     1       7.245   5.540  15.401  0.00  0.00    +0.000 NA
ATOM     11  H   UNL     1       4.237   5.009  16.589  0.00  0.00    +0.000 HD
ENDBRANCH   1   2
BRANCH   1  13
ATOM     12  C   UNL     1       2.400   7.263  18.076  0.00  0.00    +0.000 C 
ATOM     13  C   UNL     1       3.161   5.958  18.240  0.00  0.00    +0.000 C 
ENDBRANCH   1  13
BRANCH   1  14
ATOM     14  N   UNL     1       4.922   4.937  19.743  0.00  0.00    +0.000 NA
ATOM     15  H   UNL     1       4.104   4.786  20.348  0.00  0.00    +0.000 HD
BRANCH  14  16
ATOM     16  C   UNL     1       5.126   3.669  19.003  0.00  0.00    +0.000 C 
BRANCH  16  17
ATOM     17  C   UNL     1       4.165   2.474  19.230  0.00  0.00    +0.000 C 
ATOM     18  C   UNL     1       3.624   1.865  17.924  0.00  0.00    +0.000 C 
ATOM     19  C   UNL     1       2.374   2.584  17.420  0.00  0.00    +0.000 C 
ATOM     20  C   UNL     1       1.259   2.541  18.463  0.00  0.00    +0.000 C 
ATOM     21  N   UNL     1       1.733   2.755  19.813  0.00  0.00    +0.000 N 
ATOM     22  C   UNL     1       0.961   2.902  20.931  0.00  0.00    +0.000 A 
ATOM     23  C   UNL     1       1.855   2.993  21.969  0.00  0.00    +0.000 A 
ATOM     24  N   UNL     1       3.144   2.958  21.498  0.00  0.00    +0.000 NA
ATOM     25  C   UNL     1       3.049   2.750  20.200  0.00  0.00    +0.000 A 
ENDBRANCH  16  17
ENDBRANCH  14  16
ENDBRANCH   1  14
TORSDOF 5
ENDMDL
MODEL 2
REMARK VINA RESULT:      -7.8      1.527      2.805
REMARK  Name = 
REMARK  7 active torsions:
REMARK  status: ('A' for Active; 'I' for Inactive)
REMARK    1  A    between atoms: C_1  and  C_2
REMARK    2  A    between atoms: C_2  and  C_3
REMARK    3  A    between atoms: C_3  and  N_4
REMARK    4  A    between atoms: C_3  and  C_15
REMARK    5  A    between atoms: N_4  and  C_5
REMARK    6  A    between atoms: C_5  and  C_6
REMARK    7  A    between atoms: C_20  and  C_21
REMARK                            x       y       z     vdW  Elec       q    Type
REMARK                         _______ _______ _______ _____ _____    ______ ____
ROOT
ATOM      1  C   UNL     1       3.266   6.756  19.321  0.00  0.00    +0.000 C 
ENDROOT
BRANCH   1   2
ATOM      2  C   UNL     1       4.383   5.933  18.656  0.00  0.00    +0.000 C 
ATOM      3  O   UNL     1       5.168   5.278  19.341  0.00  0.00    +0.000 OA
ATOM      4  N   UNL     1       4.340   6.006  17.280  0.00  0.00    +0.000 N 
ATOM      5  C   UNL     1       5.125   5.232  16.453  0.00  0.00    +0.000 A 
ATOM      6  C   UNL     1       5.204   5.408  15.049  0.00  0.00    +0.000 A 
ATOM      7  C   UNL     1       6.080   4.435  14.633  0.00  0.00    +0.000 A 
ATOM      8  C   UNL     1       6.642   4.027  13.339  0.00  0.00    +0.000 C 
ATOM      9  O   UNL     1       6.482   3.710  15.707  0.00  0.00    +0.000 OA
ATOM     10  N   UNL     1       5.877   4.200  16.839  0.00  0.00    +0.000 NA
ATOM     11  H   UNL     1       3.845   6.772  16.849  0.00  0.00    +0.000 HD
ENDBRANCH   1   2
BRANCH   1  13
ATOM     12  C   UNL     1       1.981   8.513  17.914  0.00  0.00    +0.000 C 
ATOM     13  C   UNL     1       2.247   7.044  18.199  0.00  0.00    +0.000 C 
ENDBRANCH   1  13
BRANCH   1  14
ATOM     14  N   UNL     1       2.687   6.024  20.472  0.00  0.00    +0.000 NA
ATOM     15  H   UNL     1       2.579   6.724  21.217  0.00  0.00    +0.000 HD
BRANCH  14  16
ATOM     16  C   UNL     1       1.330   5.488  20.210  0.00  0.00    +0.000 C 
BRANCH  16  17
ATOM     17  C   UNL     1       1.123   3.965  20.010  0.00  0.00    +0.000 C 
ATOM     18  C   UNL     1       1.271   3.150  21.307  0.00  0.00    +0.000 C 
ATOM     19  C   UNL     1       2.722   2.766  21.590  0.00  0.00    +0.000 C 
ATOM     20  C   UNL     1       3.306   1.944  20.442  0.00  0.00    +0.000 C 
ATOM     21  N   UNL     1       2.919   2.434  19.137  0.00  0.00    +0.000 N 
ATOM     22  C   UNL     1       3.386   1.990  17.931  0.00  0.00    +0.000 A 
ATOM     23  C   UNL     1       2.669   2.692  16.995  0.00  0.00    +0.000 A 
ATOM     24  N   UNL     1       1.822   3.583  17.604  0.00  0.00    +0.000 NA
ATOM     25  C   UNL     1       1.942   3.367  18.900  0.00  0.00    +0.000 A 
ENDBRANCH  16  17
ENDBRANCH  14  16
ENDBRANCH   1  14
TORSDOF 5
ENDMDL
MODEL 3
REMARK VINA RESULT:      -7.6      1.232      2.418
REMARK  Name = 
REMARK  7 active torsions:
REMARK  status: ('A' for Active; 'I' for Inactive)
REMARK    1  A    between atoms: C_1  and  C_2
REMARK    2  A    between atoms: C_2  and  C_3
REMARK    3  A    between atoms: C_3  and  N_4
REMARK    4  A    between atoms: C_3  and  C_15
REMARK    5  A    between atoms: N_4  and  C_5
REMARK    6  A    between atoms: C_5  and  C_6
REMARK    7  A    between atoms: C_20  and  C_21
REMARK                            x       y       z     vdW  Elec       q    Type
REMARK                         _______ _______ _______ _____ _____    ______ ____
ROOT
ATOM      1  C   UNL     1       4.375   7.173  18.121  0.00  0.00    +0.000 C 
ENDROOT
BRANCH   1   2
ATOM      2  C   UNL     1       5.385   6.849  17.005  0.00  0.00    +0.000 C 
ATOM      3  O   UNL     1       6.472   7.425  16.961  0.00  0.00    +0.000 OA
ATOM      4  N   UNL     1       4.932   5.859  16.160  0.00  0.00    +0.000 N 
ATOM      5  C   UNL     1       5.713   5.276  15.185  0.00  0.00    +0.000 A 
ATOM      6  C   UNL     1       5.215   4.375  14.211  0.00  0.00    +0.000 A 
ATOM      7  C   UNL     1       6.318   4.042  13.462  0.00  0.00    +0.000 A 
ATOM      8  C   UNL     1       6.561   3.182  12.297  0.00  0.00    +0.000 C 
ATOM      9  O   UNL     1       7.405   4.679  13.964  0.00  0.00    +0.000 OA
ATOM     10  N   UNL     1       7.029   5.438  15.046  0.00  0.00    +0.000 NA
ATOM     11  H   UNL     1       3.942   5.664  16.125  0.00  0.00    +0.000 HD
ENDBRANCH   1   2
BRANCH   1  13
ATOM     12  C   UNL     1       2.401   8.822  17.802  0.00  0.00    +0.000 C 
ATOM     13  C   UNL     1       3.058   7.514  17.394  0.00  0.00    +0.000 C 
ENDBRANCH   1  13
BRANCH   1  14
ATOM     14  N   UNL     1       4.254   6.040  19.067  0.00  0.00    +0.000 NA
ATOM     15  H   UNL     1       4.906   6.249  19.833  0.00  0.00    +0.000 HD
BRANCH  14  16
ATOM     16  C   UNL     1       2.912   5.929  19.687  0.00  0.00    +0.000 C 
BRANCH  16  17
ATOM     17  C   UNL     1       1.983   4.744  19.321  0.00  0.00    +0.000 C 
ATOM     18  C   UNL     1       1.055   4.313  20.471  0.00  0.00    +0.000 C 
ATOM     19  C   UNL     1       1.720   3.310  21.411  0.00  0.00    +0.000 C 
ATOM     20  C   UNL     1       2.155   2.055  20.656  0.00  0.00    +0.000 C 
ATOM     21  N   UNL     1       2.735   2.342  19.362  0.00  0.00    +0.000 N 
ATOM     22  C   UNL     1       3.330   1.444  18.521  0.00  0.00    +0.000 A 
ATOM     23  C   UNL     1       3.641   2.165  17.396  0.00  0.00    +0.000 A 
ATOM     24  N   UNL     1       3.297   3.484  17.558  0.00  0.00    +0.000 NA
ATOM     25  C   UNL     1       2.693   3.558  18.728  0.00  0.00    +0.000 A 
ENDBRANCH  16  17
ENDBRANCH  14  16
ENDBRANCH   1  14
TORSDOF 5
ENDMDL
MODEL 4
REMARK VINA RESULT:      -7.6      3.078      5.726
REMARK  Name = 
REMARK  7 active torsions:
REMARK  status: ('A' for Active; 'I' for Inactive)
REMARK    1  A    between atoms: C_1  and  C_2
REMARK    2  A    between atoms: C_2  and  C_3
REMARK    3  A    between atoms: C_3  and  N_4
REMARK    4  A    between atoms: C_3  and  C_15
REMARK    5  A    between atoms: N_4  and  C_5
REMARK    6  A    between atoms: C_5  and  C_6
REMARK    7  A    between atoms: C_20  and  C_21
REMARK                            x       y       z     vdW  Elec       q    Type
REMARK                         _______ _______ _______ _____ _____    ______ ____
ROOT
ATOM      1  C   UNL     1       3.695   6.238  18.208  0.00  0.00    +0.000 C 
ENDROOT
BRANCH   1   2
ATOM      2  C   UNL     1       2.860   7.475  18.587  0.00  0.00    +0.000 C 
ATOM      3  O   UNL     1       2.645   8.359  17.759  0.00  0.00    +0.000 OA
ATOM      4  N   UNL     1       2.394   7.415  19.882  0.00  0.00    +0.000 N 
ATOM      5  C   UNL     1       1.491   8.316  20.407  0.00  0.00    +0.000 A 
ATOM      6  C   UNL     1       1.126   8.359  21.776  0.00  0.00    +0.000 A 
ATOM      7  C   UNL     1       0.214   9.384  21.852  0.00  0.00    +0.000 A 
ATOM      8  C   UNL     1      -0.568  10.002  22.931  0.00  0.00    +0.000 C 
ATOM      9  O   UNL     1       0.026   9.904  20.613  0.00  0.00    +0.000 OA
ATOM     10  N   UNL     1       0.813   9.229  19.711  0.00  0.00    +0.000 NA
ATOM     11  H   UNL     1       2.851   6.799  20.537  0.00  0.00    +0.000 HD
ENDBRANCH   1   2
BRANCH   1  13
ATOM     12  C   UNL     1       5.059   5.809  16.046  0.00  0.00    +0.000 C 
ATOM     13  C   UNL     1       4.745   6.747  17.200  0.00  0.00    +0.000 C 
ENDBRANCH   1  13
BRANCH   1  14
ATOM     14  N   UNL     1       4.285   5.612  19.414  0.00  0.00    +0.000 NA
ATOM     15  H   UNL     1       3.490   5.377  20.021  0.00  0.00    +0.000 HD
BRANCH  14  16
ATOM     16  C   UNL     1       4.982   4.334  19.135  0.00  0.00    +0.000 C 
BRANCH  16  17
ATOM     17  C   UNL     1       4.194   2.999  19.158  0.00  0.00    +0.000 C 
ATOM     18  C   UNL     1       3.754   2.522  17.761  0.00  0.00    +0.000 C 
ATOM     19  C   UNL     1       2.421   3.131  17.331  0.00  0.00    +0.000 C 
ATOM     20  C   UNL     1       1.313   2.784  18.323  0.00  0.00    +0.000 C 
ATOM     21  N   UNL     1       1.741   2.858  19.704  0.00  0.00    +0.000 N 
ATOM     22  C   UNL     1       0.947   2.732  20.808  0.00  0.00    +0.000 A 
ATOM     23  C   UNL     1       1.810   2.789  21.874  0.00  0.00    +0.000 A 
ATOM     24  N   UNL     1       3.095   2.999  21.441  0.00  0.00    +0.000 NA
ATOM     25  C   UNL     1       3.042   2.975  20.124  0.00  0.00    +0.000 A 
ENDBRANCH  16  17
ENDBRANCH  14  16
ENDBRANCH   1  14
TORSDOF 5
ENDMDL
MODEL 5
REMARK VINA RESULT:      -7.5      2.849      5.208
REMARK  Name = 
REMARK  7 active torsions:
REMARK  status: ('A' for Active; 'I' for Inactive)
REMARK    1  A    between atoms: C_1  and  C_2
REMARK    2  A    between atoms: C_2  and  C_3
REMARK    3  A    between atoms: C_3  and  N_4
REMARK    4  A    between atoms: C_3  and  C_15
REMARK    5  A    between atoms: N_4  and  C_5
REMARK    6  A    between atoms: C_5  and  C_6
REMARK    7  A    between atoms: C_20  and  C_21
REMARK                            x       y       z     vdW  Elec       q    Type
REMARK                         _______ _______ _______ _____ _____    ______ ____
ROOT
ATOM      1  C   UNL     1       3.788   5.792  18.334  0.00  0.00    +0.000 C 
ENDROOT
BRANCH   1   2
ATOM      2  C   UNL     1       2.715   6.653  19.025  0.00  0.00    +0.000 C 
ATOM      3  O   UNL     1       2.209   6.286  20.085  0.00  0.00    +0.000 OA
ATOM      4  N   UNL     1       2.467   7.825  18.345  0.00  0.00    +0.000 N 
ATOM      5  C   UNL     1       1.673   8.838  18.842  0.00  0.00    +0.000 A 
ATOM      6  C   UNL     1       1.283   9.974  18.090  0.00  0.00    +0.000 A 
ATOM      7  C   UNL     1       0.519  10.712  18.961  0.00  0.00    +0.000 A 
ATOM      8  C   UNL     1      -0.215  11.981  18.881  0.00  0.00    +0.000 C 
ATOM      9  O   UNL     1       0.473  10.077  20.159  0.00  0.00    +0.000 OA
ATOM     10  N   UNL     1       1.202   8.915  20.087  0.00  0.00    +0.000 NA
ATOM     11  H   UNL     1       2.726   7.888  17.372  0.00  0.00    +0.000 HD
ENDBRANCH   1   2
BRANCH   1  13
ATOM     12  C   UNL     1       5.241   6.081  16.207  0.00  0.00    +0.000 C 
ATOM     13  C   UNL     1       4.517   6.747  17.365  0.00  0.00    +0.000 C 
ENDBRANCH   1  13
BRANCH   1  14
ATOM     14  N   UNL     1       4.684   5.165  19.333  0.00  0.00    +0.000 NA
ATOM     15  H   UNL     1       4.117   5.059  20.184  0.00  0.00    +0.000 HD
BRANCH  14  16
ATOM     16  C   UNL     1       5.124   3.800  18.959  0.00  0.00    +0.000 C 
BRANCH  16  17
ATOM     17  C   UNL     1       4.157   2.600  19.126  0.00  0.00    +0.000 C 
ATOM     18  C   UNL     1       3.578   2.088  17.794  0.00  0.00    +0.000 C 
ATOM     19  C   UNL     1       2.323   2.851  17.374  0.00  0.00    +0.000 C 
ATOM     20  C   UNL     1       1.234   2.744  18.439  0.00  0.00    +0.000 C 
ATOM     21  N   UNL     1       1.743   2.859  19.788  0.00  0.00    +0.000 N 
ATOM     22  C   UNL     1       1.001   2.933  20.933  0.00  0.00    +0.000 A 
ATOM     23  C   UNL     1       1.921   2.944  21.952  0.00  0.00    +0.000 A 
ATOM     24  N   UNL     1       3.197   2.932  21.447  0.00  0.00    +0.000 NA
ATOM     25  C   UNL     1       3.068   2.816  20.140  0.00  0.00    +0.000 A 
ENDBRANCH  16  17
ENDBRANCH  14  16
ENDBRANCH   1  14
TORSDOF 5
ENDMDL
MODEL 6
REMARK VINA RESULT:      -7.5      1.372      1.719
REMARK  Name = 
REMARK  7 active torsions:
REMARK  status: ('A' for Active; 'I' for Inactive)
REMARK    1  A    between atoms: C_1  and  C_2
REMARK    2  A    between atoms: C_2  and  C_3
REMARK    3  A    between atoms: C_3  and  N_4
REMARK    4  A    between atoms: C_3  and  C_15
REMARK    5  A    between atoms: N_4  and  C_5
REMARK    6  A    between atoms: C_5  and  C_6
REMARK    7  A    between atoms: C_20  and  C_21
REMARK                            x       y       z     vdW  Elec       q    Type
REMARK                         _______ _______ _______ _____ _____    ______ ____
ROOT
ATOM      1  C   UNL     1       6.870   5.283  17.854  0.00  0.00    +0.000 C 
ENDROOT
BRANCH   1   2
ATOM      2  C   UNL     1       6.971   5.329  16.318  0.00  0.00    +0.000 C 
ATOM      3  O   UNL     1       7.740   6.116  15.767  0.00  0.00    +0.000 OA
ATOM      4  N   UNL     1       6.160   4.394  15.712  0.00  0.00    +0.000 N 
ATOM      5  C   UNL     1       6.191   4.124  14.360  0.00  0.00    +0.000 A 
ATOM      6  C   UNL     1       5.259   3.283  13.702  0.00  0.00    +0.000 A 
ATOM      7  C   UNL     1       5.663   3.290  12.389  0.00  0.00    +0.000 A 
ATOM      8  C   UNL     1       5.179   2.667  11.150  0.00  0.00    +0.000 C 
ATOM      9  O   UNL     1       6.773   4.061  12.270  0.00  0.00    +0.000 OA
ATOM     10  N   UNL     1       7.109   4.570  13.501  0.00  0.00    +0.000 NA
ATOM     11  H   UNL     1       5.387   4.008  16.233  0.00  0.00    +0.000 HD
ENDBRANCH   1   2
BRANCH   1  13
ATOM     12  C   UNL     1       4.824   6.745  17.227  0.00  0.00    +0.000 C 
ATOM     13  C   UNL     1       5.916   6.434  18.236  0.00  0.00    +0.000 C 
ENDBRANCH   1  13
BRANCH   1  14
ATOM     14  N   UNL     1       6.406   3.952  18.311  0.00  0.00    +0.000 NA
ATOM     15  H   UNL     1       7.143   3.603  18.936  0.00  0.00    +0.000 HD
BRANCH  14  16
ATOM     16  C   UNL     1       5.168   4.006  19.124  0.00  0.00    +0.000 C 
BRANCH  16  17
ATOM     17  C   UNL     1       4.110   2.880  19.002  0.00  0.00    +0.000 C 
ATOM     18  C   UNL     1       3.480   2.780  17.600  0.00  0.00    +0.000 C 
ATOM     19  C   UNL     1       2.286   3.718  17.430  0.00  0.00    +0.000 C 
ATOM     20  C   UNL     1       1.201   3.418  18.462  0.00  0.00    +0.000 C 
ATOM     21  N   UNL     1       1.729   3.138  19.780  0.00  0.00    +0.000 N 
ATOM     22  C   UNL     1       1.006   2.965  20.926  0.00  0.00    +0.000 A 
ATOM     23  C   UNL     1       1.933   2.640  21.884  0.00  0.00    +0.000 A 
ATOM     24  N   UNL     1       3.200   2.664  21.357  0.00  0.00    +0.000 NA
ATOM     25  C   UNL     1       3.050   2.905  20.069  0.00  0.00    +0.000 A 
ENDBRANCH  16  17
ENDBRANCH  14  16
ENDBRANCH   1  14
TORSDOF 5
ENDMDL
MODEL 7
REMARK VINA RESULT:      -7.4      3.536      7.009
REMARK  Name = 
REMARK  7 active torsions:
REMARK  status: ('A' for Active; 'I' for Inactive)
REMARK    1  A    between atoms: C_1  and  C_2
REMARK    2  A    between atoms: C_2  and  C_3
REMARK    3  A    between atoms: C_3  and  N_4
REMARK    4  A    between atoms: C_3  and  C_15
REMARK    5  A    between atoms: N_4  and  C_5
REMARK    6  A    between atoms: C_5  and  C_6
REMARK    7  A    between atoms: C_20  and  C_21
REMARK                            x       y       z     vdW  Elec       q    Type
REMARK                         _______ _______ _______ _____ _____    ______ ____
ROOT
ATOM      1  C   UNL     1       2.663   5.320  19.698  0.00  0.00    +0.000 C 
ENDROOT
BRANCH   1   2
ATOM      2  C   UNL     1       2.340   6.825  19.723  0.00  0.00    +0.000 C 
ATOM      3  O   UNL     1       2.713   7.558  18.808  0.00  0.00    +0.000 OA
ATOM      4  N   UNL     1       1.589   7.181  20.823  0.00  0.00    +0.000 N 
ATOM      5  C   UNL     1       1.034   8.432  20.990  0.00  0.00    +0.000 A 
ATOM      6  C   UNL     1       0.397   8.859  22.182  0.00  0.00    +0.000 A 
ATOM      7  C   UNL     1      -0.007  10.143  21.911  0.00  0.00    +0.000 A 
ATOM      8  C   UNL     1      -0.706  11.194  22.662  0.00  0.00    +0.000 C 
ATOM      9  O   UNL     1       0.341  10.459  20.638  0.00  0.00    +0.000 OA
ATOM     10  N   UNL     1       0.979   9.387  20.061  0.00  0.00    +0.000 NA
ATOM     11  H   UNL     1       1.581   6.571  21.626  0.00  0.00    +0.000 HD
ENDBRANCH   1   2
BRANCH   1  13
ATOM     12  C   UNL     1       1.064   3.461  20.538  0.00  0.00    +0.000 C 
ATOM     13  C   UNL     1       1.862   4.711  20.868  0.00  0.00    +0.000 C 
ENDBRANCH   1  13
BRANCH   1  14
ATOM     14  N   UNL     1       2.327   4.731  18.381  0.00  0.00    +0.000 NA
ATOM     15  H   UNL     1       1.950   5.506  17.821  0.00  0.00    +0.000 HD
BRANCH  14  16
ATOM     16  C   UNL     1       3.507   4.224  17.642  0.00  0.00    +0.000 C 
BRANCH  16  17
ATOM     17  C   UNL     1       4.595   5.210  17.146  0.00  0.00    +0.000 C 
ATOM     18  C   UNL     1       4.906   5.077  15.644  0.00  0.00    +0.000 C 
ATOM     19  C   UNL     1       5.957   4.006  15.360  0.00  0.00    +0.000 C 
ATOM     20  C   UNL     1       7.263   4.311  16.091  0.00  0.00    +0.000 C 
ATOM     21  N   UNL     1       7.062   4.800  17.438  0.00  0.00    +0.000 N 
ATOM     22  C   UNL     1       8.032   5.031  18.372  0.00  0.00    +0.000 A 
ATOM     23  C   UNL     1       7.367   5.563  19.448  0.00  0.00    +0.000 A 
ATOM     24  N   UNL     1       6.017   5.609  19.206  0.00  0.00    +0.000 NA
ATOM     25  C   UNL     1       5.859   5.202  17.961  0.00  0.00    +0.000 A 
ENDBRANCH  16  17
ENDBRANCH  14  16
ENDBRANCH   1  14
TORSDOF 5
ENDMDL
MODEL 8
REMARK VINA RESULT:      -7.3      1.887      2.933
REMARK  Name = 
REMARK  7 active torsions:
REMARK  status: ('A' for Active; 'I' for Inactive)
REMARK    1  A    between atoms: C_1  and  C_2
REMARK    2  A    between atoms: C_2  and  C_3
REMARK    3  A    between atoms: C_3  and  N_4
REMARK    4  A    between atoms: C_3  and  C_15
REMARK    5  A    between atoms: N_4  and  C_5
REMARK    6  A    between atoms: C_5  and  C_6
REMARK    7  A    between atoms: C_20  and  C_21
REMARK                            x       y       z     vdW  Elec       q    Type
REMARK                         _______ _______ _______ _____ _____    ______ ____
ROOT
ATOM      1  C   UNL     1       7.169   5.219  16.963  0.00  0.00    +0.000 C 
ENDROOT
BRANCH   1   2
ATOM      2  C   UNL     1       7.113   5.085  15.430  0.00  0.00    +0.000 C 
ATOM      3  O   UNL     1       8.041   5.496  14.734  0.00  0.00    +0.000 OA
ATOM      4  N   UNL     1       5.972   4.443  15.002  0.00  0.00    +0.000 N 
ATOM      5  C   UNL     1       5.763   4.055  13.695  0.00  0.00    +0.000 A 
ATOM      6  C   UNL     1       4.535   3.539  13.212  0.00  0.00    +0.000 A 
ATOM      7  C   UNL     1       4.773   3.282  11.884  0.00  0.00    +0.000 A 
ATOM      8  C   UNL     1       3.975   2.757  10.768  0.00  0.00    +0.000 C 
ATOM      9  O   UNL     1       6.060   3.598  11.594  0.00  0.00    +0.000 OA
ATOM     10  N   UNL     1       6.680   4.068  12.726  0.00  0.00    +0.000 NA
ATOM     11  H   UNL     1       5.174   4.403  15.619  0.00  0.00    +0.000 HD
ENDBRANCH   1   2
BRANCH   1  13
ATOM     12  C   UNL     1       7.690   7.663  17.651  0.00  0.00    +0.000 C 
ATOM     13  C   UNL     1       6.638   6.635  17.269  0.00  0.00    +0.000 C 
ENDBRANCH   1  13
BRANCH   1  14
ATOM     14  N   UNL     1       6.389   4.141  17.614  0.00  0.00    +0.000 NA
ATOM     15  H   UNL     1       7.083   3.538  18.074  0.00  0.00    +0.000 HD
BRANCH  14  16
ATOM     16  C   UNL     1       5.491   4.628  18.688  0.00  0.00    +0.000 C 
BRANCH  16  17
ATOM     17  C   UNL     1       3.968   4.345  18.613  0.00  0.00    +0.000 C 
ATOM     18  C   UNL     1       3.144   5.549  18.123  0.00  0.00    +0.000 C 
ATOM     19  C   UNL     1       2.763   6.495  19.259  0.00  0.00    +0.000 C 
ATOM     20  C   UNL     1       1.952   5.768  20.331  0.00  0.00    +0.000 C 
ATOM     21  N   UNL     1       2.450   4.441  20.619  0.00  0.00    +0.000 N 
ATOM     22  C   UNL     1       2.018   3.608  21.613  0.00  0.00    +0.000 A 
ATOM     23  C   UNL     1       2.724   2.445  21.433  0.00  0.00    +0.000 A 
ATOM     24  N   UNL     1       3.607   2.574  20.390  0.00  0.00    +0.000 NA
ATOM     25  C   UNL     1       3.382   3.765  19.871  0.00  0.00    +0.000 A 
ENDBRANCH  16  17
ENDBRANCH  14  16
ENDBRANCH   1  14
TORSDOF 5
ENDMDL
MODEL 9
REMARK VINA RESULT:      -7.3      2.761      4.305
REMARK  Name = 
REMARK  7 active torsions:
REMARK  status: ('A' for Active; 'I' for Inactive)
REMARK    1  A    between atoms: C_1  and  C_2
REMARK    2  A    between atoms: C_2  and  C_3
REMARK    3  A    between atoms: C_3  and  N_4
REMARK    4  A    between atoms: C_3  and  C_15
REMARK    5  A    between atoms: N_4  and  C_5
REMARK    6  A    between atoms: C_5  and  C_6
REMARK    7  A    between atoms: C_20  and  C_21
REMARK                            x       y       z     vdW  Elec       q    Type
REMARK                         _______ _______ _______ _____ _____    ______ ____
ROOT
ATOM      1  C   UNL     1       5.780   5.708  16.206  0.00  0.00    +0.000 C 
ENDROOT
BRANCH   1   2
ATOM      2  C   UNL     1       6.586   6.402  17.319  0.00  0.00    +0.000 C 
ATOM      3  O   UNL     1       6.884   5.792  18.346  0.00  0.00    +0.000 OA
ATOM      4  N   UNL     1       6.931   7.694  16.988  0.00  0.00    +0.000 N 
ATOM      5  C   UNL     1       7.789   8.469  17.741  0.00  0.00    +0.000 A 
ATOM      6  C   UNL     1       8.027   9.844  17.499  0.00  0.00    +0.000 A 
ATOM      7  C   UNL     1       8.937  10.206  18.462  0.00  0.00    +0.000 A 
ATOM      8  C   UNL     1       9.621  11.453  18.829  0.00  0.00    +0.000 C 
ATOM      9  O   UNL     1       9.242   9.120  19.215  0.00  0.00    +0.000 OA
ATOM     10  N   UNL     1       8.536   8.034  18.757  0.00  0.00    +0.000 NA
ATOM     11  H   UNL     1       6.410   8.168  16.265  0.00  0.00    +0.000 HD
ENDBRANCH   1   2
BRANCH   1  13
ATOM     12  C   UNL     1       6.498   4.170  14.248  0.00  0.00    +0.000 C 
ATOM     13  C   UNL     1       6.679   4.559  15.706  0.00  0.00    +0.000 C 
ENDBRANCH   1  13
BRANCH   1  14
ATOM     14  N   UNL     1       4.465   5.253  16.715  0.00  0.00    +0.000 NA
ATOM     15  H   UNL     1       3.800   5.423  15.950  0.00  0.00    +0.000 HD
BRANCH  14  16
ATOM     16  C   UNL     1       4.411   3.798  16.992  0.00  0.00    +0.000 C 
BRANCH  16  17
ATOM     17  C   UNL     1       4.069   3.291  18.416  0.00  0.00    +0.000 C 
ATOM     18  C   UNL     1       3.524   1.851  18.441  0.00  0.00    +0.000 C 
ATOM     19  C   UNL     1       2.014   1.796  18.219  0.00  0.00    +0.000 C 
ATOM     20  C   UNL     1       1.272   2.604  19.283  0.00  0.00    +0.000 C 
ATOM     21  N   UNL     1       1.921   3.858  19.600  0.00  0.00    +0.000 N 
ATOM     22  C   UNL     1       1.430   4.844  20.409  0.00  0.00    +0.000 A 
ATOM     23  C   UNL     1       2.430   5.783  20.469  0.00  0.00    +0.000 A 
ATOM     24  N   UNL     1       3.487   5.412  19.676  0.00  0.00    +0.000 NA
ATOM     25  C   UNL     1       3.186   4.216  19.209  0.00  0.00    +0.000 A 
ENDBRANCH  16  17
ENDBRANCH  14  16
ENDBRANCH   1  14
TORSDOF 5
ENDMDL
