MODEL 1
REMARK VINA RESULT:      -7.5      0.000      0.000
REMARK  Name = 
REMARK  9 active torsions:
REMARK  status: ('A' for Active; 'I' for Inactive)
REMARK    1  A    between atoms: C_1  and  O_2
REMARK    2  A    between atoms: O_2  and  C_3
REMARK    3  A    between atoms: C_8  and  O_9
REMARK    4  A    between atoms: O_9  and  C_10
REMARK    5  A    between atoms: C_10  and  C_11
REMARK    6  A    between atoms: C_11  and  C_12
REMARK    7  A    between atoms: N_17  and  C_18
REMARK    8  A    between atoms: C_23  and  O_24
REMARK    9  A    between atoms: O_24  and  C_25
REMARK                            x       y       z     vdW  Elec       q    Type
REMARK                         _______ _______ _______ _____ _____    ______ ____
ROOT
ATOM      1  C   UNL     1       7.531   6.837  17.320  0.00  0.00    +0.000 C 
ATOM      2  O   UNL     1       8.013   6.856  16.184  0.00  0.00    +0.000 OA
ATOM      3  N   UNL     1       6.510   5.972  17.652  0.00  0.00    +0.000 N 
ATOM      4  C   UNL     1       5.884   5.850  18.976  0.00  0.00    +0.000 C 
ATOM      5  C   UNL     1       4.380   5.590  18.851  0.00  0.00    +0.000 C 
ATOM      6  N   UNL     1       4.183   4.371  18.050  0.00  0.00    +0.000 N 
ATOM      7  C   UNL     1       4.676   4.528  16.668  0.00  0.00    +0.000 C 
ATOM      8  C   UNL     1       6.192   4.870  16.722  0.00  0.00    +0.000 C 
ENDROOT
BRANCH   6   9
ATOM      9  C   UNL     1       3.064   3.587  18.319  0.00  0.00    +0.000 A 
ATOM     10  C   UNL     1       1.776   4.051  17.958  0.00  0.00    +0.000 A 
ATOM     11  C   UNL     1       0.600   3.406  18.346  0.00  0.00    +0.000 A 
ATOM     12  C   UNL     1       0.682   2.242  19.101  0.00  0.00    +0.000 A 
ATOM     13  C   UNL     1       1.928   1.713  19.410  0.00  0.00    +0.000 A 
ATOM     14  C   UNL     1       3.115   2.365  19.026  0.00  0.00    +0.000 A 
BRANCH  14  15
ATOM     15  O   UNL     1       4.232   1.653  19.388  0.00  0.00    +0.000 OA
ATOM     16  C   UNL     1       4.729   1.841  20.704  0.00  0.00    +0.000 C 
ENDBRANCH  14  15
ENDBRANCH   6   9
BRANCH   1  17
ATOM     17  C   UNL     1       8.129   7.728  18.387  0.00  0.00    +0.000 C 
BRANCH  17  18
ATOM     18  C   UNL     1       8.208   9.123  17.789  0.00  0.00    +0.000 C 
BRANCH  18  19
ATOM     19  O   UNL     1       8.517  10.069  18.808  0.00  0.00    +0.000 OA
BRANCH  19  25
ATOM     20  C   UNL     1       9.107  12.238  17.704  0.00  0.00    +0.000 A 
ATOM     21  C   UNL     1      10.113  13.198  17.523  0.00  0.00    +0.000 A 
ATOM     22  C   UNL     1      11.394  12.994  18.033  0.00  0.00    +0.000 A 
ATOM     23  C   UNL     1      11.674  11.838  18.753  0.00  0.00    +0.000 A 
ATOM     24  C   UNL     1      10.666  10.897  18.978  0.00  0.00    +0.000 A 
ATOM     25  C   UNL     1       9.372  11.089  18.472  0.00  0.00    +0.000 A 
BRANCH  20  27
ATOM     26  C   UNL     1       7.237  13.689  17.538  0.00  0.00    +0.000 C 
ATOM     27  O   UNL     1       7.856  12.452  17.193  0.00  0.00    +0.000 OA
ENDBRANCH  20  27
ENDBRANCH  19  25
ENDBRANCH  18  19
ENDBRANCH  17  18
ENDBRANCH   1  17
TORSDOF 7
ENDMDL
MODEL 2
REMARK VINA RESULT:      -7.4      6.615      9.054
REMARK  Name = 
REMARK  9 active torsions:
REMARK  status: ('A' for Active; 'I' for Inactive)
REMARK    1  A    between atoms: C_1  and  O_2
REMARK    2  A    between atoms: O_2  and  C_3
REMARK    3  A    between atoms: C_8  and  O_9
REMARK    4  A    between atoms: O_9  and  C_10
REMARK    5  A    between atoms: C_10  and  C_11
REMARK    6  A    between atoms: C_11  and  C_12
REMARK    7  A    between atoms: N_17  and  C_18
REMARK    8  A    between atoms: C_23  and  O_24
REMARK    9  A    between atoms: O_24  and  C_25
REMARK                            x       y       z     vdW  Elec       q    Type
REMARK                         _______ _______ _______ _____ _____    ______ ____
ROOT
ATOM      1  C   UNL     1       0.753  10.634  20.044  0.00  0.00    +0.000 C 
ATOM      2  O   UNL     1       0.561  10.738  21.258  0.00  0.00    +0.000 OA
ATOM      3  N   UNL     1       1.200   9.454  19.487  0.00  0.00    +0.000 N 
ATOM      4  C   UNL     1       1.435   9.214  18.056  0.00  0.00    +0.000 C 
ATOM      5  C   UNL     1       2.661   8.322  17.843  0.00  0.00    +0.000 C 
ATOM      6  N   UNL     1       2.451   7.060  18.570  0.00  0.00    +0.000 N 
ATOM      7  C   UNL     1       2.359   7.267  20.029  0.00  0.00    +0.000 C 
ATOM      8  C   UNL     1       1.172   8.231  20.315  0.00  0.00    +0.000 C 
ENDROOT
BRANCH   6   9
ATOM      9  C   UNL     1       3.031   5.904  18.054  0.00  0.00    +0.000 A 
ATOM     10  C   UNL     1       4.252   5.987  17.341  0.00  0.00    +0.000 A 
ATOM     11  C   UNL     1       4.803   4.906  16.650  0.00  0.00    +0.000 A 
ATOM     12  C   UNL     1       4.147   3.681  16.674  0.00  0.00    +0.000 A 
ATOM     13  C   UNL     1       2.988   3.539  17.425  0.00  0.00    +0.000 A 
ATOM     14  C   UNL     1       2.426   4.630  18.116  0.00  0.00    +0.000 A 
BRANCH  14  15
ATOM     15  O   UNL     1       1.312   4.264  18.831  0.00  0.00    +0.000 OA
ATOM     16  C   UNL     1       0.978   2.886  18.861  0.00  0.00    +0.000 C 
ENDBRANCH  14  15
ENDBRANCH   6   9
BRANCH   1  17
ATOM     17  C   UNL     1       0.415  11.801  19.143  0.00  0.00    +0.000 C 
BRANCH  17  18
ATOM     18  C   UNL     1      -1.069  12.071  19.324  0.00  0.00    +0.000 C 
BRANCH  18  19
ATOM     19  O   UNL     1      -1.809  10.871  19.111  0.00  0.00    +0.000 OA
BRANCH  19  25
ATOM     20  C   UNL     1      -3.922  11.295  17.835  0.00  0.00    +0.000 A 
ATOM     21  C   UNL     1      -4.545  11.200  16.583  0.00  0.00    +0.000 A 
ATOM     22  C   UNL     1      -3.907  10.576  15.513  0.00  0.00    +0.000 A 
ATOM     23  C   UNL     1      -2.624  10.065  15.678  0.00  0.00    +0.000 A 
ATOM     24  C   UNL     1      -1.975  10.196  16.908  0.00  0.00    +0.000 A 
ATOM     25  C   UNL     1      -2.605  10.822  17.995  0.00  0.00    +0.000 A 
BRANCH  20  27
ATOM     26  C   UNL     1      -5.725  12.664  18.543  0.00  0.00    +0.000 C 
ATOM     27  O   UNL     1      -4.564  11.907  18.876  0.00  0.00    +0.000 OA
ENDBRANCH  20  27
ENDBRANCH  19  25
ENDBRANCH  18  19
ENDBRANCH  17  18
ENDBRANCH   1  17
TORSDOF 7
ENDMDL
MODEL 3
REMARK VINA RESULT:      -7.4      4.910      8.567
REMARK  Name = 
REMARK  9 active torsions:
REMARK  status: ('A' for Active; 'I' for Inactive)
REMARK    1  A    between atoms: C_1  and  O_2
REMARK    2  A    between atoms: O_2  and  C_3
REMARK    3  A    between atoms: C_8  and  O_9
REMARK    4  A    between atoms: O_9  and  C_10
REMARK    5  A    between atoms: C_10  and  C_11
REMARK    6  A    between atoms: C_11  and  C_12
REMARK    7  A    between atoms: N_17  and  C_18
REMARK    8  A    between atoms: C_23  and  O_24
REMARK    9  A    between atoms: O_24  and  C_25
REMARK                            x       y       z     vdW  Elec       q    Type
REMARK                         _______ _______ _______ _____ _____    ______ ____
ROOT
ATOM      1  C   UNL     1       2.103   6.127  19.771  0.00  0.00    +0.000 C 
ATOM      2  O   UNL     1       1.769   5.608  20.839  0.00  0.00    +0.000 OA
ATOM      3  N   UNL     1       1.944   7.479  19.550  0.00  0.00    +0.000 N 
ATOM      4  C   UNL     1       2.331   8.201  18.330  0.00  0.00    +0.000 C 
ATOM      5  C   UNL     1       1.318   9.299  17.996  0.00  0.00    +0.000 C 
ATOM      6  N   UNL     1       1.221  10.209  19.149  0.00  0.00    +0.000 N 
ATOM      7  C   UNL     1       0.693   9.532  20.349  0.00  0.00    +0.000 C 
ATOM      8  C   UNL     1       1.639   8.349  20.704  0.00  0.00    +0.000 C 
ENDROOT
BRANCH   6   9
ATOM      9  C   UNL     1       0.924  11.547  18.903  0.00  0.00    +0.000 A 
ATOM     10  C   UNL     1       1.971  12.498  18.831  0.00  0.00    +0.000 A 
ATOM     11  C   UNL     1       1.744  13.874  18.760  0.00  0.00    +0.000 A 
ATOM     12  C   UNL     1       0.437  14.344  18.735  0.00  0.00    +0.000 A 
ATOM     13  C   UNL     1      -0.616  13.440  18.726  0.00  0.00    +0.000 A 
ATOM     14  C   UNL     1      -0.390  12.053  18.805  0.00  0.00    +0.000 A 
BRANCH  14  15
ATOM     15  O   UNL     1      -1.561  11.338  18.734  0.00  0.00    +0.000 OA
ATOM     16  C   UNL     1      -2.102  11.096  17.445  0.00  0.00    +0.000 C 
ENDBRANCH  14  15
ENDBRANCH   6   9
BRANCH   1  17
ATOM     17  C   UNL     1       2.771   5.273  18.716  0.00  0.00    +0.000 C 
BRANCH  17  18
ATOM     18  C   UNL     1       4.202   5.059  19.178  0.00  0.00    +0.000 C 
BRANCH  18  19
ATOM     19  O   UNL     1       4.771   3.947  18.493  0.00  0.00    +0.000 OA
BRANCH  19  25
ATOM     20  C   UNL     1       6.900   4.591  17.341  0.00  0.00    +0.000 A 
ATOM     21  C   UNL     1       7.523   4.772  16.099  0.00  0.00    +0.000 A 
ATOM     22  C   UNL     1       6.798   4.664  14.914  0.00  0.00    +0.000 A 
ATOM     23  C   UNL     1       5.445   4.345  14.959  0.00  0.00    +0.000 A 
ATOM     24  C   UNL     1       4.825   4.117  16.190  0.00  0.00    +0.000 A 
ATOM     25  C   UNL     1       5.542   4.221  17.392  0.00  0.00    +0.000 A 
BRANCH  20  27
ATOM     26  C   UNL     1       7.800   6.027  19.001  0.00  0.00    +0.000 C 
ATOM     27  O   UNL     1       7.625   4.705  18.496  0.00  0.00    +0.000 OA
ENDBRANCH  20  27
ENDBRANCH  19  25
ENDBRANCH  18  19
ENDBRANCH  17  18
ENDBRANCH   1  17
TORSDOF 7
ENDMDL
MODEL 4
REMARK VINA RESULT:      -7.3      1.197      1.505
REMARK  Name = 
REMARK  9 active torsions:
REMARK  status: ('A' for Active; 'I' for Inactive)
REMARK    1  A    between atoms: C_1  and  O_2
REMARK    2  A    between atoms: O_2  and  C_3
REMARK    3  A    between atoms: C_8  and  O_9
REMARK    4  A    between atoms: O_9  and  C_10
REMARK    5  A    between atoms: C_10  and  C_11
REMARK    6  A    between atoms: C_11  and  C_12
REMARK    7  A    between atoms: N_17  and  C_18
REMARK    8  A    between atoms: C_23  and  O_24
REMARK    9  A    between atoms: O_24  and  C_25
REMARK                            x       y       z     vdW  Elec       q    Type
REMARK                         _______ _______ _______ _____ _____    ______ ____
ROOT
ATOM      1  C   UNL     1       7.574   6.862  17.466  0.00  0.00    +0.000 C 
ATOM      2  O   UNL     1       7.953   7.060  16.309  0.00  0.00    +0.000 OA
ATOM      3  N   UNL     1       6.541   5.990  17.743  0.00  0.00    +0.000 N 
ATOM      4  C   UNL     1       6.030   5.662  19.081  0.00  0.00    +0.000 C 
ATOM      5  C   UNL     1       4.510   5.484  19.060  0.00  0.00    +0.000 C 
ATOM      6  N   UNL     1       4.177   4.432  18.086  0.00  0.00    +0.000 N 
ATOM      7  C   UNL     1       4.553   4.808  16.710  0.00  0.00    +0.000 C 
ATOM      8  C   UNL     1       6.084   5.079  16.674  0.00  0.00    +0.000 C 
ENDROOT
BRANCH   6   9
ATOM      9  C   UNL     1       3.047   3.654  18.324  0.00  0.00    +0.000 A 
ATOM     10  C   UNL     1       1.769   4.136  17.948  0.00  0.00    +0.000 A 
ATOM     11  C   UNL     1       0.581   3.496  18.306  0.00  0.00    +0.000 A 
ATOM     12  C   UNL     1       0.639   2.321  19.045  0.00  0.00    +0.000 A 
ATOM     13  C   UNL     1       1.875   1.776  19.368  0.00  0.00    +0.000 A 
ATOM     14  C   UNL     1       3.074   2.422  19.014  0.00  0.00    +0.000 A 
BRANCH  14  15
ATOM     15  O   UNL     1       4.178   1.693  19.385  0.00  0.00    +0.000 OA
ATOM     16  C   UNL     1       4.655   1.860  20.711  0.00  0.00    +0.000 C 
ENDBRANCH  14  15
ENDBRANCH   6   9
BRANCH   1  17
ATOM     17  C   UNL     1       8.310   7.530  18.606  0.00  0.00    +0.000 C 
BRANCH  17  18
ATOM     18  C   UNL     1       8.511   8.980  18.198  0.00  0.00    +0.000 C 
BRANCH  18  19
ATOM     19  O   UNL     1       8.737   9.781  19.354  0.00  0.00    +0.000 OA
BRANCH  19  25
ATOM     20  C   UNL     1       9.549  12.043  20.061  0.00  0.00    +0.000 A 
ATOM     21  C   UNL     1      10.340  13.143  19.701  0.00  0.00    +0.000 A 
ATOM     22  C   UNL     1      10.936  13.212  18.443  0.00  0.00    +0.000 A 
ATOM     23  C   UNL     1      10.768  12.167  17.542  0.00  0.00    +0.000 A 
ATOM     24  C   UNL     1      10.020  11.045  17.908  0.00  0.00    +0.000 A 
ATOM     25  C   UNL     1       9.414  10.960  19.171  0.00  0.00    +0.000 A 
BRANCH  20  27
ATOM     26  C   UNL     1       9.269  13.070  22.181  0.00  0.00    +0.000 C 
ATOM     27  O   UNL     1       8.966  11.992  21.298  0.00  0.00    +0.000 OA
ENDBRANCH  20  27
ENDBRANCH  19  25
ENDBRANCH  18  19
ENDBRANCH  17  18
ENDBRANCH   1  17
TORSDOF 7
ENDMDL
MODEL 5
REMARK VINA RESULT:      -7.3      6.493      8.959
REMARK  Name = 
REMARK  9 active torsions:
REMARK  status: ('A' for Active; 'I' for Inactive)
REMARK    1  A    between atoms: C_1  and  O_2
REMARK    2  A    between atoms: O_2  and  C_3
REMARK    3  A    between atoms: C_8  and  O_9
REMARK    4  A    between atoms: O_9  and  C_10
REMARK    5  A    between atoms: C_10  and  C_11
REMARK    6  A    between atoms: C_11  and  C_12
REMARK    7  A    between atoms: N_17  and  C_18
REMARK    8  A    between atoms: C_23  and  O_24
REMARK    9  A    between atoms: O_24  and  C_25
REMARK                            x       y       z     vdW  Elec       q    Type
REMARK                         _______ _______ _______ _____ _____    ______ ____
ROOT
ATOM      1  C   UNL     1       0.978  10.621  20.283  0.00  0.00    +0.000 C 
ATOM      2  O   UNL     1       0.891  10.694  21.512  0.00  0.00    +0.000 OA
ATOM      3  N   UNL     1       1.309   9.437  19.656  0.00  0.00    +0.000 N 
ATOM      4  C   UNL     1       1.414   9.234  18.205  0.00  0.00    +0.000 C 
ATOM      5  C   UNL     1       2.564   8.283  17.864  0.00  0.00    +0.000 C 
ATOM      6  N   UNL     1       2.341   7.011  18.569  0.00  0.00    +0.000 N 
ATOM      7  C   UNL     1       2.379   7.172  20.035  0.00  0.00    +0.000 C 
ATOM      8  C   UNL     1       1.277   8.190  20.447  0.00  0.00    +0.000 C 
ENDROOT
BRANCH   6   9
ATOM      9  C   UNL     1       2.809   5.842  17.973  0.00  0.00    +0.000 A 
ATOM     10  C   UNL     1       1.956   4.717  17.866  0.00  0.00    +0.000 A 
ATOM     11  C   UNL     1       2.402   3.464  17.441  0.00  0.00    +0.000 A 
ATOM     12  C   UNL     1       3.735   3.305  17.081  0.00  0.00    +0.000 A 
ATOM     13  C   UNL     1       4.585   4.402  17.100  0.00  0.00    +0.000 A 
ATOM     14  C   UNL     1       4.139   5.665  17.534  0.00  0.00    +0.000 A 
BRANCH  14  15
ATOM     15  O   UNL     1       5.122   6.619  17.429  0.00  0.00    +0.000 OA
ATOM     16  C   UNL     1       6.403   6.297  17.945  0.00  0.00    +0.000 C 
ENDBRANCH  14  15
ENDBRANCH   6   9
BRANCH   1  17
ATOM     17  C   UNL     1       0.638  11.835  19.448  0.00  0.00    +0.000 C 
BRANCH  17  18
ATOM     18  C   UNL     1      -0.855  12.066  19.612  0.00  0.00    +0.000 C 
BRANCH  18  19
ATOM     19  O   UNL     1      -1.565  10.864  19.327  0.00  0.00    +0.000 OA
BRANCH  19  25
ATOM     20  C   UNL     1      -3.628  11.570  18.096  0.00  0.00    +0.000 A 
ATOM     21  C   UNL     1      -4.318  11.503  16.877  0.00  0.00    +0.000 A 
ATOM     22  C   UNL     1      -3.850  10.703  15.836  0.00  0.00    +0.000 A 
ATOM     23  C   UNL     1      -2.671   9.983  15.995  0.00  0.00    +0.000 A 
ATOM     24  C   UNL     1      -1.952  10.080  17.189  0.00  0.00    +0.000 A 
ATOM     25  C   UNL     1      -2.410  10.881  18.246  0.00  0.00    +0.000 A 
BRANCH  20  27
ATOM     26  C   UNL     1      -5.407  12.042  19.593  0.00  0.00    +0.000 C 
ATOM     27  O   UNL     1      -4.103  12.357  19.110  0.00  0.00    +0.000 OA
ENDBRANCH  20  27
ENDBRANCH  19  25
ENDBRANCH  18  19
ENDBRANCH  17  18
ENDBRANCH   1  17
TORSDOF 7
ENDMDL
MODEL 6
REMARK VINA RESULT:      -7.2      4.934      8.289
REMARK  Name = 
REMARK  9 active torsions:
REMARK  status: ('A' for Active; 'I' for Inactive)
REMARK    1  A    between atoms: C_1  and  O_2
REMARK    2  A    between atoms: O_2  and  C_3
REMARK    3  A    between atoms: C_8  and  O_9
REMARK    4  A    between atoms: O_9  and  C_10
REMARK    5  A    between atoms: C_10  and  C_11
REMARK    6  A    between atoms: C_11  and  C_12
REMARK    7  A    between atoms: N_17  and  C_18
REMARK    8  A    between atoms: C_23  and  O_24
REMARK    9  A    between atoms: O_24  and  C_25
REMARK                            x       y       z     vdW  Elec       q    Type
REMARK                         _______ _______ _______ _____ _____    ______ ____
ROOT
ATOM      1  C   UNL     1       2.288   5.936  19.721  0.00  0.00    +0.000 C 
ATOM      2  O   UNL     1       1.942   5.389  20.771  0.00  0.00    +0.000 OA
ATOM      3  N   UNL     1       2.063   7.279  19.502  0.00  0.00    +0.000 N 
ATOM      4  C   UNL     1       2.457   8.032  18.304  0.00  0.00    +0.000 C 
ATOM      5  C   UNL     1       1.398   9.075  17.937  0.00  0.00    +0.000 C 
ATOM      6  N   UNL     1       1.203   9.967  19.090  0.00  0.00    +0.000 N 
ATOM      7  C   UNL     1       0.667   9.251  20.264  0.00  0.00    +0.000 C 
ATOM      8  C   UNL     1       1.663   8.120  20.649  0.00  0.00    +0.000 C 
ENDROOT
BRANCH   6   9
ATOM      9  C   UNL     1       0.842  11.289  18.841  0.00  0.00    +0.000 A 
ATOM     10  C   UNL     1       1.818  12.312  18.918  0.00  0.00    +0.000 A 
ATOM     11  C   UNL     1       1.502  13.670  18.852  0.00  0.00    +0.000 A 
ATOM     12  C   UNL     1       0.177  14.050  18.681  0.00  0.00    +0.000 A 
ATOM     13  C   UNL     1      -0.800  13.076  18.525  0.00  0.00    +0.000 A 
ATOM     14  C   UNL     1      -0.485  11.706  18.598  0.00  0.00    +0.000 A 
BRANCH  14  15
ATOM     15  O   UNL     1      -1.585  10.914  18.371  0.00  0.00    +0.000 OA
ATOM     16  C   UNL     1      -2.736  11.537  17.825  0.00  0.00    +0.000 C 
ENDBRANCH  14  15
ENDBRANCH   6   9
BRANCH   1  17
ATOM     17  C   UNL     1       3.045   5.130  18.688  0.00  0.00    +0.000 C 
BRANCH  17  18
ATOM     18  C   UNL     1       3.815   4.066  19.451  0.00  0.00    +0.000 C 
BRANCH  18  19
ATOM     19  O   UNL     1       4.890   3.579  18.652  0.00  0.00    +0.000 OA
BRANCH  19  25
ATOM     20  C   UNL     1       5.991   4.808  16.767  0.00  0.00    +0.000 A 
ATOM     21  C   UNL     1       6.866   5.850  16.433  0.00  0.00    +0.000 A 
ATOM     22  C   UNL     1       7.554   6.550  17.423  0.00  0.00    +0.000 A 
ATOM     23  C   UNL     1       7.349   6.232  18.761  0.00  0.00    +0.000 A 
ATOM     24  C   UNL     1       6.443   5.227  19.107  0.00  0.00    +0.000 A 
ATOM     25  C   UNL     1       5.744   4.513  18.122  0.00  0.00    +0.000 A 
BRANCH  20  27
ATOM     26  C   UNL     1       5.987   4.041  14.522  0.00  0.00    +0.000 C 
ATOM     27  O   UNL     1       5.327   4.127  15.783  0.00  0.00    +0.000 OA
ENDBRANCH  20  27
ENDBRANCH  19  25
ENDBRANCH  18  19
ENDBRANCH  17  18
ENDBRANCH   1  17
TORSDOF 7
ENDMDL
MODEL 7
REMARK VINA RESULT:      -7.2      4.769      8.576
REMARK  Name = 
REMARK  9 active torsions:
REMARK  status: ('A' for Active; 'I' for Inactive)
REMARK    1  A    between atoms: C_1  and  O_2
REMARK    2  A    between atoms: O_2  and  C_3
REMARK    3  A    between atoms: C_8  and  O_9
REMARK    4  A    between atoms: O_9  and  C_10
REMARK    5  A    between atoms: C_10  and  C_11
REMARK    6  A    between atoms: C_11  and  C_12
REMARK    7  A    between atoms: N_17  and  C_18
REMARK    8  A    between atoms: C_23  and  O_24
REMARK    9  A    between atoms: O_24  and  C_25
REMARK                            x       y       z     vdW  Elec       q    Type
REMARK                         _______ _______ _______ _____ _____    ______ ____
ROOT
ATOM      1  C   UNL     1       2.240   6.209  19.781  0.00  0.00    +0.000 C 
ATOM      2  O   UNL     1       1.963   5.538  20.778  0.00  0.00    +0.000 OA
ATOM      3  N   UNL     1       1.933   7.552  19.711  0.00  0.00    +0.000 N 
ATOM      4  C   UNL     1       2.241   8.446  18.587  0.00  0.00    +0.000 C 
ATOM      5  C   UNL     1       1.113   9.457  18.363  0.00  0.00    +0.000 C 
ATOM      6  N   UNL     1       0.911  10.213  19.610  0.00  0.00    +0.000 N 
ATOM      7  C   UNL     1       0.459   9.349  20.717  0.00  0.00    +0.000 C 
ATOM      8  C   UNL     1       1.529   8.246  20.951  0.00  0.00    +0.000 C 
ENDROOT
BRANCH   6   9
ATOM      9  C   UNL     1       0.468  11.529  19.511  0.00  0.00    +0.000 A 
ATOM     10  C   UNL     1      -0.834  11.868  19.951  0.00  0.00    +0.000 A 
ATOM     11  C   UNL     1      -1.410  13.121  19.728  0.00  0.00    +0.000 A 
ATOM     12  C   UNL     1      -0.674  14.096  19.067  0.00  0.00    +0.000 A 
ATOM     13  C   UNL     1       0.635  13.828  18.688  0.00  0.00    +0.000 A 
ATOM     14  C   UNL     1       1.215  12.564  18.905  0.00  0.00    +0.000 A 
BRANCH  14  15
ATOM     15  O   UNL     1       2.526  12.525  18.500  0.00  0.00    +0.000 OA
ATOM     16  C   UNL     1       3.214  13.761  18.392  0.00  0.00    +0.000 C 
ENDBRANCH  14  15
ENDBRANCH   6   9
BRANCH   1  17
ATOM     17  C   UNL     1       3.002   5.559  18.647  0.00  0.00    +0.000 C 
BRANCH  17  18
ATOM     18  C   UNL     1       4.220   4.898  19.269  0.00  0.00    +0.000 C 
BRANCH  18  19
ATOM     19  O   UNL     1       4.673   3.834  18.436  0.00  0.00    +0.000 OA
BRANCH  19  25
ATOM     20  C   UNL     1       6.822   4.576  17.386  0.00  0.00    +0.000 A 
ATOM     21  C   UNL     1       7.482   4.824  16.174  0.00  0.00    +0.000 A 
ATOM     22  C   UNL     1       6.800   4.748  14.961  0.00  0.00    +0.000 A 
ATOM     23  C   UNL     1       5.454   4.396  14.947  0.00  0.00    +0.000 A 
ATOM     24  C   UNL     1       4.799   4.101  16.145  0.00  0.00    +0.000 A 
ATOM     25  C   UNL     1       5.473   4.173  17.374  0.00  0.00    +0.000 A 
BRANCH  20  27
ATOM     26  C   UNL     1       7.844   5.973  19.008  0.00  0.00    +0.000 C 
ATOM     27  O   UNL     1       7.505   4.660  18.568  0.00  0.00    +0.000 OA
ENDBRANCH  20  27
ENDBRANCH  19  25
ENDBRANCH  18  19
ENDBRANCH  17  18
ENDBRANCH   1  17
TORSDOF 7
ENDMDL
MODEL 8
REMARK VINA RESULT:      -7.0      5.370      8.643
REMARK  Name = 
REMARK  9 active torsions:
REMARK  status: ('A' for Active; 'I' for Inactive)
REMARK    1  A    between atoms: C_1  and  O_2
REMARK    2  A    between atoms: O_2  and  C_3
REMARK    3  A    between atoms: C_8  and  O_9
REMARK    4  A    between atoms: O_9  and  C_10
REMARK    5  A    between atoms: C_10  and  C_11
REMARK    6  A    between atoms: C_11  and  C_12
REMARK    7  A    between atoms: N_17  and  C_18
REMARK    8  A    between atoms: C_23  and  O_24
REMARK    9  A    between atoms: O_24  and  C_25
REMARK                            x       y       z     vdW  Elec       q    Type
REMARK                         _______ _______ _______ _____ _____    ______ ____
ROOT
ATOM      1  C   UNL     1       2.097   6.241  19.893  0.00  0.00    +0.000 C 
ATOM      2  O   UNL     1       1.833   5.515  20.854  0.00  0.00    +0.000 OA
ATOM      3  N   UNL     1       1.761   7.579  19.891  0.00  0.00    +0.000 N 
ATOM      4  C   UNL     1       2.052   8.536  18.814  0.00  0.00    +0.000 C 
ATOM      5  C   UNL     1       0.902   9.532  18.640  0.00  0.00    +0.000 C 
ATOM      6  N   UNL     1       0.683  10.220  19.923  0.00  0.00    +0.000 N 
ATOM      7  C   UNL     1       0.247   9.291  20.984  0.00  0.00    +0.000 C 
ATOM      8  C   UNL     1       1.341   8.200  21.164  0.00  0.00    +0.000 C 
ENDROOT
BRANCH   6   9
ATOM      9  C   UNL     1       0.212  11.530  19.890  0.00  0.00    +0.000 A 
ATOM     10  C   UNL     1       0.070  12.196  18.649  0.00  0.00    +0.000 A 
ATOM     11  C   UNL     1      -0.230  13.556  18.546  0.00  0.00    +0.000 A 
ATOM     12  C   UNL     1      -0.421  14.297  19.706  0.00  0.00    +0.000 A 
ATOM     13  C   UNL     1      -0.365  13.664  20.940  0.00  0.00    +0.000 A 
ATOM     14  C   UNL     1      -0.057  12.294  21.047  0.00  0.00    +0.000 A 
BRANCH  14  15
ATOM     15  O   UNL     1      -0.101  11.859  22.348  0.00  0.00    +0.000 OA
ATOM     16  C   UNL     1      -1.353  11.908  23.013  0.00  0.00    +0.000 C 
ENDBRANCH  14  15
ENDBRANCH   6   9
BRANCH   1  17
ATOM     17  C   UNL     1       2.875   5.667  18.729  0.00  0.00    +0.000 C 
BRANCH  17  18
ATOM     18  C   UNL     1       4.266   5.355  19.253  0.00  0.00    +0.000 C 
BRANCH  18  19
ATOM     19  O   UNL     1       4.763   4.172  18.633  0.00  0.00    +0.000 OA
BRANCH  19  25
ATOM     20  C   UNL     1       6.909   4.574  17.406  0.00  0.00    +0.000 A 
ATOM     21  C   UNL     1       7.512   4.652  16.143  0.00  0.00    +0.000 A 
ATOM     22  C   UNL     1       6.747   4.569  14.980  0.00  0.00    +0.000 A 
ATOM     23  C   UNL     1       5.372   4.379  15.071  0.00  0.00    +0.000 A 
ATOM     24  C   UNL     1       4.768   4.253  16.325  0.00  0.00    +0.000 A 
ATOM     25  C   UNL     1       5.525   4.334  17.504  0.00  0.00    +0.000 A 
BRANCH  20  27
ATOM     26  C   UNL     1       7.871   5.973  19.063  0.00  0.00    +0.000 C 
ATOM     27  O   UNL     1       7.673   4.663  18.537  0.00  0.00    +0.000 OA
ENDBRANCH  20  27
ENDBRANCH  19  25
ENDBRANCH  18  19
ENDBRANCH  17  18
ENDBRANCH   1  17
TORSDOF 7
ENDMDL
MODEL 9
REMARK VINA RESULT:      -7.0      6.762      9.187
REMARK  Name = 
REMARK  9 active torsions:
REMARK  status: ('A' for Active; 'I' for Inactive)
REMARK    1  A    between atoms: C_1  and  O_2
REMARK    2  A    between atoms: O_2  and  C_3
REMARK    3  A    between atoms: C_8  and  O_9
REMARK    4  A    between atoms: O_9  and  C_10
REMARK    5  A    between atoms: C_10  and  C_11
REMARK    6  A    between atoms: C_11  and  C_12
REMARK    7  A    between atoms: N_17  and  C_18
REMARK    8  A    between atoms: C_23  and  O_24
REMARK    9  A    between atoms: O_24  and  C_25
REMARK                            x       y       z     vdW  Elec       q    Type
REMARK                         _______ _______ _______ _____ _____    ______ ____
ROOT
ATOM      1  C   UNL     1       0.945  10.786  20.172  0.00  0.00    +0.000 C 
ATOM      2  O   UNL     1       0.803  10.941  21.388  0.00  0.00    +0.000 OA
ATOM      3  N   UNL     1       1.303   9.564  19.641  0.00  0.00    +0.000 N 
ATOM      4  C   UNL     1       1.472   9.265  18.213  0.00  0.00    +0.000 C 
ATOM      5  C   UNL     1       2.637   8.297  17.988  0.00  0.00    +0.000 C 
ATOM      6  N   UNL     1       2.381   7.073  18.765  0.00  0.00    +0.000 N 
ATOM      7  C   UNL     1       2.353   7.332  20.218  0.00  0.00    +0.000 C 
ATOM      8  C   UNL     1       1.235   8.373  20.511  0.00  0.00    +0.000 C 
ENDROOT
BRANCH   6   9
ATOM      9  C   UNL     1       2.875   5.869  18.270  0.00  0.00    +0.000 A 
ATOM     10  C   UNL     1       4.078   5.856  17.523  0.00  0.00    +0.000 A 
ATOM     11  C   UNL     1       4.543   4.723  16.852  0.00  0.00    +0.000 A 
ATOM     12  C   UNL     1       3.814   3.543  16.930  0.00  0.00    +0.000 A 
ATOM     13  C   UNL     1       2.670   3.494  17.714  0.00  0.00    +0.000 A 
ATOM     14  C   UNL     1       2.195   4.637  18.386  0.00  0.00    +0.000 A 
BRANCH  14  15
ATOM     15  O   UNL     1       1.081   4.362  19.141  0.00  0.00    +0.000 OA
ATOM     16  C   UNL     1       1.283   3.746  20.403  0.00  0.00    +0.000 C 
ENDBRANCH  14  15
ENDBRANCH   6   9
BRANCH   1  17
ATOM     17  C   UNL     1       0.643  11.942  19.244  0.00  0.00    +0.000 C 
BRANCH  17  18
ATOM     18  C   UNL     1      -0.853  12.192  19.340  0.00  0.00    +0.000 C 
BRANCH  18  19
ATOM     19  O   UNL     1      -1.558  11.199  18.599  0.00  0.00    +0.000 OA
BRANCH  19  25
ATOM     20  C   UNL     1      -3.727  10.935  17.376  0.00  0.00    +0.000 A 
ATOM     21  C   UNL     1      -5.104  11.197  17.410  0.00  0.00    +0.000 A 
ATOM     22  C   UNL     1      -5.658  11.971  18.428  0.00  0.00    +0.000 A 
ATOM     23  C   UNL     1      -4.841  12.469  19.439  0.00  0.00    +0.000 A 
ATOM     24  C   UNL     1      -3.476  12.174  19.439  0.00  0.00    +0.000 A 
ATOM     25  C   UNL     1      -2.904  11.395  18.421  0.00  0.00    +0.000 A 
BRANCH  20  27
ATOM     26  C   UNL     1      -3.295  10.721  15.053  0.00  0.00    +0.000 C 
ATOM     27  O   UNL     1      -3.199  10.176  16.367  0.00  0.00    +0.000 OA
ENDBRANCH  20  27
ENDBRANCH  19  25
ENDBRANCH  18  19
ENDBRANCH  17  18
ENDBRANCH   1  17
TORSDOF 7
ENDMDL
