MODEL 1
REMARK VINA RESULT:      -8.2      0.000      0.000
REMARK  Name = 
REMARK  8 active torsions:
REMARK  status: ('A' for Active; 'I' for Inactive)
REMARK    1  A    between atoms: C_1  and  O_2
REMARK    2  A    between atoms: O_2  and  C_3
REMARK    3  A    between atoms: C_8  and  C_9
REMARK    4  A    between atoms: C_13  and  N_14
REMARK    5  A    between atoms: N_14  and  C_15
REMARK    6  A    between atoms: C_15  and  C_16
REMARK    7  A    between atoms: C_16  and  C_17
REMARK    8  A    between atoms: C_24  and  C_25
REMARK                            x       y       z     vdW  Elec       q    Type
REMARK                         _______ _______ _______ _____ _____    ______ ____
ROOT
ATOM      1  C   UNL     1       1.827   8.145  19.495  0.00  0.00    +0.000 A 
ATOM      2  C   UNL     1       2.396   8.506  18.253  0.00  0.00    +0.000 A 
ATOM      3  N   UNL     1       2.989   7.494  17.612  0.00  0.00    +0.000 NA
ATOM      4  N   UNL     1       2.795   6.424  18.435  0.00  0.00    +0.000 N 
ATOM      5  C   UNL     1       3.174   5.072  18.195  0.00  0.00    +0.000 A 
ATOM      6  C   UNL     1       2.891   4.154  19.134  0.00  0.00    +0.000 A 
ATOM      7  C   UNL     1       2.190   4.636  20.355  0.00  0.00    +0.000 A 
ATOM      8  C   UNL     1       1.900   3.618  21.433  0.00  0.00    +0.000 C 
ATOM      9  N   UNL     1       1.810   5.859  20.567  0.00  0.00    +0.000 NA
ATOM     10  C   UNL     1       2.104   6.782  19.598  0.00  0.00    +0.000 A 
ENDROOT
BRANCH   1  16
ATOM     11  C   UNL     1       0.112   9.898  20.162  0.00  0.00    +0.000 A 
ATOM     12  C   UNL     1      -0.621  10.529  21.185  0.00  0.00    +0.000 A 
ATOM     13  C   UNL     1      -0.352  10.274  22.529  0.00  0.00    +0.000 A 
ATOM     14  C   UNL     1       0.654   9.383  22.868  0.00  0.00    +0.000 A 
ATOM     15  C   UNL     1       1.361   8.723  21.862  0.00  0.00    +0.000 A 
ATOM     16  C   UNL     1       1.089   8.932  20.494  0.00  0.00    +0.000 A 
BRANCH  11  18
ATOM     17  C   UNL     1      -1.518  10.333  18.507  0.00  0.00    +0.000 C 
ATOM     18  O   UNL     1      -0.138  10.166  18.836  0.00  0.00    +0.000 OA
ENDBRANCH  11  18
ENDBRANCH   1  16
BRANCH   5  19
ATOM     19  N   UNL     1       3.799   4.749  16.971  0.00  0.00    +0.000 N 
ATOM     20  H   UNL     1       3.061   4.504  16.298  0.00  0.00    +0.000 HD
BRANCH  19  21
ATOM     21  C   UNL     1       4.861   3.730  16.971  0.00  0.00    +0.000 C 
BRANCH  21  22
ATOM     22  C   UNL     1       6.140   4.232  16.300  0.00  0.00    +0.000 C 
BRANCH  22  23
ATOM     23  C   UNL     1       6.800   5.296  17.149  0.00  0.00    +0.000 A 
ATOM     24  C   UNL     1       6.912   6.615  16.686  0.00  0.00    +0.000 A 
ATOM     25  C   UNL     1       7.589   7.575  17.441  0.00  0.00    +0.000 A 
ATOM     26  C   UNL     1       8.161   7.228  18.664  0.00  0.00    +0.000 A 
ATOM     27  C   UNL     1       8.052   5.921  19.136  0.00  0.00    +0.000 A 
ATOM     28  C   UNL     1       7.376   4.960  18.383  0.00  0.00    +0.000 A 
ENDBRANCH  22  23
ENDBRANCH  21  22
ENDBRANCH  19  21
ENDBRANCH   5  19
TORSDOF 6
ENDMDL
MODEL 2
REMARK VINA RESULT:      -8.0      3.070      5.976
REMARK  Name = 
REMARK  8 active torsions:
REMARK  status: ('A' for Active; 'I' for Inactive)
REMARK    1  A    between atoms: C_1  and  O_2
REMARK    2  A    between atoms: O_2  and  C_3
REMARK    3  A    between atoms: C_8  and  C_9
REMARK    4  A    between atoms: C_13  and  N_14
REMARK    5  A    between atoms: N_14  and  C_15
REMARK    6  A    between atoms: C_15  and  C_16
REMARK    7  A    between atoms: C_16  and  C_17
REMARK    8  A    between atoms: C_24  and  C_25
REMARK                            x       y       z     vdW  Elec       q    Type
REMARK                         _______ _______ _______ _____ _____    ______ ____
ROOT
ATOM      1  C   UNL     1       3.917   3.775  18.185  0.00  0.00    +0.000 A 
ATOM      2  C   UNL     1       3.672   3.410  16.842  0.00  0.00    +0.000 A 
ATOM      3  N   UNL     1       4.695   3.658  16.017  0.00  0.00    +0.000 NA
ATOM      4  N   UNL     1       5.654   4.184  16.830  0.00  0.00    +0.000 N 
ATOM      5  C   UNL     1       6.977   4.566  16.466  0.00  0.00    +0.000 A 
ATOM      6  C   UNL     1       7.781   5.067  17.419  0.00  0.00    +0.000 A 
ATOM      7  C   UNL     1       7.213   5.174  18.790  0.00  0.00    +0.000 A 
ATOM      8  C   UNL     1       8.097   5.771  19.860  0.00  0.00    +0.000 C 
ATOM      9  N   UNL     1       6.020   4.798  19.137  0.00  0.00    +0.000 NA
ATOM     10  C   UNL     1       5.215   4.285  18.155  0.00  0.00    +0.000 A 
ENDROOT
BRANCH   1  16
ATOM     11  C   UNL     1       2.045   4.575  19.705  0.00  0.00    +0.000 A 
ATOM     12  C   UNL     1       1.226   4.337  20.827  0.00  0.00    +0.000 A 
ATOM     13  C   UNL     1       1.466   3.261  21.680  0.00  0.00    +0.000 A 
ATOM     14  C   UNL     1       2.526   2.407  21.423  0.00  0.00    +0.000 A 
ATOM     15  C   UNL     1       3.321   2.612  20.293  0.00  0.00    +0.000 A 
ATOM     16  C   UNL     1       3.083   3.669  19.391  0.00  0.00    +0.000 A 
BRANCH  11  18
ATOM     17  C   UNL     1       2.529   6.840  19.233  0.00  0.00    +0.000 C 
ATOM     18  O   UNL     1       1.823   5.650  18.876  0.00  0.00    +0.000 OA
ENDBRANCH  11  18
ENDBRANCH   1  16
BRANCH   5  19
ATOM     19  N   UNL     1       7.398   4.371  15.133  0.00  0.00    +0.000 N 
ATOM     20  H   UNL     1       8.425   4.305  15.135  0.00  0.00    +0.000 HD
BRANCH  19  21
ATOM     21  C   UNL     1       6.942   5.319  14.105  0.00  0.00    +0.000 C 
BRANCH  21  22
ATOM     22  C   UNL     1       7.549   5.017  12.734  0.00  0.00    +0.000 C 
BRANCH  22  23
ATOM     23  C   UNL     1       6.894   3.799  12.121  0.00  0.00    +0.000 A 
ATOM     24  C   UNL     1       5.500   3.645  12.150  0.00  0.00    +0.000 A 
ATOM     25  C   UNL     1       4.906   2.484  11.650  0.00  0.00    +0.000 A 
ATOM     26  C   UNL     1       5.697   1.466  11.119  0.00  0.00    +0.000 A 
ATOM     27  C   UNL     1       7.082   1.611  11.082  0.00  0.00    +0.000 A 
ATOM     28  C   UNL     1       7.678   2.770  11.580  0.00  0.00    +0.000 A 
ENDBRANCH  22  23
ENDBRANCH  21  22
ENDBRANCH  19  21
ENDBRANCH   5  19
TORSDOF 6
ENDMDL
MODEL 3
REMARK VINA RESULT:      -8.0      0.512      1.059
REMARK  Name = 
REMARK  8 active torsions:
REMARK  status: ('A' for Active; 'I' for Inactive)
REMARK    1  A    between atoms: C_1  and  O_2
REMARK    2  A    between atoms: O_2  and  C_3
REMARK    3  A    between atoms: C_8  and  C_9
REMARK    4  A    between atoms: C_13  and  N_14
REMARK    5  A    between atoms: N_14  and  C_15
REMARK    6  A    between atoms: C_15  and  C_16
REMARK    7  A    between atoms: C_16  and  C_17
REMARK    8  A    between atoms: C_24  and  C_25
REMARK                            x       y       z     vdW  Elec       q    Type
REMARK                         _______ _______ _______ _____ _____    ______ ____
ROOT
ATOM      1  C   UNL     1       2.043   7.764  19.281  0.00  0.00    +0.000 A 
ATOM      2  C   UNL     1       2.710   8.003  18.057  0.00  0.00    +0.000 A 
ATOM      3  N   UNL     1       3.188   6.899  17.475  0.00  0.00    +0.000 NA
ATOM      4  N   UNL     1       2.817   5.894  18.318  0.00  0.00    +0.000 N 
ATOM      5  C   UNL     1       3.022   4.496  18.135  0.00  0.00    +0.000 A 
ATOM      6  C   UNL     1       2.578   3.657  19.086  0.00  0.00    +0.000 A 
ATOM      7  C   UNL     1       1.895   4.269  20.258  0.00  0.00    +0.000 A 
ATOM      8  C   UNL     1       1.425   3.337  21.349  0.00  0.00    +0.000 C 
ATOM      9  N   UNL     1       1.674   5.539  20.416  0.00  0.00    +0.000 NA
ATOM     10  C   UNL     1       2.130   6.380  19.436  0.00  0.00    +0.000 A 
ENDROOT
BRANCH   1  16
ATOM     11  C   UNL     1       0.604   9.789  19.815  0.00  0.00    +0.000 A 
ATOM     12  C   UNL     1      -0.089  10.546  20.779  0.00  0.00    +0.000 A 
ATOM     13  C   UNL     1       0.030  10.266  22.139  0.00  0.00    +0.000 A 
ATOM     14  C   UNL     1       0.840   9.222  22.555  0.00  0.00    +0.000 A 
ATOM     15  C   UNL     1       1.501   8.440  21.605  0.00  0.00    +0.000 A 
ATOM     16  C   UNL     1       1.375   8.675  20.221  0.00  0.00    +0.000 A 
BRANCH  11  18
ATOM     17  C   UNL     1      -0.806   9.945  17.925  0.00  0.00    +0.000 C 
ATOM     18  O   UNL     1       0.506  10.080  18.474  0.00  0.00    +0.000 OA
ENDBRANCH  11  18
ENDBRANCH   1  16
BRANCH   5  19
ATOM     19  N   UNL     1       3.651   4.051  16.953  0.00  0.00    +0.000 N 
ATOM     20  H   UNL     1       3.090   3.278  16.572  0.00  0.00    +0.000 HD
BRANCH  19  21
ATOM     21  C   UNL     1       5.074   3.680  17.009  0.00  0.00    +0.000 C 
BRANCH  21  22
ATOM     22  C   UNL     1       5.943   4.603  16.154  0.00  0.00    +0.000 C 
BRANCH  22  23
ATOM     23  C   UNL     1       6.771   5.514  17.032  0.00  0.00    +0.000 A 
ATOM     24  C   UNL     1       7.305   5.049  18.243  0.00  0.00    +0.000 A 
ATOM     25  C   UNL     1       8.005   5.915  19.087  0.00  0.00    +0.000 A 
ATOM     26  C   UNL     1       8.177   7.251  18.731  0.00  0.00    +0.000 A 
ATOM     27  C   UNL     1       7.655   7.723  17.528  0.00  0.00    +0.000 A 
ATOM     28  C   UNL     1       6.955   6.859  16.683  0.00  0.00    +0.000 A 
ENDBRANCH  22  23
ENDBRANCH  21  22
ENDBRANCH  19  21
ENDBRANCH   5  19
TORSDOF 6
ENDMDL
MODEL 4
REMARK VINA RESULT:      -7.8      4.194      6.544
REMARK  Name = 
REMARK  8 active torsions:
REMARK  status: ('A' for Active; 'I' for Inactive)
REMARK    1  A    between atoms: C_1  and  O_2
REMARK    2  A    between atoms: O_2  and  C_3
REMARK    3  A    between atoms: C_8  and  C_9
REMARK    4  A    between atoms: C_13  and  N_14
REMARK    5  A    between atoms: N_14  and  C_15
REMARK    6  A    between atoms: C_15  and  C_16
REMARK    7  A    between atoms: C_16  and  C_17
REMARK    8  A    between atoms: C_24  and  C_25
REMARK                            x       y       z     vdW  Elec       q    Type
REMARK                         _______ _______ _______ _____ _____    ______ ____
ROOT
ATOM      1  C   UNL     1       3.736   4.041  18.216  0.00  0.00    +0.000 A 
ATOM      2  C   UNL     1       3.367   4.036  16.852  0.00  0.00    +0.000 A 
ATOM      3  N   UNL     1       4.281   4.575  16.040  0.00  0.00    +0.000 NA
ATOM      4  N   UNL     1       5.296   4.934  16.877  0.00  0.00    +0.000 N 
ATOM      5  C   UNL     1       6.552   5.500  16.515  0.00  0.00    +0.000 A 
ATOM      6  C   UNL     1       7.428   5.784  17.494  0.00  0.00    +0.000 A 
ATOM      7  C   UNL     1       7.006   5.472  18.886  0.00  0.00    +0.000 A 
ATOM      8  C   UNL     1       7.969   5.823  19.996  0.00  0.00    +0.000 C 
ATOM      9  N   UNL     1       5.877   4.925  19.221  0.00  0.00    +0.000 NA
ATOM     10  C   UNL     1       4.997   4.639  18.212  0.00  0.00    +0.000 A 
ENDROOT
BRANCH   1  16
ATOM     11  C   UNL     1       3.593   2.591  20.298  0.00  0.00    +0.000 A 
ATOM     12  C   UNL     1       2.905   2.255  21.480  0.00  0.00    +0.000 A 
ATOM     13  C   UNL     1       1.652   2.794  21.763  0.00  0.00    +0.000 A 
ATOM     14  C   UNL     1       1.069   3.679  20.870  0.00  0.00    +0.000 A 
ATOM     15  C   UNL     1       1.759   4.048  19.714  0.00  0.00    +0.000 A 
ATOM     16  C   UNL     1       3.043   3.549  19.416  0.00  0.00    +0.000 A 
BRANCH  11  18
ATOM     17  C   UNL     1       5.303   1.104  20.970  0.00  0.00    +0.000 C 
ATOM     18  O   UNL     1       4.820   2.042  20.006  0.00  0.00    +0.000 OA
ENDBRANCH  11  18
ENDBRANCH   1  16
BRANCH   5  19
ATOM     19  N   UNL     1       6.837   5.706  15.149  0.00  0.00    +0.000 N 
ATOM     20  H   UNL     1       5.979   6.051  14.699  0.00  0.00    +0.000 HD
BRANCH  19  21
ATOM     21  C   UNL     1       7.416   4.596  14.375  0.00  0.00    +0.000 C 
BRANCH  21  22
ATOM     22  C   UNL     1       7.354   4.851  12.868  0.00  0.00    +0.000 C 
BRANCH  22  23
ATOM     23  C   UNL     1       6.746   3.664  12.156  0.00  0.00    +0.000 A 
ATOM     24  C   UNL     1       5.354   3.500  12.096  0.00  0.00    +0.000 A 
ATOM     25  C   UNL     1       4.800   2.363  11.502  0.00  0.00    +0.000 A 
ATOM     26  C   UNL     1       5.629   1.380  10.964  0.00  0.00    +0.000 A 
ATOM     27  C   UNL     1       7.013   1.535  11.014  0.00  0.00    +0.000 A 
ATOM     28  C   UNL     1       7.569   2.671  11.607  0.00  0.00    +0.000 A 
ENDBRANCH  22  23
ENDBRANCH  21  22
ENDBRANCH  19  21
ENDBRANCH   5  19
TORSDOF 6
ENDMDL
MODEL 5
REMARK VINA RESULT:      -7.7      3.407      6.258
REMARK  Name = 
REMARK  8 active torsions:
REMARK  status: ('A' for Active; 'I' for Inactive)
REMARK    1  A    between atoms: C_1  and  O_2
REMARK    2  A    between atoms: O_2  and  C_3
REMARK    3  A    between atoms: C_8  and  C_9
REMARK    4  A    between atoms: C_13  and  N_14
REMARK    5  A    between atoms: N_14  and  C_15
REMARK    6  A    between atoms: C_15  and  C_16
REMARK    7  A    between atoms: C_16  and  C_17
REMARK    8  A    between atoms: C_24  and  C_25
REMARK                            x       y       z     vdW  Elec       q    Type
REMARK                         _______ _______ _______ _____ _____    ______ ____
ROOT
ATOM      1  C   UNL     1       4.536   5.303  17.672  0.00  0.00    +0.000 A 
ATOM      2  C   UNL     1       4.368   6.277  16.661  0.00  0.00    +0.000 A 
ATOM      3  N   UNL     1       5.373   7.156  16.583  0.00  0.00    +0.000 NA
ATOM      4  N   UNL     1       6.243   6.750  17.550  0.00  0.00    +0.000 N 
ATOM      5  C   UNL     1       7.519   7.307  17.850  0.00  0.00    +0.000 A 
ATOM      6  C   UNL     1       8.235   6.761  18.848  0.00  0.00    +0.000 A 
ATOM      7  C   UNL     1       7.626   5.602  19.556  0.00  0.00    +0.000 A 
ATOM      8  C   UNL     1       8.407   5.005  20.703  0.00  0.00    +0.000 C 
ATOM      9  N   UNL     1       6.479   5.067  19.267  0.00  0.00    +0.000 NA
ATOM     10  C   UNL     1       5.764   5.634  18.245  0.00  0.00    +0.000 A 
ENDROOT
BRANCH   1  16
ATOM     11  C   UNL     1       2.479   4.319  18.793  0.00  0.00    +0.000 A 
ATOM     12  C   UNL     1       1.681   3.188  19.054  0.00  0.00    +0.000 A 
ATOM     13  C   UNL     1       2.101   1.909  18.692  0.00  0.00    +0.000 A 
ATOM     14  C   UNL     1       3.324   1.743  18.061  0.00  0.00    +0.000 A 
ATOM     15  C   UNL     1       4.105   2.862  17.763  0.00  0.00    +0.000 A 
ATOM     16  C   UNL     1       3.693   4.171  18.084  0.00  0.00    +0.000 A 
BRANCH  11  18
ATOM     17  C   UNL     1       1.874   5.748  20.576  0.00  0.00    +0.000 C 
ATOM     18  O   UNL     1       2.076   5.578  19.171  0.00  0.00    +0.000 OA
ENDBRANCH  11  18
ENDBRANCH   1  16
BRANCH   5  19
ATOM     19  N   UNL     1       7.992   8.382  17.068  0.00  0.00    +0.000 N 
ATOM     20  H   UNL     1       8.889   8.098  16.653  0.00  0.00    +0.000 HD
BRANCH  19  21
ATOM     21  C   UNL     1       8.108   9.709  17.694  0.00  0.00    +0.000 C 
BRANCH  21  22
ATOM     22  C   UNL     1       8.934   9.668  18.981  0.00  0.00    +0.000 C 
BRANCH  22  23
ATOM     23  C   UNL     1       9.880  10.846  19.041  0.00  0.00    +0.000 A 
ATOM     24  C   UNL     1      10.465  11.355  17.872  0.00  0.00    +0.000 A 
ATOM     25  C   UNL     1      11.396  12.394  17.941  0.00  0.00    +0.000 A 
ATOM     26  C   UNL     1      11.753  12.933  19.176  0.00  0.00    +0.000 A 
ATOM     27  C   UNL     1      11.175  12.437  20.343  0.00  0.00    +0.000 A 
ATOM     28  C   UNL     1      10.244  11.399  20.277  0.00  0.00    +0.000 A 
ENDBRANCH  22  23
ENDBRANCH  21  22
ENDBRANCH  19  21
ENDBRANCH   5  19
TORSDOF 6
ENDMDL
MODEL 6
REMARK VINA RESULT:      -7.7      3.595      6.397
REMARK  Name = 
REMARK  8 active torsions:
REMARK  status: ('A' for Active; 'I' for Inactive)
REMARK    1  A    between atoms: C_1  and  O_2
REMARK    2  A    between atoms: O_2  and  C_3
REMARK    3  A    between atoms: C_8  and  C_9
REMARK    4  A    between atoms: C_13  and  N_14
REMARK    5  A    between atoms: N_14  and  C_15
REMARK    6  A    between atoms: C_15  and  C_16
REMARK    7  A    between atoms: C_16  and  C_17
REMARK    8  A    between atoms: C_24  and  C_25
REMARK                            x       y       z     vdW  Elec       q    Type
REMARK                         _______ _______ _______ _____ _____    ______ ____
ROOT
ATOM      1  C   UNL     1       4.563   5.410  17.626  0.00  0.00    +0.000 A 
ATOM      2  C   UNL     1       4.437   6.398  16.623  0.00  0.00    +0.000 A 
ATOM      3  N   UNL     1       5.460   7.256  16.574  0.00  0.00    +0.000 NA
ATOM      4  N   UNL     1       6.302   6.823  17.555  0.00  0.00    +0.000 N 
ATOM      5  C   UNL     1       7.582   7.350  17.887  0.00  0.00    +0.000 A 
ATOM      6  C   UNL     1       8.266   6.779  18.893  0.00  0.00    +0.000 A 
ATOM      7  C   UNL     1       7.619   5.626  19.576  0.00  0.00    +0.000 A 
ATOM      8  C   UNL     1       8.363   5.002  20.733  0.00  0.00    +0.000 C 
ATOM      9  N   UNL     1       6.468   5.118  19.258  0.00  0.00    +0.000 NA
ATOM     10  C   UNL     1       5.785   5.709  18.228  0.00  0.00    +0.000 A 
ENDROOT
BRANCH   1  16
ATOM     11  C   UNL     1       2.508   4.449  18.769  0.00  0.00    +0.000 A 
ATOM     12  C   UNL     1       1.673   3.337  18.999  0.00  0.00    +0.000 A 
ATOM     13  C   UNL     1       2.027   2.065  18.554  0.00  0.00    +0.000 A 
ATOM     14  C   UNL     1       3.219   1.885  17.870  0.00  0.00    +0.000 A 
ATOM     15  C   UNL     1       4.035   2.987  17.603  0.00  0.00    +0.000 A 
ATOM     16  C   UNL     1       3.689   4.292  18.008  0.00  0.00    +0.000 A 
BRANCH  11  18
ATOM     17  C   UNL     1       1.825   5.759  20.613  0.00  0.00    +0.000 C 
ATOM     18  O   UNL     1       2.170   5.700  19.228  0.00  0.00    +0.000 OA
ENDBRANCH  11  18
ENDBRANCH   1  16
BRANCH   5  19
ATOM     19  N   UNL     1       8.093   8.424  17.126  0.00  0.00    +0.000 N 
ATOM     20  H   UNL     1       9.074   8.211  16.902  0.00  0.00    +0.000 HD
BRANCH  19  21
ATOM     21  C   UNL     1       7.968   9.788  17.663  0.00  0.00    +0.000 C 
BRANCH  21  22
ATOM     22  C   UNL     1       9.164  10.174  18.536  0.00  0.00    +0.000 C 
BRANCH  22  23
ATOM     23  C   UNL     1       9.726  11.510  18.102  0.00  0.00    +0.000 A 
ATOM     24  C   UNL     1      11.071  11.632  17.722  0.00  0.00    +0.000 A 
ATOM     25  C   UNL     1      11.604  12.881  17.395  0.00  0.00    +0.000 A 
ATOM     26  C   UNL     1      10.800  14.019  17.444  0.00  0.00    +0.000 A 
ATOM     27  C   UNL     1       9.462  13.909  17.816  0.00  0.00    +0.000 A 
ATOM     28  C   UNL     1       8.927  12.661  18.143  0.00  0.00    +0.000 A 
ENDBRANCH  22  23
ENDBRANCH  21  22
ENDBRANCH  19  21
ENDBRANCH   5  19
TORSDOF 6
ENDMDL
MODEL 7
REMARK VINA RESULT:      -7.7      1.573      2.542
REMARK  Name = 
REMARK  8 active torsions:
REMARK  status: ('A' for Active; 'I' for Inactive)
REMARK    1  A    between atoms: C_1  and  O_2
REMARK    2  A    between atoms: O_2  and  C_3
REMARK    3  A    between atoms: C_8  and  C_9
REMARK    4  A    between atoms: C_13  and  N_14
REMARK    5  A    between atoms: N_14  and  C_15
REMARK    6  A    between atoms: C_15  and  C_16
REMARK    7  A    between atoms: C_16  and  C_17
REMARK    8  A    between atoms: C_24  and  C_25
REMARK                            x       y       z     vdW  Elec       q    Type
REMARK                         _______ _______ _______ _____ _____    ______ ____
ROOT
ATOM      1  C   UNL     1       1.926   8.114  19.354  0.00  0.00    +0.000 A 
ATOM      2  C   UNL     1       2.495   8.452  18.105  0.00  0.00    +0.000 A 
ATOM      3  N   UNL     1       3.106   7.432  17.494  0.00  0.00    +0.000 NA
ATOM      4  N   UNL     1       2.925   6.382  18.343  0.00  0.00    +0.000 N 
ATOM      5  C   UNL     1       3.327   5.030  18.141  0.00  0.00    +0.000 A 
ATOM      6  C   UNL     1       3.054   4.133  19.103  0.00  0.00    +0.000 A 
ATOM      7  C   UNL     1       2.340   4.635  20.308  0.00  0.00    +0.000 A 
ATOM      8  C   UNL     1       2.062   3.642  21.411  0.00  0.00    +0.000 C 
ATOM      9  N   UNL     1       1.941   5.857  20.486  0.00  0.00    +0.000 NA
ATOM     10  C   UNL     1       2.224   6.759  19.494  0.00  0.00    +0.000 A 
ENDROOT
BRANCH   1  16
ATOM     11  C   UNL     1       0.285   9.955  19.968  0.00  0.00    +0.000 A 
ATOM     12  C   UNL     1      -0.477  10.599  20.962  0.00  0.00    +0.000 A 
ATOM     13  C   UNL     1      -0.320  10.284  22.310  0.00  0.00    +0.000 A 
ATOM     14  C   UNL     1       0.600   9.317  22.684  0.00  0.00    +0.000 A 
ATOM     15  C   UNL     1       1.333   8.644  21.704  0.00  0.00    +0.000 A 
ATOM     16  C   UNL     1       1.172   8.915  20.330  0.00  0.00    +0.000 A 
BRANCH  11  18
ATOM     17  C   UNL     1      -1.188  10.204  18.136  0.00  0.00    +0.000 C 
ATOM     18  O   UNL     1       0.147  10.283  18.639  0.00  0.00    +0.000 OA
ENDBRANCH  11  18
ENDBRANCH   1  16
BRANCH   5  19
ATOM     19  N   UNL     1       3.962   4.685  16.929  0.00  0.00    +0.000 N 
ATOM     20  H   UNL     1       3.454   3.887  16.525  0.00  0.00    +0.000 HD
BRANCH  19  21
ATOM     21  C   UNL     1       5.411   4.424  16.942  0.00  0.00    +0.000 C 
BRANCH  21  22
ATOM     22  C   UNL     1       6.188   5.452  16.119  0.00  0.00    +0.000 C 
BRANCH  22  23
ATOM     23  C   UNL     1       6.485   4.910  14.739  0.00  0.00    +0.000 A 
ATOM     24  C   UNL     1       7.546   5.425  13.980  0.00  0.00    +0.000 A 
ATOM     25  C   UNL     1       7.769   4.973  12.677  0.00  0.00    +0.000 A 
ATOM     26  C   UNL     1       6.935   4.005  12.119  0.00  0.00    +0.000 A 
ATOM     27  C   UNL     1       5.880   3.484  12.867  0.00  0.00    +0.000 A 
ATOM     28  C   UNL     1       5.656   3.933  14.169  0.00  0.00    +0.000 A 
ENDBRANCH  22  23
ENDBRANCH  21  22
ENDBRANCH  19  21
ENDBRANCH   5  19
TORSDOF 6
ENDMDL
MODEL 8
REMARK VINA RESULT:      -7.7      2.111      7.822
REMARK  Name = 
REMARK  8 active torsions:
REMARK  status: ('A' for Active; 'I' for Inactive)
REMARK    1  A    between atoms: C_1  and  O_2
REMARK    2  A    between atoms: O_2  and  C_3
REMARK    3  A    between atoms: C_8  and  C_9
REMARK    4  A    between atoms: C_13  and  N_14
REMARK    5  A    between atoms: N_14  and  C_15
REMARK    6  A    between atoms: C_15  and  C_16
REMARK    7  A    between atoms: C_16  and  C_17
REMARK    8  A    between atoms: C_24  and  C_25
REMARK                            x       y       z     vdW  Elec       q    Type
REMARK                         _______ _______ _______ _____ _____    ______ ____
ROOT
ATOM      1  C   UNL     1       4.051   6.314  17.767  0.00  0.00    +0.000 A 
ATOM      2  C   UNL     1       3.493   7.611  17.696  0.00  0.00    +0.000 A 
ATOM      3  N   UNL     1       2.530   7.837  18.596  0.00  0.00    +0.000 NA
ATOM      4  N   UNL     1       2.455   6.671  19.299  0.00  0.00    +0.000 N 
ATOM      5  C   UNL     1       1.627   6.396  20.425  0.00  0.00    +0.000 A 
ATOM      6  C   UNL     1       1.699   5.177  20.986  0.00  0.00    +0.000 A 
ATOM      7  C   UNL     1       2.656   4.212  20.378  0.00  0.00    +0.000 A 
ATOM      8  C   UNL     1       2.716   2.827  20.979  0.00  0.00    +0.000 C 
ATOM      9  N   UNL     1       3.438   4.466  19.374  0.00  0.00    +0.000 NA
ATOM     10  C   UNL     1       3.355   5.714  18.816  0.00  0.00    +0.000 A 
ENDROOT
BRANCH   1  16
ATOM     11  C   UNL     1       6.323   5.197  17.552  0.00  0.00    +0.000 A 
ATOM     12  C   UNL     1       7.242   4.495  16.748  0.00  0.00    +0.000 A 
ATOM     13  C   UNL     1       7.022   4.320  15.383  0.00  0.00    +0.000 A 
ATOM     14  C   UNL     1       5.877   4.841  14.803  0.00  0.00    +0.000 A 
ATOM     15  C   UNL     1       4.940   5.505  15.597  0.00  0.00    +0.000 A 
ATOM     16  C   UNL     1       5.116   5.668  16.986  0.00  0.00    +0.000 A 
BRANCH  11  18
ATOM     17  C   UNL     1       7.842   5.913  19.214  0.00  0.00    +0.000 C 
ATOM     18  O   UNL     1       6.552   5.390  18.894  0.00  0.00    +0.000 OA
ENDBRANCH  11  18
ENDBRANCH   1  16
BRANCH   5  19
ATOM     19  N   UNL     1       0.794   7.420  20.923  0.00  0.00    +0.000 N 
ATOM     20  H   UNL     1       0.097   7.637  20.198  0.00  0.00    +0.000 HD
BRANCH  19  21
ATOM     21  C   UNL     1       1.419   8.654  21.426  0.00  0.00    +0.000 C 
BRANCH  21  22
ATOM     22  C   UNL     1       0.700   9.200  22.660  0.00  0.00    +0.000 C 
BRANCH  22  23
ATOM     23  C   UNL     1      -0.255  10.306  22.269  0.00  0.00    +0.000 A 
ATOM     24  C   UNL     1      -0.161  10.924  21.013  0.00  0.00    +0.000 A 
ATOM     25  C   UNL     1      -0.996  11.995  20.686  0.00  0.00    +0.000 A 
ATOM     26  C   UNL     1      -1.931  12.460  21.609  0.00  0.00    +0.000 A 
ATOM     27  C   UNL     1      -2.036  11.851  22.858  0.00  0.00    +0.000 A 
ATOM     28  C   UNL     1      -1.203  10.780  23.187  0.00  0.00    +0.000 A 
ENDBRANCH  22  23
ENDBRANCH  21  22
ENDBRANCH  19  21
ENDBRANCH   5  19
TORSDOF 6
ENDMDL
MODEL 9
REMARK VINA RESULT:      -7.6      3.866      6.385
REMARK  Name = 
REMARK  8 active torsions:
REMARK  status: ('A' for Active; 'I' for Inactive)
REMARK    1  A    between atoms: C_1  and  O_2
REMARK    2  A    between atoms: O_2  and  C_3
REMARK    3  A    between atoms: C_8  and  C_9
REMARK    4  A    between atoms: C_13  and  N_14
REMARK    5  A    between atoms: N_14  and  C_15
REMARK    6  A    between atoms: C_15  and  C_16
REMARK    7  A    between atoms: C_16  and  C_17
REMARK    8  A    between atoms: C_24  and  C_25
REMARK                            x       y       z     vdW  Elec       q    Type
REMARK                         _______ _______ _______ _____ _____    ______ ____
ROOT
ATOM      1  C   UNL     1       3.868   4.390  18.192  0.00  0.00    +0.000 A 
ATOM      2  C   UNL     1       3.594   4.447  16.806  0.00  0.00    +0.000 A 
ATOM      3  N   UNL     1       4.613   4.904  16.070  0.00  0.00    +0.000 NA
ATOM      4  N   UNL     1       5.598   5.140  16.982  0.00  0.00    +0.000 N 
ATOM      5  C   UNL     1       6.928   5.579  16.719  0.00  0.00    +0.000 A 
ATOM      6  C   UNL     1       7.759   5.754  17.761  0.00  0.00    +0.000 A 
ATOM      7  C   UNL     1       7.212   5.462  19.114  0.00  0.00    +0.000 A 
ATOM      8  C   UNL     1       8.127   5.692  20.294  0.00  0.00    +0.000 C 
ATOM      9  N   UNL     1       6.013   5.029  19.359  0.00  0.00    +0.000 NA
ATOM     10  C   UNL     1       5.180   4.853  18.286  0.00  0.00    +0.000 A 
ENDROOT
BRANCH   1  16
ATOM     11  C   UNL     1       3.294   2.764  20.058  0.00  0.00    +0.000 A 
ATOM     12  C   UNL     1       2.522   2.474  21.200  0.00  0.00    +0.000 A 
ATOM     13  C   UNL     1       1.466   3.297  21.586  0.00  0.00    +0.000 A 
ATOM     14  C   UNL     1       1.168   4.424  20.837  0.00  0.00    +0.000 A 
ATOM     15  C   UNL     1       1.950   4.742  19.725  0.00  0.00    +0.000 A 
ATOM     16  C   UNL     1       3.047   3.950  19.329  0.00  0.00    +0.000 A 
BRANCH  11  18
ATOM     17  C   UNL     1       3.981   1.001  18.641  0.00  0.00    +0.000 C 
ATOM     18  O   UNL     1       4.321   1.939  19.664  0.00  0.00    +0.000 OA
ENDBRANCH  11  18
ENDBRANCH   1  16
BRANCH   5  19
ATOM     19  N   UNL     1       7.325   5.780  15.380  0.00  0.00    +0.000 N 
ATOM     20  H   UNL     1       6.721   6.510  14.980  0.00  0.00    +0.000 HD
BRANCH  19  21
ATOM     21  C   UNL     1       7.393   4.615  14.484  0.00  0.00    +0.000 C 
BRANCH  21  22
ATOM     22  C   UNL     1       6.870   4.935  13.083  0.00  0.00    +0.000 C 
BRANCH  22  23
ATOM     23  C   UNL     1       6.520   3.662  12.345  0.00  0.00    +0.000 A 
ATOM     24  C   UNL     1       7.528   2.825  11.844  0.00  0.00    +0.000 A 
ATOM     25  C   UNL     1       7.200   1.690  11.098  0.00  0.00    +0.000 A 
ATOM     26  C   UNL     1       5.865   1.382  10.844  0.00  0.00    +0.000 A 
ATOM     27  C   UNL     1       4.855   2.204  11.341  0.00  0.00    +0.000 A 
ATOM     28  C   UNL     1       5.181   3.338  12.087  0.00  0.00    +0.000 A 
ENDBRANCH  22  23
ENDBRANCH  21  22
ENDBRANCH  19  21
ENDBRANCH   5  19
TORSDOF 6
ENDMDL
