MODEL 1
REMARK VINA RESULT:      -6.9      0.000      0.000
REMARK  Name = 
REMARK  10 active torsions:
REMARK  status: ('A' for Active; 'I' for Inactive)
REMARK    1  A    between atoms: C_1  and  C_2
REMARK    2  A    between atoms: C_2  and  C_3
REMARK    3  A    between atoms: C_3  and  N_4
REMARK    4  A    between atoms: N_4  and  C_5
REMARK    5  A    between atoms: N_4  and  C_13
REMARK    6  A    between atoms: C_5  and  C_6
REMARK    7  A    between atoms: C_6  and  C_7
REMARK    8  A    between atoms: C_13  and  C_14
REMARK    9  A    between atoms: C_14  and  C_15
REMARK   10  A    between atoms: C_20  and  O_21
REMARK                            x       y       z     vdW  Elec       q    Type
REMARK                         _______ _______ _______ _____ _____    ______ ____
ROOT
ATOM      1  N   UNL     1       5.073   5.573  16.841  0.00  0.00    +0.000 NA
ENDROOT
BRANCH   1   2
ATOM      2  C   UNL     1       6.503   5.916  16.590  0.00  0.00    +0.000 C 
BRANCH   2   4
ATOM      3  C   UNL     1       7.729   8.022  17.535  0.00  0.00    +0.000 C 
ATOM      4  C   UNL     1       7.317   6.562  17.744  0.00  0.00    +0.000 C 
ENDBRANCH   2   4
ENDBRANCH   1   2
BRANCH   1   5
ATOM      5  C   UNL     1       4.913   4.139  17.229  0.00  0.00    +0.000 C 
BRANCH   5   6
ATOM      6  C   UNL     1       3.454   3.610  17.103  0.00  0.00    +0.000 C 
BRANCH   6   7
ATOM      7  C   UNL     1       2.707   3.423  18.414  0.00  0.00    +0.000 A 
ATOM      8  C   UNL     1       1.318   3.225  18.479  0.00  0.00    +0.000 A 
ATOM      9  C   UNL     1       0.660   3.081  19.700  0.00  0.00    +0.000 A 
ATOM     10  C   UNL     1       1.381   3.135  20.890  0.00  0.00    +0.000 A 
ATOM     11  C   UNL     1       2.768   3.327  20.850  0.00  0.00    +0.000 A 
ATOM     12  C   UNL     1       3.430   3.460  19.622  0.00  0.00    +0.000 A 
ENDBRANCH   6   7
ENDBRANCH   5   6
ENDBRANCH   1   5
BRANCH   1  13
ATOM     13  C   UNL     1       4.517   6.467  17.905  0.00  0.00    +0.000 C 
BRANCH  13  14
ATOM     14  C   UNL     1       3.329   7.342  17.445  0.00  0.00    +0.000 C 
BRANCH  14  15
ATOM     15  C   UNL     1       2.461   7.784  18.608  0.00  0.00    +0.000 A 
ATOM     16  C   UNL     1       2.299   6.969  19.742  0.00  0.00    +0.000 A 
ATOM     17  C   UNL     1       1.486   7.383  20.802  0.00  0.00    +0.000 A 
ATOM     18  C   UNL     1       0.818   8.611  20.746  0.00  0.00    +0.000 A 
ATOM     19 CL   UNL     1      -0.198   9.080  22.104  0.00  0.00    +0.000 Cl
ATOM     20  C   UNL     1       0.968   9.437  19.613  0.00  0.00    +0.000 A 
ATOM     21  C   UNL     1       1.787   9.018  18.558  0.00  0.00    +0.000 A 
BRANCH  20  22
ATOM     22  O   UNL     1       0.339  10.627  19.514  0.00  0.00    +0.000 OA
ATOM     23  H   UNL     1      -0.255  10.974  20.195  0.00  0.00    +0.000 HD
ENDBRANCH  20  22
ENDBRANCH  14  15
ENDBRANCH  13  14
ENDBRANCH   1  13
TORSDOF 9
ENDMDL
MODEL 2
REMARK VINA RESULT:      -6.8      1.311      1.865
REMARK  Name = 
REMARK  10 active torsions:
REMARK  status: ('A' for Active; 'I' for Inactive)
REMARK    1  A    between atoms: C_1  and  C_2
REMARK    2  A    between atoms: C_2  and  C_3
REMARK    3  A    between atoms: C_3  and  N_4
REMARK    4  A    between atoms: N_4  and  C_5
REMARK    5  A    between atoms: N_4  and  C_13
REMARK    6  A    between atoms: C_5  and  C_6
REMARK    7  A    between atoms: C_6  and  C_7
REMARK    8  A    between atoms: C_13  and  C_14
REMARK    9  A    between atoms: C_14  and  C_15
REMARK   10  A    between atoms: C_20  and  O_21
REMARK                            x       y       z     vdW  Elec       q    Type
REMARK                         _______ _______ _______ _____ _____    ______ ____
ROOT
ATOM      1  N   UNL     1       5.778   5.640  18.075  0.00  0.00    +0.000 NA
ENDROOT
BRANCH   1   2
ATOM      2  C   UNL     1       7.133   6.240  18.241  0.00  0.00    +0.000 C 
BRANCH   2   4
ATOM      3  C   UNL     1       8.304   8.572  18.085  0.00  0.00    +0.000 C 
ATOM      4  C   UNL     1       7.499   7.479  17.377  0.00  0.00    +0.000 C 
ENDBRANCH   2   4
ENDBRANCH   1   2
BRANCH   1   5
ATOM      5  C   UNL     1       5.250   5.111  19.369  0.00  0.00    +0.000 C 
BRANCH   5   6
ATOM      6  C   UNL     1       4.814   3.618  19.310  0.00  0.00    +0.000 C 
BRANCH   6   7
ATOM      7  C   UNL     1       3.320   3.364  19.438  0.00  0.00    +0.000 A 
ATOM      8  C   UNL     1       2.579   2.662  18.472  0.00  0.00    +0.000 A 
ATOM      9  C   UNL     1       1.206   2.467  18.609  0.00  0.00    +0.000 A 
ATOM     10  C   UNL     1       0.538   2.976  19.719  0.00  0.00    +0.000 A 
ATOM     11  C   UNL     1       1.256   3.675  20.698  0.00  0.00    +0.000 A 
ATOM     12  C   UNL     1       2.638   3.860  20.565  0.00  0.00    +0.000 A 
ENDBRANCH   6   7
ENDBRANCH   5   6
ENDBRANCH   1   5
BRANCH   1  13
ATOM     13  C   UNL     1       4.839   6.657  17.505  0.00  0.00    +0.000 C 
BRANCH  13  14
ATOM     14  C   UNL     1       3.344   6.296  17.654  0.00  0.00    +0.000 C 
BRANCH  14  15
ATOM     15  C   UNL     1       2.562   7.386  18.363  0.00  0.00    +0.000 A 
ATOM     16  C   UNL     1       2.117   8.527  17.672  0.00  0.00    +0.000 A 
ATOM     17  C   UNL     1       1.408   9.529  18.342  0.00  0.00    +0.000 A 
ATOM     18  C   UNL     1       1.136   9.414  19.710  0.00  0.00    +0.000 A 
ATOM     19 CL   UNL     1       0.247  10.707  20.504  0.00  0.00    +0.000 Cl
ATOM     20  C   UNL     1       1.580   8.277  20.416  0.00  0.00    +0.000 A 
ATOM     21  C   UNL     1       2.285   7.275  19.739  0.00  0.00    +0.000 A 
BRANCH  20  22
ATOM     22  O   UNL     1       1.345   8.126  21.737  0.00  0.00    +0.000 OA
ATOM     23  H   UNL     1       1.875   8.553  22.425  0.00  0.00    +0.000 HD
ENDBRANCH  20  22
ENDBRANCH  14  15
ENDBRANCH  13  14
ENDBRANCH   1  13
TORSDOF 9
ENDMDL
MODEL 3
REMARK VINA RESULT:      -6.8      1.375      2.136
REMARK  Name = 
REMARK  10 active torsions:
REMARK  status: ('A' for Active; 'I' for Inactive)
REMARK    1  A    between atoms: C_1  and  C_2
REMARK    2  A    between atoms: C_2  and  C_3
REMARK    3  A    between atoms: C_3  and  N_4
REMARK    4  A    between atoms: N_4  and  C_5
REMARK    5  A    between atoms: N_4  and  C_13
REMARK    6  A    between atoms: C_5  and  C_6
REMARK    7  A    between atoms: C_6  and  C_7
REMARK    8  A    between atoms: C_13  and  C_14
REMARK    9  A    between atoms: C_14  and  C_15
REMARK   10  A    between atoms: C_20  and  O_21
REMARK                            x       y       z     vdW  Elec       q    Type
REMARK                         _______ _______ _______ _____ _____    ______ ____
ROOT
ATOM      1  N   UNL     1       5.292   5.392  17.576  0.00  0.00    +0.000 NA
ENDROOT
BRANCH   1   2
ATOM      2  C   UNL     1       6.642   5.643  16.994  0.00  0.00    +0.000 C 
BRANCH   2   4
ATOM      3  C   UNL     1       6.009   3.874  15.176  0.00  0.00    +0.000 C 
ATOM      4  C   UNL     1       7.037   4.882  15.698  0.00  0.00    +0.000 C 
ENDBRANCH   2   4
ENDBRANCH   1   2
BRANCH   1   5
ATOM      5  C   UNL     1       5.382   4.966  19.006  0.00  0.00    +0.000 C 
BRANCH   5   6
ATOM      6  C   UNL     1       4.881   3.516  19.266  0.00  0.00    +0.000 C 
BRANCH   6   7
ATOM      7  C   UNL     1       3.376   3.359  19.424  0.00  0.00    +0.000 A 
ATOM      8  C   UNL     1       2.574   2.694  18.482  0.00  0.00    +0.000 A 
ATOM      9  C   UNL     1       1.195   2.588  18.647  0.00  0.00    +0.000 A 
ATOM     10  C   UNL     1       0.581   3.152  19.762  0.00  0.00    +0.000 A 
ATOM     11  C   UNL     1       1.361   3.817  20.718  0.00  0.00    +0.000 A 
ATOM     12  C   UNL     1       2.749   3.912  20.558  0.00  0.00    +0.000 A 
ENDBRANCH   6   7
ENDBRANCH   5   6
ENDBRANCH   1   5
BRANCH   1  13
ATOM     13  C   UNL     1       4.449   6.622  17.450  0.00  0.00    +0.000 C 
BRANCH  13  14
ATOM     14  C   UNL     1       2.935   6.379  17.646  0.00  0.00    +0.000 C 
BRANCH  14  15
ATOM     15  C   UNL     1       2.273   7.502  18.421  0.00  0.00    +0.000 A 
ATOM     16  C   UNL     1       1.798   8.653  17.768  0.00  0.00    +0.000 A 
ATOM     17  C   UNL     1       1.201   9.686  18.497  0.00  0.00    +0.000 A 
ATOM     18  C   UNL     1       1.071   9.592  19.886  0.00  0.00    +0.000 A 
ATOM     19 CL   UNL     1       0.319  10.923  20.755  0.00  0.00    +0.000 Cl
ATOM     20  C   UNL     1       1.546   8.445  20.555  0.00  0.00    +0.000 A 
ATOM     21  C   UNL     1       2.139   7.413  19.819  0.00  0.00    +0.000 A 
BRANCH  20  22
ATOM     22  O   UNL     1       1.447   8.313  21.895  0.00  0.00    +0.000 OA
ATOM     23  H   UNL     1       0.811   7.724  22.327  0.00  0.00    +0.000 HD
ENDBRANCH  20  22
ENDBRANCH  14  15
ENDBRANCH  13  14
ENDBRANCH   1  13
TORSDOF 9
ENDMDL
MODEL 4
REMARK VINA RESULT:      -6.8      3.112      6.123
REMARK  Name = 
REMARK  10 active torsions:
REMARK  status: ('A' for Active; 'I' for Inactive)
REMARK    1  A    between atoms: C_1  and  C_2
REMARK    2  A    between atoms: C_2  and  C_3
REMARK    3  A    between atoms: C_3  and  N_4
REMARK    4  A    between atoms: N_4  and  C_5
REMARK    5  A    between atoms: N_4  and  C_13
REMARK    6  A    between atoms: C_5  and  C_6
REMARK    7  A    between atoms: C_6  and  C_7
REMARK    8  A    between atoms: C_13  and  C_14
REMARK    9  A    between atoms: C_14  and  C_15
REMARK   10  A    between atoms: C_20  and  O_21
REMARK                            x       y       z     vdW  Elec       q    Type
REMARK                         _______ _______ _______ _____ _____    ______ ____
ROOT
ATOM      1  N   UNL     1       2.430   3.181  18.109  0.00  0.00    +0.000 NA
ENDROOT
BRANCH   1   2
ATOM      2  C   UNL     1       1.817   2.224  19.076  0.00  0.00    +0.000 C 
BRANCH   2   4
ATOM      3  C   UNL     1       1.759   2.935  21.590  0.00  0.00    +0.000 C 
ATOM      4  C   UNL     1       1.003   2.803  20.266  0.00  0.00    +0.000 C 
ENDBRANCH   2   4
ENDBRANCH   1   2
BRANCH   1   5
ATOM      5  C   UNL     1       1.843   4.549  18.245  0.00  0.00    +0.000 C 
BRANCH   5   6
ATOM      6  C   UNL     1       2.724   5.534  19.067  0.00  0.00    +0.000 C 
BRANCH   6   7
ATOM      7  C   UNL     1       2.270   6.986  19.060  0.00  0.00    +0.000 A 
ATOM      8  C   UNL     1       2.430   7.831  17.950  0.00  0.00    +0.000 A 
ATOM      9  C   UNL     1       2.024   9.163  17.985  0.00  0.00    +0.000 A 
ATOM     10  C   UNL     1       1.447   9.685  19.140  0.00  0.00    +0.000 A 
ATOM     11  C   UNL     1       1.273   8.860  20.259  0.00  0.00    +0.000 A 
ATOM     12  C   UNL     1       1.670   7.517  20.218  0.00  0.00    +0.000 A 
ENDBRANCH   6   7
ENDBRANCH   5   6
ENDBRANCH   1   5
BRANCH   1  13
ATOM     13  C   UNL     1       3.912   3.226  18.310  0.00  0.00    +0.000 C 
BRANCH  13  14
ATOM     14  C   UNL     1       4.708   3.700  17.073  0.00  0.00    +0.000 C 
BRANCH  14  15
ATOM     15  C   UNL     1       5.636   4.855  17.399  0.00  0.00    +0.000 A 
ATOM     16  C   UNL     1       5.636   6.026  16.622  0.00  0.00    +0.000 A 
ATOM     17  C   UNL     1       6.506   7.079  16.926  0.00  0.00    +0.000 A 
ATOM     18  C   UNL     1       7.391   6.979  18.005  0.00  0.00    +0.000 A 
ATOM     19 CL   UNL     1       8.468   8.329  18.339  0.00  0.00    +0.000 Cl
ATOM     20  C   UNL     1       7.405   5.808  18.791  0.00  0.00    +0.000 A 
ATOM     21  C   UNL     1       6.529   4.760  18.483  0.00  0.00    +0.000 A 
BRANCH  20  22
ATOM     22  O   UNL     1       8.245   5.666  19.837  0.00  0.00    +0.000 OA
ATOM     23  H   UNL     1       8.037   5.970  20.733  0.00  0.00    +0.000 HD
ENDBRANCH  20  22
ENDBRANCH  14  15
ENDBRANCH  13  14
ENDBRANCH   1  13
TORSDOF 9
ENDMDL
MODEL 5
REMARK VINA RESULT:      -6.7      0.883      1.587
REMARK  Name = 
REMARK  10 active torsions:
REMARK  status: ('A' for Active; 'I' for Inactive)
REMARK    1  A    between atoms: C_1  and  C_2
REMARK    2  A    between atoms: C_2  and  C_3
REMARK    3  A    between atoms: C_3  and  N_4
REMARK    4  A    between atoms: N_4  and  C_5
REMARK    5  A    between atoms: N_4  and  C_13
REMARK    6  A    between atoms: C_5  and  C_6
REMARK    7  A    between atoms: C_6  and  C_7
REMARK    8  A    between atoms: C_13  and  C_14
REMARK    9  A    between atoms: C_14  and  C_15
REMARK   10  A    between atoms: C_20  and  O_21
REMARK                            x       y       z     vdW  Elec       q    Type
REMARK                         _______ _______ _______ _____ _____    ______ ____
ROOT
ATOM      1  N   UNL     1       5.290   5.718  17.546  0.00  0.00    +0.000 NA
ENDROOT
BRANCH   1   2
ATOM      2  C   UNL     1       6.607   5.807  16.852  0.00  0.00    +0.000 C 
BRANCH   2   4
ATOM      3  C   UNL     1       5.995   3.898  15.176  0.00  0.00    +0.000 C 
ATOM      4  C   UNL     1       7.077   4.590  16.009  0.00  0.00    +0.000 C 
ENDBRANCH   2   4
ENDBRANCH   1   2
BRANCH   1   5
ATOM      5  C   UNL     1       5.441   5.218  18.947  0.00  0.00    +0.000 C 
BRANCH   5   6
ATOM      6  C   UNL     1       4.947   3.757  19.151  0.00  0.00    +0.000 C 
BRANCH   6   7
ATOM      7  C   UNL     1       3.445   3.587  19.324  0.00  0.00    +0.000 A 
ATOM      8  C   UNL     1       2.561   3.471  18.239  0.00  0.00    +0.000 A 
ATOM      9  C   UNL     1       1.187   3.341  18.431  0.00  0.00    +0.000 A 
ATOM     10  C   UNL     1       0.663   3.328  19.721  0.00  0.00    +0.000 A 
ATOM     11  C   UNL     1       1.526   3.438  20.819  0.00  0.00    +0.000 A 
ATOM     12  C   UNL     1       2.908   3.556  20.625  0.00  0.00    +0.000 A 
ENDBRANCH   6   7
ENDBRANCH   5   6
ENDBRANCH   1   5
BRANCH   1  13
ATOM     13  C   UNL     1       4.622   7.058  17.540  0.00  0.00    +0.000 C 
BRANCH  13  14
ATOM     14  C   UNL     1       3.086   7.002  17.375  0.00  0.00    +0.000 C 
BRANCH  14  15
ATOM     15  C   UNL     1       2.363   7.662  18.534  0.00  0.00    +0.000 A 
ATOM     16  C   UNL     1       2.252   7.019  19.780  0.00  0.00    +0.000 A 
ATOM     17  C   UNL     1       1.572   7.634  20.836  0.00  0.00    +0.000 A 
ATOM     18  C   UNL     1       0.987   8.894  20.666  0.00  0.00    +0.000 A 
ATOM     19 CL   UNL     1       0.137   9.618  22.026  0.00  0.00    +0.000 Cl
ATOM     20  C   UNL     1       1.087   9.548  19.421  0.00  0.00    +0.000 A 
ATOM     21  C   UNL     1       1.773   8.929  18.370  0.00  0.00    +0.000 A 
BRANCH  20  22
ATOM     22  O   UNL     1       0.535  10.761  19.211  0.00  0.00    +0.000 OA
ATOM     23  H   UNL     1      -0.097  10.944  18.500  0.00  0.00    +0.000 HD
ENDBRANCH  20  22
ENDBRANCH  14  15
ENDBRANCH  13  14
ENDBRANCH   1  13
TORSDOF 9
ENDMDL
MODEL 6
REMARK VINA RESULT:      -6.6      1.668      2.289
REMARK  Name = 
REMARK  10 active torsions:
REMARK  status: ('A' for Active; 'I' for Inactive)
REMARK    1  A    between atoms: C_1  and  C_2
REMARK    2  A    between atoms: C_2  and  C_3
REMARK    3  A    between atoms: C_3  and  N_4
REMARK    4  A    between atoms: N_4  and  C_5
REMARK    5  A    between atoms: N_4  and  C_13
REMARK    6  A    between atoms: C_5  and  C_6
REMARK    7  A    between atoms: C_6  and  C_7
REMARK    8  A    between atoms: C_13  and  C_14
REMARK    9  A    between atoms: C_14  and  C_15
REMARK   10  A    between atoms: C_20  and  O_21
REMARK                            x       y       z     vdW  Elec       q    Type
REMARK                         _______ _______ _______ _____ _____    ______ ____
ROOT
ATOM      1  N   UNL     1       4.831   3.938  16.235  0.00  0.00    +0.000 NA
ENDROOT
BRANCH   1   2
ATOM      2  C   UNL     1       6.126   3.706  15.532  0.00  0.00    +0.000 C 
BRANCH   2   4
ATOM      3  C   UNL     1       6.044   3.618  12.921  0.00  0.00    +0.000 C 
ATOM      4  C   UNL     1       6.368   4.429  14.178  0.00  0.00    +0.000 C 
ENDBRANCH   2   4
ENDBRANCH   1   2
BRANCH   1   5
ATOM      5  C   UNL     1       4.815   3.291  17.582  0.00  0.00    +0.000 C 
BRANCH   5   6
ATOM      6  C   UNL     1       3.570   2.391  17.834  0.00  0.00    +0.000 C 
BRANCH   6   7
ATOM      7  C   UNL     1       2.756   2.727  19.075  0.00  0.00    +0.000 A 
ATOM      8  C   UNL     1       1.496   3.344  19.017  0.00  0.00    +0.000 A 
ATOM      9  C   UNL     1       0.788   3.660  20.175  0.00  0.00    +0.000 A 
ATOM     10  C   UNL     1       1.328   3.366  21.424  0.00  0.00    +0.000 A 
ATOM     11  C   UNL     1       2.581   2.746  21.507  0.00  0.00    +0.000 A 
ATOM     12  C   UNL     1       3.288   2.418  20.342  0.00  0.00    +0.000 A 
ENDBRANCH   6   7
ENDBRANCH   5   6
ENDBRANCH   1   5
BRANCH   1  13
ATOM     13  C   UNL     1       4.579   5.408  16.360  0.00  0.00    +0.000 C 
BRANCH  13  14
ATOM     14  C   UNL     1       4.908   5.995  17.751  0.00  0.00    +0.000 C 
BRANCH  14  15
ATOM     15  C   UNL     1       3.769   6.831  18.303  0.00  0.00    +0.000 A 
ATOM     16  C   UNL     1       3.142   6.491  19.515  0.00  0.00    +0.000 A 
ATOM     17  C   UNL     1       2.084   7.263  20.005  0.00  0.00    +0.000 A 
ATOM     18  C   UNL     1       1.631   8.380  19.295  0.00  0.00    +0.000 A 
ATOM     19 CL   UNL     1       0.292   9.312  19.954  0.00  0.00    +0.000 Cl
ATOM     20  C   UNL     1       2.247   8.729  18.076  0.00  0.00    +0.000 A 
ATOM     21  C   UNL     1       3.308   7.955  17.593  0.00  0.00    +0.000 A 
BRANCH  20  22
ATOM     22  O   UNL     1       1.840   9.795  17.354  0.00  0.00    +0.000 OA
ATOM     23  H   UNL     1       1.060  10.323  17.578  0.00  0.00    +0.000 HD
ENDBRANCH  20  22
ENDBRANCH  14  15
ENDBRANCH  13  14
ENDBRANCH   1  13
TORSDOF 9
ENDMDL
MODEL 7
REMARK VINA RESULT:      -6.6      1.528      4.613
REMARK  Name = 
REMARK  10 active torsions:
REMARK  status: ('A' for Active; 'I' for Inactive)
REMARK    1  A    between atoms: C_1  and  C_2
REMARK    2  A    between atoms: C_2  and  C_3
REMARK    3  A    between atoms: C_3  and  N_4
REMARK    4  A    between atoms: N_4  and  C_5
REMARK    5  A    between atoms: N_4  and  C_13
REMARK    6  A    between atoms: C_5  and  C_6
REMARK    7  A    between atoms: C_6  and  C_7
REMARK    8  A    between atoms: C_13  and  C_14
REMARK    9  A    between atoms: C_14  and  C_15
REMARK   10  A    between atoms: C_20  and  O_21
REMARK                            x       y       z     vdW  Elec       q    Type
REMARK                         _______ _______ _______ _____ _____    ______ ____
ROOT
ATOM      1  N   UNL     1       2.966   3.905  18.433  0.00  0.00    +0.000 NA
ENDROOT
BRANCH   1   2
ATOM      2  C   UNL     1       1.677   3.250  18.064  0.00  0.00    +0.000 C 
BRANCH   2   4
ATOM      3  C   UNL     1       1.319   2.761  20.606  0.00  0.00    +0.000 C 
ATOM      4  C   UNL     1       0.916   2.456  19.161  0.00  0.00    +0.000 C 
ENDBRANCH   2   4
ENDBRANCH   1   2
BRANCH   1   5
ATOM      5  C   UNL     1       4.081   3.463  17.541  0.00  0.00    +0.000 C 
BRANCH   5   6
ATOM      6  C   UNL     1       4.680   4.603  16.667  0.00  0.00    +0.000 C 
BRANCH   6   7
ATOM      7  C   UNL     1       5.842   5.365  17.285  0.00  0.00    +0.000 A 
ATOM      8  C   UNL     1       6.701   4.801  18.242  0.00  0.00    +0.000 A 
ATOM      9  C   UNL     1       7.743   5.535  18.807  0.00  0.00    +0.000 A 
ATOM     10  C   UNL     1       7.947   6.859  18.427  0.00  0.00    +0.000 A 
ATOM     11  C   UNL     1       7.105   7.441  17.471  0.00  0.00    +0.000 A 
ATOM     12  C   UNL     1       6.066   6.699  16.895  0.00  0.00    +0.000 A 
ENDBRANCH   6   7
ENDBRANCH   5   6
ENDBRANCH   1   5
BRANCH   1  13
ATOM     13  C   UNL     1       2.812   5.393  18.378  0.00  0.00    +0.000 C 
BRANCH  13  14
ATOM     14  C   UNL     1       2.782   6.081  19.762  0.00  0.00    +0.000 C 
BRANCH  14  15
ATOM     15  C   UNL     1       2.130   7.449  19.704  0.00  0.00    +0.000 A 
ATOM     16  C   UNL     1       1.405   7.954  20.798  0.00  0.00    +0.000 A 
ATOM     17  C   UNL     1       0.798   9.212  20.727  0.00  0.00    +0.000 A 
ATOM     18  C   UNL     1       0.899   9.984  19.564  0.00  0.00    +0.000 A 
ATOM     19 CL   UNL     1       0.111  11.556  19.526  0.00  0.00    +0.000 Cl
ATOM     20  C   UNL     1       1.620   9.489  18.458  0.00  0.00    +0.000 A 
ATOM     21  C   UNL     1       2.228   8.231  18.538  0.00  0.00    +0.000 A 
BRANCH  20  22
ATOM     22  O   UNL     1       1.740  10.196  17.315  0.00  0.00    +0.000 OA
ATOM     23  H   UNL     1       2.488  10.105  16.708  0.00  0.00    +0.000 HD
ENDBRANCH  20  22
ENDBRANCH  14  15
ENDBRANCH  13  14
ENDBRANCH   1  13
TORSDOF 9
ENDMDL
MODEL 8
REMARK VINA RESULT:      -6.6      1.591      2.129
REMARK  Name = 
REMARK  10 active torsions:
REMARK  status: ('A' for Active; 'I' for Inactive)
REMARK    1  A    between atoms: C_1  and  C_2
REMARK    2  A    between atoms: C_2  and  C_3
REMARK    3  A    between atoms: C_3  and  N_4
REMARK    4  A    between atoms: N_4  and  C_5
REMARK    5  A    between atoms: N_4  and  C_13
REMARK    6  A    between atoms: C_5  and  C_6
REMARK    7  A    between atoms: C_6  and  C_7
REMARK    8  A    between atoms: C_13  and  C_14
REMARK    9  A    between atoms: C_14  and  C_15
REMARK   10  A    between atoms: C_20  and  O_21
REMARK                            x       y       z     vdW  Elec       q    Type
REMARK                         _______ _______ _______ _____ _____    ______ ____
ROOT
ATOM      1  N   UNL     1       4.355   5.252  17.226  0.00  0.00    +0.000 NA
ENDROOT
BRANCH   1   2
ATOM      2  C   UNL     1       5.102   5.839  16.076  0.00  0.00    +0.000 C 
BRANCH   2   4
ATOM      3  C   UNL     1       5.777   4.218  14.139  0.00  0.00    +0.000 C 
ATOM      4  C   UNL     1       6.203   4.977  15.398  0.00  0.00    +0.000 C 
ENDBRANCH   2   4
ENDBRANCH   1   2
BRANCH   1   5
ATOM      5  C   UNL     1       4.889   3.906  17.597  0.00  0.00    +0.000 C 
BRANCH   5   6
ATOM      6  C   UNL     1       3.806   2.790  17.649  0.00  0.00    +0.000 C 
BRANCH   6   7
ATOM      7  C   UNL     1       2.896   2.813  18.868  0.00  0.00    +0.000 A 
ATOM      8  C   UNL     1       1.506   2.992  18.779  0.00  0.00    +0.000 A 
ATOM      9  C   UNL     1       0.704   3.032  19.918  0.00  0.00    +0.000 A 
ATOM     10  C   UNL     1       1.278   2.896  21.179  0.00  0.00    +0.000 A 
ATOM     11  C   UNL     1       2.661   2.712  21.293  0.00  0.00    +0.000 A 
ATOM     12  C   UNL     1       3.465   2.660  20.146  0.00  0.00    +0.000 A 
ENDBRANCH   6   7
ENDBRANCH   5   6
ENDBRANCH   1   5
BRANCH   1  13
ATOM     13  C   UNL     1       4.419   6.180  18.398  0.00  0.00    +0.000 C 
BRANCH  13  14
ATOM     14  C   UNL     1       3.138   6.202  19.263  0.00  0.00    +0.000 C 
BRANCH  14  15
ATOM     15  C   UNL     1       2.380   7.509  19.127  0.00  0.00    +0.000 A 
ATOM     16  C   UNL     1       2.412   8.244  17.929  0.00  0.00    +0.000 A 
ATOM     17  C   UNL     1       1.719   9.454  17.822  0.00  0.00    +0.000 A 
ATOM     18  C   UNL     1       0.989   9.953  18.906  0.00  0.00    +0.000 A 
ATOM     19 CL   UNL     1       0.141  11.483  18.719  0.00  0.00    +0.000 Cl
ATOM     20  C   UNL     1       0.952   9.228  20.115  0.00  0.00    +0.000 A 
ATOM     21  C   UNL     1       1.644   8.016  20.214  0.00  0.00    +0.000 A 
BRANCH  20  22
ATOM     22  O   UNL     1       0.264   9.673  21.188  0.00  0.00    +0.000 OA
ATOM     23  H   UNL     1      -0.473  10.298  21.127  0.00  0.00    +0.000 HD
ENDBRANCH  20  22
ENDBRANCH  14  15
ENDBRANCH  13  14
ENDBRANCH   1  13
TORSDOF 9
ENDMDL
MODEL 9
REMARK VINA RESULT:      -6.6      1.167      1.580
REMARK  Name = 
REMARK  10 active torsions:
REMARK  status: ('A' for Active; 'I' for Inactive)
REMARK    1  A    between atoms: C_1  and  C_2
REMARK    2  A    between atoms: C_2  and  C_3
REMARK    3  A    between atoms: C_3  and  N_4
REMARK    4  A    between atoms: N_4  and  C_5
REMARK    5  A    between atoms: N_4  and  C_13
REMARK    6  A    between atoms: C_5  and  C_6
REMARK    7  A    between atoms: C_6  and  C_7
REMARK    8  A    between atoms: C_13  and  C_14
REMARK    9  A    between atoms: C_14  and  C_15
REMARK   10  A    between atoms: C_20  and  O_21
REMARK                            x       y       z     vdW  Elec       q    Type
REMARK                         _______ _______ _______ _____ _____    ______ ____
ROOT
ATOM      1  N   UNL     1       5.158   5.432  16.889  0.00  0.00    +0.000 NA
ENDROOT
BRANCH   1   2
ATOM      2  C   UNL     1       6.624   5.699  16.823  0.00  0.00    +0.000 C 
BRANCH   2   4
ATOM      3  C   UNL     1       7.809   5.703  19.153  0.00  0.00    +0.000 C 
ATOM      4  C   UNL     1       7.550   4.969  17.835  0.00  0.00    +0.000 C 
ENDBRANCH   2   4
ENDBRANCH   1   2
BRANCH   1   5
ATOM      5  C   UNL     1       4.875   4.039  17.351  0.00  0.00    +0.000 C 
BRANCH   5   6
ATOM      6  C   UNL     1       3.378   3.629  17.238  0.00  0.00    +0.000 C 
BRANCH   6   7
ATOM      7  C   UNL     1       2.638   3.467  18.557  0.00  0.00    +0.000 A 
ATOM      8  C   UNL     1       1.267   3.174  18.633  0.00  0.00    +0.000 A 
ATOM      9  C   UNL     1       0.615   3.056  19.859  0.00  0.00    +0.000 A 
ATOM     10  C   UNL     1       1.324   3.233  21.044  0.00  0.00    +0.000 A 
ATOM     11  C   UNL     1       2.693   3.522  20.994  0.00  0.00    +0.000 A 
ATOM     12  C   UNL     1       3.350   3.629  19.761  0.00  0.00    +0.000 A 
ENDBRANCH   6   7
ENDBRANCH   5   6
ENDBRANCH   1   5
BRANCH   1  13
ATOM     13  C   UNL     1       4.502   6.426  17.796  0.00  0.00    +0.000 C 
BRANCH  13  14
ATOM     14  C   UNL     1       3.447   7.319  17.105  0.00  0.00    +0.000 C 
BRANCH  14  15
ATOM     15  C   UNL     1       2.526   7.992  18.105  0.00  0.00    +0.000 A 
ATOM     16  C   UNL     1       1.807   9.151  17.762  0.00  0.00    +0.000 A 
ATOM     17  C   UNL     1       0.971   9.768  18.698  0.00  0.00    +0.000 A 
ATOM     18  C   UNL     1       0.842   9.245  19.989  0.00  0.00    +0.000 A 
ATOM     19 CL   UNL     1      -0.217  10.065  21.129  0.00  0.00    +0.000 Cl
ATOM     20  C   UNL     1       1.561   8.086  20.348  0.00  0.00    +0.000 A 
ATOM     21  C   UNL     1       2.392   7.471  19.405  0.00  0.00    +0.000 A 
BRANCH  20  22
ATOM     22  O   UNL     1       1.471   7.550  21.583  0.00  0.00    +0.000 OA
ATOM     23  H   UNL     1       2.114   7.722  22.287  0.00  0.00    +0.000 HD
ENDBRANCH  20  22
ENDBRANCH  14  15
ENDBRANCH  13  14
ENDBRANCH   1  13
TORSDOF 9
ENDMDL
