MODEL 1
REMARK VINA RESULT:      -9.1      0.000      0.000
REMARK  Name = 
REMARK  7 active torsions:
REMARK  status: ('A' for Active; 'I' for Inactive)
REMARK    1  A    between atoms: C_1  and  C_2
REMARK    2  A    between atoms: C_8  and  C_10
REMARK    3  A    between atoms: C_10  and  S_11
REMARK    4  A    between atoms: S_11  and  C_12
REMARK    5  A    between atoms: C_14  and  C_15
REMARK    6  A    between atoms: C_15  and  C_16
REMARK    7  A    between atoms: C_16  and  C_17
REMARK                            x       y       z     vdW  Elec       q    Type
REMARK                         _______ _______ _______ _____ _____    ______ ____
ROOT
ATOM      1  C   UNL     1       2.511   6.458  19.082  0.00  0.00    +0.000 A 
ATOM      2  N   UNL     1       3.346   6.864  18.099  0.00  0.00    +0.000 NA
ATOM      3  C   UNL     1       3.886   5.919  17.320  0.00  0.00    +0.000 A 
ATOM      4  N   UNL     1       3.669   4.608  17.467  0.00  0.00    +0.000 NA
ATOM      5  C   UNL     1       2.833   4.216  18.428  0.00  0.00    +0.000 A 
ATOM      6  C   UNL     1       2.618   2.850  18.545  0.00  0.00    +0.000 A 
ATOM      7  C   UNL     1       1.755   2.313  19.500  0.00  0.00    +0.000 A 
ATOM      8  C   UNL     1       1.076   3.166  20.353  0.00  0.00    +0.000 A 
ATOM      9  C   UNL     1       1.272   4.548  20.254  0.00  0.00    +0.000 A 
ATOM     10  C   UNL     1       2.177   5.102  19.299  0.00  0.00    +0.000 A 
ENDROOT
BRANCH   1  11
ATOM     11  S   UNL     1       1.792   7.867  19.912  0.00  0.00    +0.000 S 
BRANCH  11  12
ATOM     12  C   UNL     1       1.623   9.127  18.600  0.00  0.00    +0.000 C 
BRANCH  12  20
ATOM     13  C   UNL     1      -2.735  10.057  15.270  0.00  0.00    +0.000 C 
ATOM     14  C   UNL     1      -2.702  10.644  16.623  0.00  0.00    +0.000 A 
ATOM     15  N   UNL     1      -3.743  11.379  17.029  0.00  0.00    +0.000 NA
ATOM     16  O   UNL     1      -3.438  11.785  18.324  0.00  0.00    +0.000 OA
ATOM     17  N   UNL     1      -2.202  11.300  18.703  0.00  0.00    +0.000 NA
ATOM     18  C   UNL     1      -1.736  10.595  17.662  0.00  0.00    +0.000 A 
ATOM     19  N   UNL     1      -0.506   9.954  17.672  0.00  0.00    +0.000 N 
ATOM     20  C   UNL     1       0.330   9.927  18.783  0.00  0.00    +0.000 C 
ATOM     21  O   UNL     1       0.139  10.507  19.851  0.00  0.00    +0.000 OA
ATOM     22  H   UNL     1      -0.250   9.402  16.861  0.00  0.00    +0.000 HD
ENDBRANCH  12  20
ENDBRANCH  11  12
ENDBRANCH   1  11
BRANCH   3  23
ATOM     23  C   UNL     1       4.815   6.358  16.220  0.00  0.00    +0.000 C 
BRANCH  23  24
ATOM     24  C   UNL     1       6.029   5.437  16.033  0.00  0.00    +0.000 C 
BRANCH  24  25
ATOM     25  C   UNL     1       7.214   5.769  16.945  0.00  0.00    +0.000 C 
ATOM     26  C   UNL     1       7.264   7.224  17.401  0.00  0.00    +0.000 C 
ATOM     27  C   UNL     1       8.206   7.198  18.595  0.00  0.00    +0.000 C 
ATOM     28  C   UNL     1       8.038   5.819  19.228  0.00  0.00    +0.000 C 
ATOM     29  C   UNL     1       7.163   5.009  18.272  0.00  0.00    +0.000 C 
ENDBRANCH  24  25
ENDBRANCH  23  24
ENDBRANCH   3  23
TORSDOF 6
ENDMDL
MODEL 2
REMARK VINA RESULT:      -8.7      1.164      2.221
REMARK  Name = 
REMARK  7 active torsions:
REMARK  status: ('A' for Active; 'I' for Inactive)
REMARK    1  A    between atoms: C_1  and  C_2
REMARK    2  A    between atoms: C_8  and  C_10
REMARK    3  A    between atoms: C_10  and  S_11
REMARK    4  A    between atoms: S_11  and  C_12
REMARK    5  A    between atoms: C_14  and  C_15
REMARK    6  A    between atoms: C_15  and  C_16
REMARK    7  A    between atoms: C_16  and  C_17
REMARK                            x       y       z     vdW  Elec       q    Type
REMARK                         _______ _______ _______ _____ _____    ______ ____
ROOT
ATOM      1  C   UNL     1       2.580   6.641  19.117  0.00  0.00    +0.000 A 
ATOM      2  N   UNL     1       3.431   6.968  18.119  0.00  0.00    +0.000 NA
ATOM      3  C   UNL     1       4.003   5.964  17.444  0.00  0.00    +0.000 A 
ATOM      4  N   UNL     1       3.801   4.669  17.706  0.00  0.00    +0.000 NA
ATOM      5  C   UNL     1       2.949   4.354  18.682  0.00  0.00    +0.000 A 
ATOM      6  C   UNL     1       2.751   3.001  18.920  0.00  0.00    +0.000 A 
ATOM      7  C   UNL     1       1.875   2.540  19.902  0.00  0.00    +0.000 A 
ATOM      8  C   UNL     1       1.164   3.458  20.658  0.00  0.00    +0.000 A 
ATOM      9  C   UNL     1       1.342   4.828  20.435  0.00  0.00    +0.000 A 
ATOM     10  C   UNL     1       2.261   5.306  19.452  0.00  0.00    +0.000 A 
ENDROOT
BRANCH   1  11
ATOM     11  S   UNL     1       1.822   8.109  19.797  0.00  0.00    +0.000 S 
BRANCH  11  12
ATOM     12  C   UNL     1       1.464   9.149  18.340  0.00  0.00    +0.000 C 
BRANCH  12  20
ATOM     13  C   UNL     1      -2.908  10.154  15.047  0.00  0.00    +0.000 C 
ATOM     14  C   UNL     1      -2.872  10.707  16.414  0.00  0.00    +0.000 A 
ATOM     15  N   UNL     1      -3.913  11.428  16.842  0.00  0.00    +0.000 NA
ATOM     16  O   UNL     1      -3.604  11.802  18.146  0.00  0.00    +0.000 OA
ATOM     17  N   UNL     1      -2.366  11.311  18.508  0.00  0.00    +0.000 NA
ATOM     18  C   UNL     1      -1.902  10.633  17.449  0.00  0.00    +0.000 A 
ATOM     19  N   UNL     1      -0.670   9.995  17.439  0.00  0.00    +0.000 N 
ATOM     20  C   UNL     1       0.169   9.942  18.546  0.00  0.00    +0.000 C 
ATOM     21  O   UNL     1      -0.019  10.494  19.629  0.00  0.00    +0.000 OA
ATOM     22  H   UNL     1      -0.415   9.465  16.614  0.00  0.00    +0.000 HD
ENDBRANCH  12  20
ENDBRANCH  11  12
ENDBRANCH   1  11
BRANCH   3  23
ATOM     23  C   UNL     1       4.950   6.315  16.328  0.00  0.00    +0.000 C 
BRANCH  23  24
ATOM     24  C   UNL     1       6.276   5.543  16.378  0.00  0.00    +0.000 C 
BRANCH  24  25
ATOM     25  C   UNL     1       6.481   4.572  15.212  0.00  0.00    +0.000 C 
ATOM     26  C   UNL     1       5.210   4.261  14.427  0.00  0.00    +0.000 C 
ATOM     27  C   UNL     1       5.726   3.677  13.120  0.00  0.00    +0.000 C 
ATOM     28  C   UNL     1       7.076   4.344  12.870  0.00  0.00    +0.000 C 
ATOM     29  C   UNL     1       7.406   5.138  14.133  0.00  0.00    +0.000 C 
ENDBRANCH  24  25
ENDBRANCH  23  24
ENDBRANCH   3  23
TORSDOF 6
ENDMDL
MODEL 3
REMARK VINA RESULT:      -8.7      1.575      2.500
REMARK  Name = 
REMARK  7 active torsions:
REMARK  status: ('A' for Active; 'I' for Inactive)
REMARK    1  A    between atoms: C_1  and  C_2
REMARK    2  A    between atoms: C_8  and  C_10
REMARK    3  A    between atoms: C_10  and  S_11
REMARK    4  A    between atoms: S_11  and  C_12
REMARK    5  A    between atoms: C_14  and  C_15
REMARK    6  A    between atoms: C_15  and  C_16
REMARK    7  A    between atoms: C_16  and  C_17
REMARK                            x       y       z     vdW  Elec       q    Type
REMARK                         _______ _______ _______ _____ _____    ______ ____
ROOT
ATOM      1  C   UNL     1       2.916   6.212  18.716  0.00  0.00    +0.000 A 
ATOM      2  N   UNL     1       3.942   6.659  17.958  0.00  0.00    +0.000 NA
ATOM      3  C   UNL     1       4.546   5.775  17.155  0.00  0.00    +0.000 A 
ATOM      4  N   UNL     1       4.212   4.482  17.072  0.00  0.00    +0.000 NA
ATOM      5  C   UNL     1       3.190   4.052  17.812  0.00  0.00    +0.000 A 
ATOM      6  C   UNL     1       2.861   2.709  17.694  0.00  0.00    +0.000 A 
ATOM      7  C   UNL     1       1.804   2.138  18.401  0.00  0.00    +0.000 A 
ATOM      8  C   UNL     1       1.044   2.936  19.241  0.00  0.00    +0.000 A 
ATOM      9  C   UNL     1       1.352   4.295  19.375  0.00  0.00    +0.000 A 
ATOM     10  C   UNL     1       2.453   4.877  18.676  0.00  0.00    +0.000 A 
ENDROOT
BRANCH   1  11
ATOM     11  S   UNL     1       2.161   7.564  19.605  0.00  0.00    +0.000 S 
BRANCH  11  12
ATOM     12  C   UNL     1       1.823   8.817  18.320  0.00  0.00    +0.000 C 
BRANCH  12  20
ATOM     13  C   UNL     1      -2.725  10.463  15.571  0.00  0.00    +0.000 C 
ATOM     14  C   UNL     1      -2.514  10.888  16.967  0.00  0.00    +0.000 A 
ATOM     15  N   UNL     1      -3.443  11.651  17.553  0.00  0.00    +0.000 NA
ATOM     16  O   UNL     1      -2.983  11.881  18.846  0.00  0.00    +0.000 OA
ATOM     17  N   UNL     1      -1.766  11.260  19.042  0.00  0.00    +0.000 NA
ATOM     18  C   UNL     1      -1.464  10.644  17.891  0.00  0.00    +0.000 A 
ATOM     19  N   UNL     1      -0.301   9.911  17.707  0.00  0.00    +0.000 N 
ATOM     20  C   UNL     1       0.629   9.691  18.717  0.00  0.00    +0.000 C 
ATOM     21  O   UNL     1       0.591  10.158  19.855  0.00  0.00    +0.000 OA
ATOM     22  H   UNL     1      -0.171   9.437  16.821  0.00  0.00    +0.000 HD
ENDBRANCH  12  20
ENDBRANCH  11  12
ENDBRANCH   1  11
BRANCH   3  23
ATOM     23  C   UNL     1       5.687   6.261  16.303  0.00  0.00    +0.000 C 
BRANCH  23  24
ATOM     24  C   UNL     1       6.511   5.130  15.670  0.00  0.00    +0.000 C 
BRANCH  24  25
ATOM     25  C   UNL     1       6.312   4.979  14.159  0.00  0.00    +0.000 C 
ATOM     26  C   UNL     1       7.602   5.056  13.348  0.00  0.00    +0.000 C 
ATOM     27  C   UNL     1       7.221   4.452  12.004  0.00  0.00    +0.000 C 
ATOM     28  C   UNL     1       6.132   3.426  12.303  0.00  0.00    +0.000 C 
ATOM     29  C   UNL     1       5.761   3.605  13.774  0.00  0.00    +0.000 C 
ENDBRANCH  24  25
ENDBRANCH  23  24
ENDBRANCH   3  23
TORSDOF 6
ENDMDL
MODEL 4
REMARK VINA RESULT:      -8.7      3.284      5.793
REMARK  Name = 
REMARK  7 active torsions:
REMARK  status: ('A' for Active; 'I' for Inactive)
REMARK    1  A    between atoms: C_1  and  C_2
REMARK    2  A    between atoms: C_8  and  C_10
REMARK    3  A    between atoms: C_10  and  S_11
REMARK    4  A    between atoms: S_11  and  C_12
REMARK    5  A    between atoms: C_14  and  C_15
REMARK    6  A    between atoms: C_15  and  C_16
REMARK    7  A    between atoms: C_16  and  C_17
REMARK                            x       y       z     vdW  Elec       q    Type
REMARK                         _______ _______ _______ _____ _____    ______ ____
ROOT
ATOM      1  C   UNL     1       5.460   4.448  16.466  0.00  0.00    +0.000 A 
ATOM      2  N   UNL     1       6.014   5.300  17.358  0.00  0.00    +0.000 NA
ATOM      3  C   UNL     1       7.050   6.039  16.943  0.00  0.00    +0.000 A 
ATOM      4  N   UNL     1       7.579   5.971  15.716  0.00  0.00    +0.000 NA
ATOM      5  C   UNL     1       7.019   5.139  14.839  0.00  0.00    +0.000 A 
ATOM      6  C   UNL     1       7.584   5.102  13.571  0.00  0.00    +0.000 A 
ATOM      7  C   UNL     1       7.082   4.286  12.558  0.00  0.00    +0.000 A 
ATOM      8  C   UNL     1       5.975   3.495  12.814  0.00  0.00    +0.000 A 
ATOM      9  C   UNL     1       5.383   3.516  14.082  0.00  0.00    +0.000 A 
ATOM     10  C   UNL     1       5.912   4.327  15.133  0.00  0.00    +0.000 A 
ENDROOT
BRANCH   1  11
ATOM     11  S   UNL     1       4.015   3.664  17.165  0.00  0.00    +0.000 S 
BRANCH  11  12
ATOM     12  C   UNL     1       4.350   3.618  18.960  0.00  0.00    +0.000 C 
BRANCH  12  20
ATOM     13  C   UNL     1       2.506   8.722  17.736  0.00  0.00    +0.000 C 
ATOM     14  C   UNL     1       2.109   8.079  19.002  0.00  0.00    +0.000 A 
ATOM     15  N   UNL     1       1.288   8.738  19.826  0.00  0.00    +0.000 NA
ATOM     16  O   UNL     1       1.087   7.895  20.914  0.00  0.00    +0.000 OA
ATOM     17  N   UNL     1       1.795   6.721  20.752  0.00  0.00    +0.000 NA
ATOM     18  C   UNL     1       2.432   6.821  19.576  0.00  0.00    +0.000 A 
ATOM     19  N   UNL     1       3.252   5.823  19.072  0.00  0.00    +0.000 N 
ATOM     20  C   UNL     1       3.440   4.600  19.705  0.00  0.00    +0.000 C 
ATOM     21  O   UNL     1       2.982   4.268  20.798  0.00  0.00    +0.000 OA
ATOM     22  H   UNL     1       3.657   5.959  18.153  0.00  0.00    +0.000 HD
ENDBRANCH  12  20
ENDBRANCH  11  12
ENDBRANCH   1  11
BRANCH   3  23
ATOM     23  C   UNL     1       7.673   6.994  17.924  0.00  0.00    +0.000 C 
BRANCH  23  24
ATOM     24  C   UNL     1       7.359   8.469  17.635  0.00  0.00    +0.000 C 
BRANCH  24  25
ATOM     25  C   UNL     1       8.535   9.419  17.880  0.00  0.00    +0.000 C 
ATOM     26  C   UNL     1       8.200  10.893  17.676  0.00  0.00    +0.000 C 
ATOM     27  C   UNL     1       9.331  11.624  18.385  0.00  0.00    +0.000 C 
ATOM     28  C   UNL     1       9.764  10.709  19.528  0.00  0.00    +0.000 C 
ATOM     29  C   UNL     1       9.021   9.389  19.331  0.00  0.00    +0.000 C 
ENDBRANCH  24  25
ENDBRANCH  23  24
ENDBRANCH   3  23
TORSDOF 6
ENDMDL
MODEL 5
REMARK VINA RESULT:      -8.6      2.002      2.609
REMARK  Name = 
REMARK  7 active torsions:
REMARK  status: ('A' for Active; 'I' for Inactive)
REMARK    1  A    between atoms: C_1  and  C_2
REMARK    2  A    between atoms: C_8  and  C_10
REMARK    3  A    between atoms: C_10  and  S_11
REMARK    4  A    between atoms: S_11  and  C_12
REMARK    5  A    between atoms: C_14  and  C_15
REMARK    6  A    between atoms: C_15  and  C_16
REMARK    7  A    between atoms: C_16  and  C_17
REMARK                            x       y       z     vdW  Elec       q    Type
REMARK                         _______ _______ _______ _____ _____    ______ ____
ROOT
ATOM      1  C   UNL     1       2.775   6.095  18.630  0.00  0.00    +0.000 A 
ATOM      2  N   UNL     1       3.661   6.312  17.632  0.00  0.00    +0.000 NA
ATOM      3  C   UNL     1       4.124   5.242  16.976  0.00  0.00    +0.000 A 
ATOM      4  N   UNL     1       3.782   3.980  17.258  0.00  0.00    +0.000 NA
ATOM      5  C   UNL     1       2.897   3.775  18.233  0.00  0.00    +0.000 A 
ATOM      6  C   UNL     1       2.554   2.455  18.492  0.00  0.00    +0.000 A 
ATOM      7  C   UNL     1       1.628   2.108  19.475  0.00  0.00    +0.000 A 
ATOM      8  C   UNL     1       1.017   3.109  20.212  0.00  0.00    +0.000 A 
ATOM      9  C   UNL     1       1.343   4.448  19.968  0.00  0.00    +0.000 A 
ATOM     10  C   UNL     1       2.312   4.808  18.983  0.00  0.00    +0.000 A 
ENDROOT
BRANCH   1  11
ATOM     11  S   UNL     1       2.176   7.647  19.281  0.00  0.00    +0.000 S 
BRANCH  11  12
ATOM     12  C   UNL     1       2.076   8.741  17.823  0.00  0.00    +0.000 C 
BRANCH  12  20
ATOM     13  C   UNL     1       3.408  14.120  18.318  0.00  0.00    +0.000 C 
ATOM     14  C   UNL     1       2.011  13.686  18.508  0.00  0.00    +0.000 A 
ATOM     15  N   UNL     1       1.083  14.611  18.777  0.00  0.00    +0.000 NA
ATOM     16  O   UNL     1      -0.118  13.918  18.893  0.00  0.00    +0.000 OA
ATOM     17  N   UNL     1       0.084  12.567  18.700  0.00  0.00    +0.000 NA
ATOM     18  C   UNL     1       1.394  12.408  18.462  0.00  0.00    +0.000 A 
ATOM     19  N   UNL     1       1.976  11.173  18.222  0.00  0.00    +0.000 N 
ATOM     20  C   UNL     1       1.248   9.991  18.140  0.00  0.00    +0.000 C 
ATOM     21  O   UNL     1       0.040   9.866  18.335  0.00  0.00    +0.000 OA
ATOM     22  H   UNL     1       2.965  11.146  18.003  0.00  0.00    +0.000 HD
ENDBRANCH  12  20
ENDBRANCH  11  12
ENDBRANCH   1  11
BRANCH   3  23
ATOM     23  C   UNL     1       5.109   5.470  15.860  0.00  0.00    +0.000 C 
BRANCH  23  24
ATOM     24  C   UNL     1       6.408   4.667  16.010  0.00  0.00    +0.000 C 
BRANCH  24  25
ATOM     25  C   UNL     1       7.421   5.287  16.977  0.00  0.00    +0.000 C 
ATOM     26  C   UNL     1       7.269   6.794  17.159  0.00  0.00    +0.000 C 
ATOM     27  C   UNL     1       8.039   7.084  18.439  0.00  0.00    +0.000 C 
ATOM     28  C   UNL     1       7.918   5.823  19.291  0.00  0.00    +0.000 C 
ATOM     29  C   UNL     1       7.263   4.765  18.406  0.00  0.00    +0.000 C 
ENDBRANCH  24  25
ENDBRANCH  23  24
ENDBRANCH   3  23
TORSDOF 6
ENDMDL
MODEL 6
REMARK VINA RESULT:      -8.6      4.094      7.919
REMARK  Name = 
REMARK  7 active torsions:
REMARK  status: ('A' for Active; 'I' for Inactive)
REMARK    1  A    between atoms: C_1  and  C_2
REMARK    2  A    between atoms: C_8  and  C_10
REMARK    3  A    between atoms: C_10  and  S_11
REMARK    4  A    between atoms: S_11  and  C_12
REMARK    5  A    between atoms: C_14  and  C_15
REMARK    6  A    between atoms: C_15  and  C_16
REMARK    7  A    between atoms: C_16  and  C_17
REMARK                            x       y       z     vdW  Elec       q    Type
REMARK                         _______ _______ _______ _____ _____    ______ ____
ROOT
ATOM      1  C   UNL     1       2.866   7.176  18.547  0.00  0.00    +0.000 A 
ATOM      2  N   UNL     1       2.871   6.028  19.261  0.00  0.00    +0.000 NA
ATOM      3  C   UNL     1       2.135   5.995  20.379  0.00  0.00    +0.000 A 
ATOM      4  N   UNL     1       1.418   7.025  20.838  0.00  0.00    +0.000 NA
ATOM      5  C   UNL     1       1.405   8.148  20.121  0.00  0.00    +0.000 A 
ATOM      6  C   UNL     1       0.640   9.195  20.618  0.00  0.00    +0.000 A 
ATOM      7  C   UNL     1       0.532  10.416  19.955  0.00  0.00    +0.000 A 
ATOM      8  C   UNL     1       1.195  10.594  18.753  0.00  0.00    +0.000 A 
ATOM      9  C   UNL     1       1.970   9.553  18.227  0.00  0.00    +0.000 A 
ATOM     10  C   UNL     1       2.110   8.311  18.917  0.00  0.00    +0.000 A 
ENDROOT
BRANCH   1  11
ATOM     11  S   UNL     1       3.789   6.972  17.031  0.00  0.00    +0.000 S 
BRANCH  11  12
ATOM     12  C   UNL     1       5.205   5.920  17.502  0.00  0.00    +0.000 C 
BRANCH  12  20
ATOM     13  C   UNL     1       5.225   3.364  12.561  0.00  0.00    +0.000 C 
ATOM     14  C   UNL     1       6.385   4.175  12.976  0.00  0.00    +0.000 A 
ATOM     15  N   UNL     1       7.418   4.294  12.135  0.00  0.00    +0.000 NA
ATOM     16  O   UNL     1       8.341   5.109  12.783  0.00  0.00    +0.000 OA
ATOM     17  N   UNL     1       7.868   5.479  14.026  0.00  0.00    +0.000 NA
ATOM     18  C   UNL     1       6.662   4.909  14.159  0.00  0.00    +0.000 A 
ATOM     19  N   UNL     1       5.876   5.056  15.292  0.00  0.00    +0.000 N 
ATOM     20  C   UNL     1       6.234   5.860  16.368  0.00  0.00    +0.000 C 
ATOM     21  O   UNL     1       7.292   6.474  16.498  0.00  0.00    +0.000 OA
ATOM     22  H   UNL     1       4.956   4.631  15.292  0.00  0.00    +0.000 HD
ENDBRANCH  12  20
ENDBRANCH  11  12
ENDBRANCH   1  11
BRANCH   3  23
ATOM     23  C   UNL     1       2.130   4.722  21.181  0.00  0.00    +0.000 C 
BRANCH  23  24
ATOM     24  C   UNL     1       1.128   3.675  20.673  0.00  0.00    +0.000 C 
BRANCH  24  25
ATOM     25  C   UNL     1       1.745   2.605  19.768  0.00  0.00    +0.000 C 
ATOM     26  C   UNL     1       1.546   2.856  18.277  0.00  0.00    +0.000 C 
ATOM     27  C   UNL     1       2.583   1.960  17.616  0.00  0.00    +0.000 C 
ATOM     28  C   UNL     1       3.743   1.869  18.604  0.00  0.00    +0.000 C 
ATOM     29  C   UNL     1       3.269   2.540  19.891  0.00  0.00    +0.000 C 
ENDBRANCH  24  25
ENDBRANCH  23  24
ENDBRANCH   3  23
TORSDOF 6
ENDMDL
MODEL 7
REMARK VINA RESULT:      -8.6      2.719      3.705
REMARK  Name = 
REMARK  7 active torsions:
REMARK  status: ('A' for Active; 'I' for Inactive)
REMARK    1  A    between atoms: C_1  and  C_2
REMARK    2  A    between atoms: C_8  and  C_10
REMARK    3  A    between atoms: C_10  and  S_11
REMARK    4  A    between atoms: S_11  and  C_12
REMARK    5  A    between atoms: C_14  and  C_15
REMARK    6  A    between atoms: C_15  and  C_16
REMARK    7  A    between atoms: C_16  and  C_17
REMARK                            x       y       z     vdW  Elec       q    Type
REMARK                         _______ _______ _______ _____ _____    ______ ____
ROOT
ATOM      1  C   UNL     1       2.882   5.993  18.575  0.00  0.00    +0.000 A 
ATOM      2  N   UNL     1       3.816   6.367  17.672  0.00  0.00    +0.000 NA
ATOM      3  C   UNL     1       4.288   5.424  16.848  0.00  0.00    +0.000 A 
ATOM      4  N   UNL     1       3.911   4.141  16.877  0.00  0.00    +0.000 NA
ATOM      5  C   UNL     1       2.979   3.784  17.760  0.00  0.00    +0.000 A 
ATOM      6  C   UNL     1       2.600   2.448  17.755  0.00  0.00    +0.000 A 
ATOM      7  C   UNL     1       1.625   1.949  18.619  0.00  0.00    +0.000 A 
ATOM      8  C   UNL     1       1.000   2.813  19.503  0.00  0.00    +0.000 A 
ATOM      9  C   UNL     1       1.361   4.165  19.525  0.00  0.00    +0.000 A 
ATOM     10  C   UNL     1       2.380   4.675  18.664  0.00  0.00    +0.000 A 
ENDROOT
BRANCH   1  11
ATOM     11  S   UNL     1       2.282   7.413  19.478  0.00  0.00    +0.000 S 
BRANCH  11  12
ATOM     12  C   UNL     1       1.866   8.630  18.181  0.00  0.00    +0.000 C 
BRANCH  12  20
ATOM     13  C   UNL     1      -0.720  10.174  22.859  0.00  0.00    +0.000 C 
ATOM     14  C   UNL     1      -0.165  11.196  21.952  0.00  0.00    +0.000 A 
ATOM     15  N   UNL     1      -0.281  12.484  22.290  0.00  0.00    +0.000 NA
ATOM     16  O   UNL     1       0.331  13.200  21.266  0.00  0.00    +0.000 OA
ATOM     17  N   UNL     1       0.814  12.342  20.299  0.00  0.00    +0.000 NA
ATOM     18  C   UNL     1       0.514  11.101  20.708  0.00  0.00    +0.000 A 
ATOM     19  N   UNL     1       0.842   9.965  19.985  0.00  0.00    +0.000 N 
ATOM     20  C   UNL     1       1.571  10.000  18.801  0.00  0.00    +0.000 C 
ATOM     21  O   UNL     1       1.950  11.010  18.210  0.00  0.00    +0.000 OA
ATOM     22  H   UNL     1       0.621   9.062  20.389  0.00  0.00    +0.000 HD
ENDBRANCH  12  20
ENDBRANCH  11  12
ENDBRANCH   1  11
BRANCH   3  23
ATOM     23  C   UNL     1       5.326   5.828  15.835  0.00  0.00    +0.000 C 
BRANCH  23  24
ATOM     24  C   UNL     1       6.573   4.933  15.839  0.00  0.00    +0.000 C 
BRANCH  24  25
ATOM     25  C   UNL     1       6.807   4.177  14.528  0.00  0.00    +0.000 C 
ATOM     26  C   UNL     1       5.527   3.759  13.811  0.00  0.00    +0.000 C 
ATOM     27  C   UNL     1       5.988   3.454  12.394  0.00  0.00    +0.000 C 
ATOM     28  C   UNL     1       7.180   4.373  12.137  0.00  0.00    +0.000 C 
ATOM     29  C   UNL     1       7.510   5.035  13.474  0.00  0.00    +0.000 C 
ENDBRANCH  24  25
ENDBRANCH  23  24
ENDBRANCH   3  23
TORSDOF 6
ENDMDL
MODEL 8
REMARK VINA RESULT:      -8.5      4.185      8.134
REMARK  Name = 
REMARK  7 active torsions:
REMARK  status: ('A' for Active; 'I' for Inactive)
REMARK    1  A    between atoms: C_1  and  C_2
REMARK    2  A    between atoms: C_8  and  C_10
REMARK    3  A    between atoms: C_10  and  S_11
REMARK    4  A    between atoms: S_11  and  C_12
REMARK    5  A    between atoms: C_14  and  C_15
REMARK    6  A    between atoms: C_15  and  C_16
REMARK    7  A    between atoms: C_16  and  C_17
REMARK                            x       y       z     vdW  Elec       q    Type
REMARK                         _______ _______ _______ _____ _____    ______ ____
ROOT
ATOM      1  C   UNL     1       4.195   5.438  19.145  0.00  0.00    +0.000 A 
ATOM      2  N   UNL     1       3.816   6.624  18.617  0.00  0.00    +0.000 NA
ATOM      3  C   UNL     1       2.529   6.968  18.736  0.00  0.00    +0.000 A 
ATOM      4  N   UNL     1       1.597   6.208  19.322  0.00  0.00    +0.000 NA
ATOM      5  C   UNL     1       1.981   5.047  19.852  0.00  0.00    +0.000 A 
ATOM      6  C   UNL     1       0.992   4.288  20.465  0.00  0.00    +0.000 A 
ATOM      7  C   UNL     1       1.266   3.062  21.070  0.00  0.00    +0.000 A 
ATOM      8  C   UNL     1       2.567   2.588  21.078  0.00  0.00    +0.000 A 
ATOM      9  C   UNL     1       3.583   3.335  20.471  0.00  0.00    +0.000 A 
ATOM     10  C   UNL     1       3.303   4.576  19.823  0.00  0.00    +0.000 A 
ENDROOT
BRANCH   1  11
ATOM     11  S   UNL     1       5.964   5.229  19.007  0.00  0.00    +0.000 S 
BRANCH  11  12
ATOM     12  C   UNL     1       6.171   4.000  17.672  0.00  0.00    +0.000 C 
BRANCH  12  20
ATOM     13  C   UNL     1       5.773   3.077  12.200  0.00  0.00    +0.000 C 
ATOM     14  C   UNL     1       6.695   4.109  12.708  0.00  0.00    +0.000 A 
ATOM     15  N   UNL     1       7.408   4.822  11.829  0.00  0.00    +0.000 NA
ATOM     16  O   UNL     1       8.167   5.707  12.587  0.00  0.00    +0.000 OA
ATOM     17  N   UNL     1       7.919   5.526  13.932  0.00  0.00    +0.000 NA
ATOM     18  C   UNL     1       7.013   4.542  14.023  0.00  0.00    +0.000 A 
ATOM     19  N   UNL     1       6.518   4.077  15.232  0.00  0.00    +0.000 N 
ATOM     20  C   UNL     1       6.864   4.630  16.459  0.00  0.00    +0.000 C 
ATOM     21  O   UNL     1       7.683   5.528  16.648  0.00  0.00    +0.000 OA
ATOM     22  H   UNL     1       5.799   3.363  15.209  0.00  0.00    +0.000 HD
ENDBRANCH  12  20
ENDBRANCH  11  12
ENDBRANCH   1  11
BRANCH   3  23
ATOM     23  C   UNL     1       2.095   8.288  18.156  0.00  0.00    +0.000 C 
BRANCH  23  24
ATOM     24  C   UNL     1       1.310   9.166  19.140  0.00  0.00    +0.000 C 
BRANCH  24  25
ATOM     25  C   UNL     1       0.686  10.413  18.506  0.00  0.00    +0.000 C 
ATOM     26  C   UNL     1      -0.827  10.333  18.326  0.00  0.00    +0.000 C 
ATOM     27  C   UNL     1      -1.245  11.781  18.121  0.00  0.00    +0.000 C 
ATOM     28  C   UNL     1      -0.242  12.619  18.909  0.00  0.00    +0.000 C 
ATOM     29  C   UNL     1       0.848  11.659  19.379  0.00  0.00    +0.000 C 
ENDBRANCH  24  25
ENDBRANCH  23  24
ENDBRANCH   3  23
TORSDOF 6
ENDMDL
MODEL 9
REMARK VINA RESULT:      -8.5      4.517      8.296
REMARK  Name = 
REMARK  7 active torsions:
REMARK  status: ('A' for Active; 'I' for Inactive)
REMARK    1  A    between atoms: C_1  and  C_2
REMARK    2  A    between atoms: C_8  and  C_10
REMARK    3  A    between atoms: C_10  and  S_11
REMARK    4  A    between atoms: S_11  and  C_12
REMARK    5  A    between atoms: C_14  and  C_15
REMARK    6  A    between atoms: C_15  and  C_16
REMARK    7  A    between atoms: C_16  and  C_17
REMARK                            x       y       z     vdW  Elec       q    Type
REMARK                         _______ _______ _______ _____ _____    ______ ____
ROOT
ATOM      1  C   UNL     1       3.914   5.388  19.294  0.00  0.00    +0.000 A 
ATOM      2  N   UNL     1       3.467   6.623  19.612  0.00  0.00    +0.000 NA
ATOM      3  C   UNL     1       2.196   6.733  20.018  0.00  0.00    +0.000 A 
ATOM      4  N   UNL     1       1.343   5.708  20.107  0.00  0.00    +0.000 NA
ATOM      5  C   UNL     1       1.795   4.491  19.806  0.00  0.00    +0.000 A 
ATOM      6  C   UNL     1       0.888   3.446  19.922  0.00  0.00    +0.000 A 
ATOM      7  C   UNL     1       1.240   2.124  19.652  0.00  0.00    +0.000 A 
ATOM      8  C   UNL     1       2.539   1.835  19.268  0.00  0.00    +0.000 A 
ATOM      9  C   UNL     1       3.474   2.869  19.147  0.00  0.00    +0.000 A 
ATOM     10  C   UNL     1       3.111   4.229  19.393  0.00  0.00    +0.000 A 
ENDROOT
BRANCH   1  11
ATOM     11  S   UNL     1       5.659   5.433  18.915  0.00  0.00    +0.000 S 
BRANCH  11  12
ATOM     12  C   UNL     1       5.872   4.166  17.616  0.00  0.00    +0.000 C 
BRANCH  12  20
ATOM     13  C   UNL     1       5.734   3.117  12.154  0.00  0.00    +0.000 C 
ATOM     14  C   UNL     1       6.670   4.123  12.687  0.00  0.00    +0.000 A 
ATOM     15  N   UNL     1       7.459   4.783  11.833  0.00  0.00    +0.000 NA
ATOM     16  O   UNL     1       8.213   5.656  12.610  0.00  0.00    +0.000 OA
ATOM     17  N   UNL     1       7.885   5.521  13.944  0.00  0.00    +0.000 NA
ATOM     18  C   UNL     1       6.934   4.577  14.007  0.00  0.00    +0.000 A 
ATOM     19  N   UNL     1       6.355   4.165  15.198  0.00  0.00    +0.000 N 
ATOM     20  C   UNL     1       6.656   4.736  16.429  0.00  0.00    +0.000 C 
ATOM     21  O   UNL     1       7.501   5.604  16.641  0.00  0.00    +0.000 OA
ATOM     22  H   UNL     1       5.609   3.480  15.152  0.00  0.00    +0.000 HD
ENDBRANCH  12  20
ENDBRANCH  11  12
ENDBRANCH   1  11
BRANCH   3  23
ATOM     23  C   UNL     1       1.688   8.103  20.378  0.00  0.00    +0.000 C 
BRANCH  23  24
ATOM     24  C   UNL     1       0.800   8.123  21.630  0.00  0.00    +0.000 C 
BRANCH  24  25
ATOM     25  C   UNL     1      -0.168   9.308  21.694  0.00  0.00    +0.000 C 
ATOM     26  C   UNL     1      -0.449   9.810  23.107  0.00  0.00    +0.000 C 
ATOM     27  C   UNL     1      -1.035  11.197  22.889  0.00  0.00    +0.000 C 
ATOM     28  C   UNL     1      -0.393  11.723  21.608  0.00  0.00    +0.000 C 
ATOM     29  C   UNL     1       0.387  10.556  21.005  0.00  0.00    +0.000 C 
ENDBRANCH  24  25
ENDBRANCH  23  24
ENDBRANCH   3  23
TORSDOF 6
ENDMDL
