MODEL 1
REMARK VINA RESULT:      -8.9      0.000      0.000
REMARK  Name = 
REMARK  12 active torsions:
REMARK  status: ('A' for Active; 'I' for Inactive)
REMARK    1  A    between atoms: C_1  and  C_2
REMARK    2  A    between atoms: C_2  and  C_3
REMARK    3  A    between atoms: C_3  and  N_4
REMARK    4  A    between atoms: C_9  and  C_10
REMARK    5  A    between atoms: N_13  and  C_14
REMARK    6  A    between atoms: C_14  and  C_15
REMARK    7  A    between atoms: C_18  and  C_19
REMARK    8  A    between atoms: C_23  and  O_24
REMARK    9  A    between atoms: O_24  and  C_25
REMARK   10  A    between atoms: N_31  and  C_32
REMARK   11  A    between atoms: C_32  and  C_33
REMARK   12  A    between atoms: C_33  and  C_34
REMARK                            x       y       z     vdW  Elec       q    Type
REMARK                         _______ _______ _______ _____ _____    ______ ____
ROOT
ATOM      1  C   UNL     1       2.032   8.150  19.115  0.00  0.00    +0.000 A 
ATOM      2  C   UNL     1       2.775   8.264  17.929  0.00  0.00    +0.000 A 
ATOM      3  N   UNL     1       3.543   7.191  17.709  0.00  0.00    +0.000 NA
ATOM      4  N   UNL     1       3.228   6.354  18.723  0.00  0.00    +0.000 N 
ATOM      5  C   UNL     1       2.377   6.921  19.636  0.00  0.00    +0.000 A 
ENDROOT
BRANCH   1  11
ATOM      6  N   UNL     1      -1.483  12.026  21.901  0.00  0.00    +0.000 N 
ATOM      7  C   UNL     1      -0.618  10.958  22.228  0.00  0.00    +0.000 A 
ATOM      8  O   UNL     1      -0.329  10.634  23.376  0.00  0.00    +0.000 OA
ATOM      9  C   UNL     1      -0.082  10.292  21.060  0.00  0.00    +0.000 A 
ATOM     10  N   UNL     1       0.814   9.247  20.983  0.00  0.00    +0.000 NA
ATOM     11  C   UNL     1       1.054   9.091  19.694  0.00  0.00    +0.000 A 
ATOM     12  N   UNL     1       0.294   9.960  18.945  0.00  0.00    +0.000 N 
ATOM     13  C   UNL     1      -0.441  10.710  19.809  0.00  0.00    +0.000 A 
ATOM     14  N   UNL     1      -1.334  11.721  19.511  0.00  0.00    +0.000 N 
ATOM     15  C   UNL     1      -1.864  12.441  20.598  0.00  0.00    +0.000 A 
ATOM     16  O   UNL     1      -2.632  13.388  20.421  0.00  0.00    +0.000 OA
ATOM     17  H   UNL     1       0.332  10.042  17.942  0.00  0.00    +0.000 HD
BRANCH   6  18
ATOM     18  C   UNL     1      -2.085  12.746  23.021  0.00  0.00    +0.000 C 
BRANCH  18  20
ATOM     19  C   UNL     1      -4.095  12.426  24.512  0.00  0.00    +0.000 C 
ATOM     20  C   UNL     1      -3.600  12.530  23.079  0.00  0.00    +0.000 C 
ENDBRANCH  18  20
ENDBRANCH   6  18
BRANCH  14  21
ATOM     21  C   UNL     1      -1.737  12.070  18.144  0.00  0.00    +0.000 C 
BRANCH  21  22
ATOM     22  C   UNL     1      -3.036  11.407  17.663  0.00  0.00    +0.000 C 
ATOM     23  C   UNL     1      -2.836  10.137  16.852  0.00  0.00    +0.000 C 
ENDBRANCH  21  22
ENDBRANCH  14  21
ENDBRANCH   1  11
BRANCH   4  24
ATOM     24  C   UNL     1       3.831   5.029  18.769  0.00  0.00    +0.000 C 
BRANCH  24  25
ATOM     25  C   UNL     1       4.967   4.914  17.822  0.00  0.00    +0.000 A 
ATOM     26  N   UNL     1       6.181   4.466  18.176  0.00  0.00    +0.000 NA
ATOM     27  O   UNL     1       6.858   4.367  16.954  0.00  0.00    +0.000 OA
ATOM     28  C   UNL     1       5.974   4.756  15.990  0.00  0.00    +0.000 A 
ATOM     29  N   UNL     1       4.804   5.113  16.476  0.00  0.00    +0.000 NA
BRANCH  28  30
ATOM     30  C   UNL     1       6.355   4.623  14.596  0.00  0.00    +0.000 A 
ATOM     31  C   UNL     1       7.404   5.341  14.007  0.00  0.00    +0.000 A 
ATOM     32  C   UNL     1       7.777   5.071  12.689  0.00  0.00    +0.000 A 
ATOM     33  C   UNL     1       7.098   4.098  11.951  0.00  0.00    +0.000 A 
ATOM     34  C   UNL     1       6.034   3.394  12.512  0.00  0.00    +0.000 A 
ATOM     35  C   UNL     1       5.668   3.666  13.826  0.00  0.00    +0.000 A 
BRANCH  34  36
ATOM     36  O   UNL     1       5.445   2.461  11.704  0.00  0.00    +0.000 OA
ATOM     37  C   UNL     1       6.296   1.445  11.179  0.00  0.00    +0.000 C 
ENDBRANCH  34  36
ENDBRANCH  28  30
ENDBRANCH  24  25
ENDBRANCH   4  24
TORSDOF 9
ENDMDL
MODEL 2
REMARK VINA RESULT:      -8.8      1.749      2.234
REMARK  Name = 
REMARK  12 active torsions:
REMARK  status: ('A' for Active; 'I' for Inactive)
REMARK    1  A    between atoms: C_1  and  C_2
REMARK    2  A    between atoms: C_2  and  C_3
REMARK    3  A    between atoms: C_3  and  N_4
REMARK    4  A    between atoms: C_9  and  C_10
REMARK    5  A    between atoms: N_13  and  C_14
REMARK    6  A    between atoms: C_14  and  C_15
REMARK    7  A    between atoms: C_18  and  C_19
REMARK    8  A    between atoms: C_23  and  O_24
REMARK    9  A    between atoms: O_24  and  C_25
REMARK   10  A    between atoms: N_31  and  C_32
REMARK   11  A    between atoms: C_32  and  C_33
REMARK   12  A    between atoms: C_33  and  C_34
REMARK                            x       y       z     vdW  Elec       q    Type
REMARK                         _______ _______ _______ _____ _____    ______ ____
ROOT
ATOM      1  C   UNL     1       2.224   6.165  20.219  0.00  0.00    +0.000 A 
ATOM      2  C   UNL     1       1.814   4.866  20.561  0.00  0.00    +0.000 A 
ATOM      3  N   UNL     1       2.694   3.939  20.167  0.00  0.00    +0.000 NA
ATOM      4  N   UNL     1       3.709   4.659  19.638  0.00  0.00    +0.000 N 
ATOM      5  C   UNL     1       3.435   6.001  19.582  0.00  0.00    +0.000 A 
ENDROOT
BRANCH   1  11
ATOM      6  N   UNL     1      -0.218  11.292  21.921  0.00  0.00    +0.000 N 
ATOM      7  C   UNL     1      -0.023   9.991  22.436  0.00  0.00    +0.000 A 
ATOM      8  O   UNL     1      -0.316   9.653  23.579  0.00  0.00    +0.000 OA
ATOM      9  C   UNL     1       0.585   9.093  21.477  0.00  0.00    +0.000 A 
ATOM     10  N   UNL     1       0.959   7.774  21.629  0.00  0.00    +0.000 NA
ATOM     11  C   UNL     1       1.561   7.454  20.498  0.00  0.00    +0.000 A 
ATOM     12  N   UNL     1       1.528   8.504  19.609  0.00  0.00    +0.000 N 
ATOM     13  C   UNL     1       0.892   9.538  20.222  0.00  0.00    +0.000 A 
ATOM     14  N   UNL     1       0.642  10.800  19.719  0.00  0.00    +0.000 N 
ATOM     15  C   UNL     1       0.088  11.740  20.610  0.00  0.00    +0.000 A 
ATOM     16  O   UNL     1      -0.125  12.901  20.258  0.00  0.00    +0.000 OA
ATOM     17  H   UNL     1       1.950   8.499  18.695  0.00  0.00    +0.000 HD
BRANCH   6  18
ATOM     18  C   UNL     1      -0.843  12.262  22.817  0.00  0.00    +0.000 C 
BRANCH  18  20
ATOM     19  C   UNL     1      -3.178  12.871  22.080  0.00  0.00    +0.000 C 
ATOM     20  C   UNL     1      -2.340  11.986  22.988  0.00  0.00    +0.000 C 
ENDBRANCH  18  20
ENDBRANCH   6  18
BRANCH  14  21
ATOM     21  C   UNL     1       0.925  11.193  18.335  0.00  0.00    +0.000 C 
BRANCH  21  22
ATOM     22  C   UNL     1       2.362  11.672  18.080  0.00  0.00    +0.000 C 
ATOM     23  C   UNL     1       2.550  13.179  18.159  0.00  0.00    +0.000 C 
ENDBRANCH  21  22
ENDBRANCH  14  21
ENDBRANCH   1  11
BRANCH   4  24
ATOM     24  C   UNL     1       4.902   3.971  19.162  0.00  0.00    +0.000 C 
BRANCH  24  25
ATOM     25  C   UNL     1       5.463   4.628  17.956  0.00  0.00    +0.000 A 
ATOM     26  N   UNL     1       6.299   5.677  18.009  0.00  0.00    +0.000 NA
ATOM     27  O   UNL     1       6.696   5.840  16.676  0.00  0.00    +0.000 OA
ATOM     28  C   UNL     1       6.065   4.863  15.962  0.00  0.00    +0.000 A 
ATOM     29  N   UNL     1       5.289   4.102  16.704  0.00  0.00    +0.000 NA
BRANCH  28  30
ATOM     30  C   UNL     1       6.398   4.696  14.559  0.00  0.00    +0.000 A 
ATOM     31  C   UNL     1       7.469   5.346  13.934  0.00  0.00    +0.000 A 
ATOM     32  C   UNL     1       7.788   5.044  12.608  0.00  0.00    +0.000 A 
ATOM     33  C   UNL     1       7.032   4.107  11.899  0.00  0.00    +0.000 A 
ATOM     34  C   UNL     1       5.944   3.472  12.497  0.00  0.00    +0.000 A 
ATOM     35  C   UNL     1       5.634   3.775  13.819  0.00  0.00    +0.000 A 
BRANCH  34  36
ATOM     36  O   UNL     1       5.278   2.568  11.715  0.00  0.00    +0.000 OA
ATOM     37  C   UNL     1       6.008   1.410  11.319  0.00  0.00    +0.000 C 
ENDBRANCH  34  36
ENDBRANCH  28  30
ENDBRANCH  24  25
ENDBRANCH   4  24
TORSDOF 9
ENDMDL
MODEL 3
REMARK VINA RESULT:      -8.7      2.672     10.794
REMARK  Name = 
REMARK  12 active torsions:
REMARK  status: ('A' for Active; 'I' for Inactive)
REMARK    1  A    between atoms: C_1  and  C_2
REMARK    2  A    between atoms: C_2  and  C_3
REMARK    3  A    between atoms: C_3  and  N_4
REMARK    4  A    between atoms: C_9  and  C_10
REMARK    5  A    between atoms: N_13  and  C_14
REMARK    6  A    between atoms: C_14  and  C_15
REMARK    7  A    between atoms: C_18  and  C_19
REMARK    8  A    between atoms: C_23  and  O_24
REMARK    9  A    between atoms: O_24  and  C_25
REMARK   10  A    between atoms: N_31  and  C_32
REMARK   11  A    between atoms: C_32  and  C_33
REMARK   12  A    between atoms: C_33  and  C_34
REMARK                            x       y       z     vdW  Elec       q    Type
REMARK                         _______ _______ _______ _____ _____    ______ ____
ROOT
ATOM      1  C   UNL     1       1.113   8.762  20.955  0.00  0.00    +0.000 A 
ATOM      2  C   UNL     1       0.108   8.714  21.935  0.00  0.00    +0.000 A 
ATOM      3  N   UNL     1      -0.279   9.934  22.322  0.00  0.00    +0.000 NA
ATOM      4  N   UNL     1       0.431  10.767  21.528  0.00  0.00    +0.000 N 
ATOM      5  C   UNL     1       1.337  10.106  20.740  0.00  0.00    +0.000 A 
ENDROOT
BRANCH   1  11
ATOM      6  N   UNL     1       4.223   4.714  17.942  0.00  0.00    +0.000 N 
ATOM      7  C   UNL     1       3.794   6.051  17.784  0.00  0.00    +0.000 A 
ATOM      8  O   UNL     1       4.122   6.771  16.846  0.00  0.00    +0.000 OA
ATOM      9  C   UNL     1       2.941   6.498  18.865  0.00  0.00    +0.000 A 
ATOM     10  N   UNL     1       2.372   7.736  19.074  0.00  0.00    +0.000 NA
ATOM     11  C   UNL     1       1.781   7.650  20.252  0.00  0.00    +0.000 A 
ATOM     12  N   UNL     1       1.903   6.382  20.771  0.00  0.00    +0.000 N 
ATOM     13  C   UNL     1       2.624   5.645  19.883  0.00  0.00    +0.000 A 
ATOM     14  N   UNL     1       3.006   4.322  19.990  0.00  0.00    +0.000 N 
ATOM     15  C   UNL     1       3.872   3.829  18.995  0.00  0.00    +0.000 A 
ATOM     16  O   UNL     1       4.299   2.675  19.037  0.00  0.00    +0.000 OA
ATOM     17  H   UNL     1       1.557   6.091  21.671  0.00  0.00    +0.000 HD
BRANCH   6  18
ATOM     18  C   UNL     1       5.076   4.172  16.886  0.00  0.00    +0.000 C 
BRANCH  18  20
ATOM     19  C   UNL     1       7.210   4.826  15.710  0.00  0.00    +0.000 C 
ATOM     20  C   UNL     1       6.531   4.619  17.054  0.00  0.00    +0.000 C 
ENDBRANCH  18  20
ENDBRANCH   6  18
BRANCH  14  21
ATOM     21  C   UNL     1       2.566   3.434  21.071  0.00  0.00    +0.000 C 
BRANCH  21  22
ATOM     22  C   UNL     1       1.121   2.928  20.945  0.00  0.00    +0.000 C 
ATOM     23  C   UNL     1       0.669   2.651  19.520  0.00  0.00    +0.000 C 
ENDBRANCH  21  22
ENDBRANCH  14  21
ENDBRANCH   1  11
BRANCH   4  24
ATOM     24  C   UNL     1       0.210  12.204  21.620  0.00  0.00    +0.000 C 
BRANCH  24  25
ATOM     25  C   UNL     1      -1.155  12.574  21.172  0.00  0.00    +0.000 A 
ATOM     26  N   UNL     1      -1.710  13.772  21.411  0.00  0.00    +0.000 NA
ATOM     27  O   UNL     1      -2.898  13.731  20.670  0.00  0.00    +0.000 OA
ATOM     28  C   UNL     1      -2.927  12.514  20.053  0.00  0.00    +0.000 A 
ATOM     29  N   UNL     1      -1.884  11.765  20.340  0.00  0.00    +0.000 NA
BRANCH  28  30
ATOM     30  C   UNL     1      -3.984  12.239  19.096  0.00  0.00    +0.000 A 
ATOM     31  C   UNL     1      -5.317  12.624  19.284  0.00  0.00    +0.000 A 
ATOM     32  C   UNL     1      -6.250  12.419  18.264  0.00  0.00    +0.000 A 
ATOM     33  C   UNL     1      -5.859  11.819  17.065  0.00  0.00    +0.000 A 
ATOM     34  C   UNL     1      -4.543  11.403  16.873  0.00  0.00    +0.000 A 
ATOM     35  C   UNL     1      -3.618  11.612  17.891  0.00  0.00    +0.000 A 
BRANCH  34  36
ATOM     36  O   UNL     1      -4.268  10.833  15.660  0.00  0.00    +0.000 OA
ATOM     37  C   UNL     1      -2.891  10.695  15.319  0.00  0.00    +0.000 C 
ENDBRANCH  34  36
ENDBRANCH  28  30
ENDBRANCH  24  25
ENDBRANCH   4  24
TORSDOF 9
ENDMDL
MODEL 4
REMARK VINA RESULT:      -8.6      3.744     10.680
REMARK  Name = 
REMARK  12 active torsions:
REMARK  status: ('A' for Active; 'I' for Inactive)
REMARK    1  A    between atoms: C_1  and  C_2
REMARK    2  A    between atoms: C_2  and  C_3
REMARK    3  A    between atoms: C_3  and  N_4
REMARK    4  A    between atoms: C_9  and  C_10
REMARK    5  A    between atoms: N_13  and  C_14
REMARK    6  A    between atoms: C_14  and  C_15
REMARK    7  A    between atoms: C_18  and  C_19
REMARK    8  A    between atoms: C_23  and  O_24
REMARK    9  A    between atoms: O_24  and  C_25
REMARK   10  A    between atoms: N_31  and  C_32
REMARK   11  A    between atoms: C_32  and  C_33
REMARK   12  A    between atoms: C_33  and  C_34
REMARK                            x       y       z     vdW  Elec       q    Type
REMARK                         _______ _______ _______ _____ _____    ______ ____
ROOT
ATOM      1  C   UNL     1       1.035   9.223  18.920  0.00  0.00    +0.000 A 
ATOM      2  C   UNL     1       0.207   9.924  18.030  0.00  0.00    +0.000 A 
ATOM      3  N   UNL     1      -0.530  10.852  18.650  0.00  0.00    +0.000 NA
ATOM      4  N   UNL     1      -0.111  10.793  19.934  0.00  0.00    +0.000 N 
ATOM      5  C   UNL     1       0.778   9.775  20.157  0.00  0.00    +0.000 A 
ENDROOT
BRANCH   1  11
ATOM      6  N   UNL     1       5.353   5.383  17.595  0.00  0.00    +0.000 N 
ATOM      7  C   UNL     1       4.782   6.558  17.059  0.00  0.00    +0.000 A 
ATOM      8  O   UNL     1       5.217   7.146  16.074  0.00  0.00    +0.000 OA
ATOM      9  C   UNL     1       3.634   7.019  17.812  0.00  0.00    +0.000 A 
ATOM     10  N   UNL     1       2.853   8.139  17.618  0.00  0.00    +0.000 NA
ATOM     11  C   UNL     1       2.013   8.154  18.636  0.00  0.00    +0.000 A 
ATOM     12  N   UNL     1       2.192   7.050  19.438  0.00  0.00    +0.000 N 
ATOM     13  C   UNL     1       3.208   6.319  18.906  0.00  0.00    +0.000 A 
ATOM     14  N   UNL     1       3.745   5.138  19.380  0.00  0.00    +0.000 N 
ATOM     15  C   UNL     1       4.891   4.652  18.721  0.00  0.00    +0.000 A 
ATOM     16  O   UNL     1       5.461   3.631  19.107  0.00  0.00    +0.000 OA
ATOM     17  H   UNL     1       1.684   6.866  20.287  0.00  0.00    +0.000 HD
BRANCH   6  18
ATOM     18  C   UNL     1       6.508   4.836  16.888  0.00  0.00    +0.000 C 
BRANCH  18  20
ATOM     19  C   UNL     1       6.364   4.385  14.409  0.00  0.00    +0.000 C 
ATOM     20  C   UNL     1       6.084   3.843  15.801  0.00  0.00    +0.000 C 
ENDBRANCH  18  20
ENDBRANCH   6  18
BRANCH  14  21
ATOM     21  C   UNL     1       3.191   4.393  20.516  0.00  0.00    +0.000 C 
BRANCH  21  22
ATOM     22  C   UNL     1       2.007   3.477  20.172  0.00  0.00    +0.000 C 
ATOM     23  C   UNL     1       1.340   2.827  21.374  0.00  0.00    +0.000 C 
ENDBRANCH  21  22
ENDBRANCH  14  21
ENDBRANCH   1  11
BRANCH   4  24
ATOM     24  C   UNL     1      -0.655  11.732  20.907  0.00  0.00    +0.000 C 
BRANCH  24  25
ATOM     25  C   UNL     1       0.242  12.899  21.097  0.00  0.00    +0.000 A 
ATOM     26  N   UNL     1       0.611  13.357  22.303  0.00  0.00    +0.000 NA
ATOM     27  O   UNL     1       1.573  14.329  21.999  0.00  0.00    +0.000 OA
ATOM     28  C   UNL     1       1.689  14.345  20.639  0.00  0.00    +0.000 A 
ATOM     29  N   UNL     1       0.884  13.492  20.042  0.00  0.00    +0.000 NA
BRANCH  28  30
ATOM     30  C   UNL     1       2.724  15.165  20.035  0.00  0.00    +0.000 A 
ATOM     31  C   UNL     1       4.061  15.154  20.449  0.00  0.00    +0.000 A 
ATOM     32  C   UNL     1       5.014  15.890  19.741  0.00  0.00    +0.000 A 
ATOM     33  C   UNL     1       4.634  16.648  18.630  0.00  0.00    +0.000 A 
ATOM     34  C   UNL     1       3.302  16.693  18.222  0.00  0.00    +0.000 A 
ATOM     35  C   UNL     1       2.358  15.956  18.930  0.00  0.00    +0.000 A 
BRANCH  34  36
ATOM     36  O   UNL     1       3.042  17.460  17.120  0.00  0.00    +0.000 OA
ATOM     37  C   UNL     1       1.688  17.860  16.929  0.00  0.00    +0.000 C 
ENDBRANCH  34  36
ENDBRANCH  28  30
ENDBRANCH  24  25
ENDBRANCH   4  24
TORSDOF 9
ENDMDL
MODEL 5
REMARK VINA RESULT:      -8.6      3.965     10.395
REMARK  Name = 
REMARK  12 active torsions:
REMARK  status: ('A' for Active; 'I' for Inactive)
REMARK    1  A    between atoms: C_1  and  C_2
REMARK    2  A    between atoms: C_2  and  C_3
REMARK    3  A    between atoms: C_3  and  N_4
REMARK    4  A    between atoms: C_9  and  C_10
REMARK    5  A    between atoms: N_13  and  C_14
REMARK    6  A    between atoms: C_14  and  C_15
REMARK    7  A    between atoms: C_18  and  C_19
REMARK    8  A    between atoms: C_23  and  O_24
REMARK    9  A    between atoms: O_24  and  C_25
REMARK   10  A    between atoms: N_31  and  C_32
REMARK   11  A    between atoms: C_32  and  C_33
REMARK   12  A    between atoms: C_33  and  C_34
REMARK                            x       y       z     vdW  Elec       q    Type
REMARK                         _______ _______ _______ _____ _____    ______ ____
ROOT
ATOM      1  C   UNL     1       1.052   9.321  18.871  0.00  0.00    +0.000 A 
ATOM      2  C   UNL     1       0.232  10.025  17.975  0.00  0.00    +0.000 A 
ATOM      3  N   UNL     1      -0.481  10.978  18.585  0.00  0.00    +0.000 NA
ATOM      4  N   UNL     1      -0.055  10.930  19.868  0.00  0.00    +0.000 N 
ATOM      5  C   UNL     1       0.814   9.897  20.101  0.00  0.00    +0.000 A 
ENDROOT
BRANCH   1  11
ATOM      6  N   UNL     1       5.280   5.372  17.579  0.00  0.00    +0.000 N 
ATOM      7  C   UNL     1       4.730   6.550  17.028  0.00  0.00    +0.000 A 
ATOM      8  O   UNL     1       5.170   7.113  16.031  0.00  0.00    +0.000 OA
ATOM      9  C   UNL     1       3.597   7.046  17.781  0.00  0.00    +0.000 A 
ATOM     10  N   UNL     1       2.838   8.179  17.575  0.00  0.00    +0.000 NA
ATOM     11  C   UNL     1       2.005   8.228  18.598  0.00  0.00    +0.000 A 
ATOM     12  N   UNL     1       2.167   7.133  19.416  0.00  0.00    +0.000 N 
ATOM     13  C   UNL     1       3.164   6.373  18.888  0.00  0.00    +0.000 A 
ATOM     14  N   UNL     1       3.680   5.189  19.379  0.00  0.00    +0.000 N 
ATOM     15  C   UNL     1       4.811   4.669  18.720  0.00  0.00    +0.000 A 
ATOM     16  O   UNL     1       5.363   3.643  19.118  0.00  0.00    +0.000 OA
ATOM     17  H   UNL     1       1.661   6.973  20.272  0.00  0.00    +0.000 HD
BRANCH   6  18
ATOM     18  C   UNL     1       6.419   4.790  16.872  0.00  0.00    +0.000 C 
BRANCH  18  20
ATOM     19  C   UNL     1       6.284   4.335  14.394  0.00  0.00    +0.000 C 
ATOM     20  C   UNL     1       5.965   3.811  15.785  0.00  0.00    +0.000 C 
ENDBRANCH  18  20
ENDBRANCH   6  18
BRANCH  14  21
ATOM     21  C   UNL     1       3.119   4.474  20.529  0.00  0.00    +0.000 C 
BRANCH  21  22
ATOM     22  C   UNL     1       1.851   3.660  20.230  0.00  0.00    +0.000 C 
ATOM     23  C   UNL     1       1.319   2.861  21.409  0.00  0.00    +0.000 C 
ENDBRANCH  21  22
ENDBRANCH  14  21
ENDBRANCH   1  11
BRANCH   4  24
ATOM     24  C   UNL     1      -0.573  11.895  20.829  0.00  0.00    +0.000 C 
BRANCH  24  25
ATOM     25  C   UNL     1       0.374  13.018  21.037  0.00  0.00    +0.000 A 
ATOM     26  N   UNL     1       0.721  13.476  22.250  0.00  0.00    +0.000 NA
ATOM     27  O   UNL     1       1.741  14.394  21.968  0.00  0.00    +0.000 OA
ATOM     28  C   UNL     1       1.908  14.382  20.614  0.00  0.00    +0.000 A 
ATOM     29  N   UNL     1       1.083  13.562  19.999  0.00  0.00    +0.000 NA
BRANCH  28  30
ATOM     30  C   UNL     1       3.004  15.141  20.037  0.00  0.00    +0.000 A 
ATOM     31  C   UNL     1       3.334  16.444  20.429  0.00  0.00    +0.000 A 
ATOM     32  C   UNL     1       4.472  17.061  19.903  0.00  0.00    +0.000 A 
ATOM     33  C   UNL     1       5.273  16.386  18.977  0.00  0.00    +0.000 A 
ATOM     34  C   UNL     1       4.942  15.100  18.555  0.00  0.00    +0.000 A 
ATOM     35  C   UNL     1       3.809  14.490  19.084  0.00  0.00    +0.000 A 
BRANCH  34  36
ATOM     36  O   UNL     1       5.797  14.531  17.651  0.00  0.00    +0.000 OA
ATOM     37  C   UNL     1       7.172  14.891  17.763  0.00  0.00    +0.000 C 
ENDBRANCH  34  36
ENDBRANCH  28  30
ENDBRANCH  24  25
ENDBRANCH   4  24
TORSDOF 9
ENDMDL
MODEL 6
REMARK VINA RESULT:      -8.6      2.187     12.087
REMARK  Name = 
REMARK  12 active torsions:
REMARK  status: ('A' for Active; 'I' for Inactive)
REMARK    1  A    between atoms: C_1  and  C_2
REMARK    2  A    between atoms: C_2  and  C_3
REMARK    3  A    between atoms: C_3  and  N_4
REMARK    4  A    between atoms: C_9  and  C_10
REMARK    5  A    between atoms: N_13  and  C_14
REMARK    6  A    between atoms: C_14  and  C_15
REMARK    7  A    between atoms: C_18  and  C_19
REMARK    8  A    between atoms: C_23  and  O_24
REMARK    9  A    between atoms: O_24  and  C_25
REMARK   10  A    between atoms: N_31  and  C_32
REMARK   11  A    between atoms: C_32  and  C_33
REMARK   12  A    between atoms: C_33  and  C_34
REMARK                            x       y       z     vdW  Elec       q    Type
REMARK                         _______ _______ _______ _____ _____    ______ ____
ROOT
ATOM      1  C   UNL     1       1.179   9.509  18.311  0.00  0.00    +0.000 A 
ATOM      2  C   UNL     1      -0.149   9.626  17.869  0.00  0.00    +0.000 A 
ATOM      3  N   UNL     1      -0.686  10.808  18.190  0.00  0.00    +0.000 NA
ATOM      4  N   UNL     1       0.333  11.479  18.774  0.00  0.00    +0.000 N 
ATOM      5  C   UNL     1       1.454  10.707  18.935  0.00  0.00    +0.000 A 
ENDROOT
BRANCH   1  11
ATOM      6  N   UNL     1       5.377   5.432  17.367  0.00  0.00    +0.000 N 
ATOM      7  C   UNL     1       4.837   6.564  16.717  0.00  0.00    +0.000 A 
ATOM      8  O   UNL     1       5.283   7.037  15.676  0.00  0.00    +0.000 OA
ATOM      9  C   UNL     1       3.707   7.131  17.422  0.00  0.00    +0.000 A 
ATOM     10  N   UNL     1       2.958   8.248  17.119  0.00  0.00    +0.000 NA
ATOM     11  C   UNL     1       2.124   8.390  18.133  0.00  0.00    +0.000 A 
ATOM     12  N   UNL     1       2.276   7.367  19.041  0.00  0.00    +0.000 N 
ATOM     13  C   UNL     1       3.268   6.557  18.582  0.00  0.00    +0.000 A 
ATOM     14  N   UNL     1       3.774   5.415  19.172  0.00  0.00    +0.000 N 
ATOM     15  C   UNL     1       4.901   4.832  18.562  0.00  0.00    +0.000 A 
ATOM     16  O   UNL     1       5.445   3.839  19.047  0.00  0.00    +0.000 OA
ATOM     17  H   UNL     1       1.768   7.284  19.906  0.00  0.00    +0.000 HD
BRANCH   6  18
ATOM     18  C   UNL     1       6.512   4.783  16.714  0.00  0.00    +0.000 C 
BRANCH  18  20
ATOM     19  C   UNL     1       6.577   4.148  14.273  0.00  0.00    +0.000 C 
ATOM     20  C   UNL     1       6.053   3.780  15.652  0.00  0.00    +0.000 C 
ENDBRANCH  18  20
ENDBRANCH   6  18
BRANCH  14  21
ATOM     21  C   UNL     1       3.206   4.804  20.378  0.00  0.00    +0.000 C 
BRANCH  21  22
ATOM     22  C   UNL     1       2.287   3.600  20.122  0.00  0.00    +0.000 C 
ATOM     23  C   UNL     1       0.803   3.930  20.096  0.00  0.00    +0.000 C 
ENDBRANCH  21  22
ENDBRANCH  14  21
ENDBRANCH   1  11
BRANCH   4  24
ATOM     24  C   UNL     1       0.131  12.859  19.196  0.00  0.00    +0.000 C 
BRANCH  24  25
ATOM     25  C   UNL     1      -0.505  12.930  20.535  0.00  0.00    +0.000 A 
ATOM     26  N   UNL     1       0.049  13.561  21.582  0.00  0.00    +0.000 NA
ATOM     27  O   UNL     1      -0.959  13.522  22.553  0.00  0.00    +0.000 OA
ATOM     28  C   UNL     1      -2.020  12.881  21.982  0.00  0.00    +0.000 A 
ATOM     29  N   UNL     1      -1.784  12.489  20.748  0.00  0.00    +0.000 NA
BRANCH  28  30
ATOM     30  C   UNL     1      -3.274  12.814  22.712  0.00  0.00    +0.000 A 
ATOM     31  C   UNL     1      -3.396  12.256  23.990  0.00  0.00    +0.000 A 
ATOM     32  C   UNL     1      -4.615  12.332  24.669  0.00  0.00    +0.000 A 
ATOM     33  C   UNL     1      -5.715  12.951  24.070  0.00  0.00    +0.000 A 
ATOM     34  C   UNL     1      -5.618  13.487  22.786  0.00  0.00    +0.000 A 
ATOM     35  C   UNL     1      -4.401  13.409  22.117  0.00  0.00    +0.000 A 
BRANCH  34  36
ATOM     36  O   UNL     1      -6.753  14.075  22.299  0.00  0.00    +0.000 OA
ATOM     37  C   UNL     1      -7.895  14.058  23.151  0.00  0.00    +0.000 C 
ENDBRANCH  34  36
ENDBRANCH  28  30
ENDBRANCH  24  25
ENDBRANCH   4  24
TORSDOF 9
ENDMDL
MODEL 7
REMARK VINA RESULT:      -8.5      3.609     10.541
REMARK  Name = 
REMARK  12 active torsions:
REMARK  status: ('A' for Active; 'I' for Inactive)
REMARK    1  A    between atoms: C_1  and  C_2
REMARK    2  A    between atoms: C_2  and  C_3
REMARK    3  A    between atoms: C_3  and  N_4
REMARK    4  A    between atoms: C_9  and  C_10
REMARK    5  A    between atoms: N_13  and  C_14
REMARK    6  A    between atoms: C_14  and  C_15
REMARK    7  A    between atoms: C_18  and  C_19
REMARK    8  A    between atoms: C_23  and  O_24
REMARK    9  A    between atoms: O_24  and  C_25
REMARK   10  A    between atoms: N_31  and  C_32
REMARK   11  A    between atoms: C_32  and  C_33
REMARK   12  A    between atoms: C_33  and  C_34
REMARK                            x       y       z     vdW  Elec       q    Type
REMARK                         _______ _______ _______ _____ _____    ______ ____
ROOT
ATOM      1  C   UNL     1       0.685   8.664  20.914  0.00  0.00    +0.000 A 
ATOM      2  C   UNL     1      -0.081   8.588  22.089  0.00  0.00    +0.000 A 
ATOM      3  N   UNL     1      -0.768   9.713  22.317  0.00  0.00    +0.000 NA
ATOM      4  N   UNL     1      -0.497  10.483  21.239  0.00  0.00    +0.000 N 
ATOM      5  C   UNL     1       0.433   9.920  20.404  0.00  0.00    +0.000 A 
ENDROOT
BRANCH   1  11
ATOM      6  N   UNL     1       4.556   5.006  18.313  0.00  0.00    +0.000 N 
ATOM      7  C   UNL     1       4.013   6.293  18.104  0.00  0.00    +0.000 A 
ATOM      8  O   UNL     1       4.379   7.058  17.217  0.00  0.00    +0.000 OA
ATOM      9  C   UNL     1       2.989   6.633  19.069  0.00  0.00    +0.000 A 
ATOM     10  N   UNL     1       2.271   7.803  19.206  0.00  0.00    +0.000 NA
ATOM     11  C   UNL     1       1.549   7.638  20.299  0.00  0.00    +0.000 A 
ATOM     12  N   UNL     1       1.737   6.382  20.828  0.00  0.00    +0.000 N 
ATOM     13  C   UNL     1       2.636   5.736  20.037  0.00  0.00    +0.000 A 
ATOM     14  N   UNL     1       3.139   4.459  20.189  0.00  0.00    +0.000 N 
ATOM     15  C   UNL     1       4.170   4.074  19.311  0.00  0.00    +0.000 A 
ATOM     16  O   UNL     1       4.707   2.969  19.405  0.00  0.00    +0.000 OA
ATOM     17  H   UNL     1       1.312   6.043  21.676  0.00  0.00    +0.000 HD
BRANCH   6  18
ATOM     18  C   UNL     1       5.587   4.571  17.373  0.00  0.00    +0.000 C 
BRANCH  18  20
ATOM     19  C   UNL     1       6.039   3.619  15.081  0.00  0.00    +0.000 C 
ATOM     20  C   UNL     1       4.988   4.200  16.013  0.00  0.00    +0.000 C 
ENDBRANCH  18  20
ENDBRANCH   6  18
BRANCH  14  21
ATOM     21  C   UNL     1       2.661   3.514  21.204  0.00  0.00    +0.000 C 
BRANCH  21  22
ATOM     22  C   UNL     1       1.711   2.426  20.680  0.00  0.00    +0.000 C 
ATOM     23  C   UNL     1       0.706   2.909  19.646  0.00  0.00    +0.000 C 
ENDBRANCH  21  22
ENDBRANCH  14  21
ENDBRANCH   1  11
BRANCH   4  24
ATOM     24  C   UNL     1      -1.145  11.781  21.107  0.00  0.00    +0.000 C 
BRANCH  24  25
ATOM     25  C   UNL     1      -0.150  12.874  20.976  0.00  0.00    +0.000 A 
ATOM     26  N   UNL     1       0.528  13.384  22.016  0.00  0.00    +0.000 NA
ATOM     27  O   UNL     1       1.453  14.242  21.408  0.00  0.00    +0.000 OA
ATOM     28  C   UNL     1       1.241  14.150  20.063  0.00  0.00    +0.000 A 
ATOM     29  N   UNL     1       0.259  13.331  19.751  0.00  0.00    +0.000 NA
BRANCH  28  30
ATOM     30  C   UNL     1       2.155  14.829  19.162  0.00  0.00    +0.000 A 
ATOM     31  C   UNL     1       3.397  14.308  18.781  0.00  0.00    +0.000 A 
ATOM     32  C   UNL     1       4.166  14.973  17.823  0.00  0.00    +0.000 A 
ATOM     33  C   UNL     1       3.705  16.165  17.256  0.00  0.00    +0.000 A 
ATOM     34  C   UNL     1       2.484  16.713  17.646  0.00  0.00    +0.000 A 
ATOM     35  C   UNL     1       1.722  16.043  18.599  0.00  0.00    +0.000 A 
BRANCH  34  36
ATOM     36  O   UNL     1       2.127  17.877  17.023  0.00  0.00    +0.000 OA
ATOM     37  C   UNL     1       0.856  18.420  17.370  0.00  0.00    +0.000 C 
ENDBRANCH  34  36
ENDBRANCH  28  30
ENDBRANCH  24  25
ENDBRANCH   4  24
TORSDOF 9
ENDMDL
MODEL 8
REMARK VINA RESULT:      -8.5      3.103     12.195
REMARK  Name = 
REMARK  12 active torsions:
REMARK  status: ('A' for Active; 'I' for Inactive)
REMARK    1  A    between atoms: C_1  and  C_2
REMARK    2  A    between atoms: C_2  and  C_3
REMARK    3  A    between atoms: C_3  and  N_4
REMARK    4  A    between atoms: C_9  and  C_10
REMARK    5  A    between atoms: N_13  and  C_14
REMARK    6  A    between atoms: C_14  and  C_15
REMARK    7  A    between atoms: C_18  and  C_19
REMARK    8  A    between atoms: C_23  and  O_24
REMARK    9  A    between atoms: O_24  and  C_25
REMARK   10  A    between atoms: N_31  and  C_32
REMARK   11  A    between atoms: C_32  and  C_33
REMARK   12  A    between atoms: C_33  and  C_34
REMARK                            x       y       z     vdW  Elec       q    Type
REMARK                         _______ _______ _______ _____ _____    ______ ____
ROOT
ATOM      1  C   UNL     1       0.962   9.080  20.455  0.00  0.00    +0.000 A 
ATOM      2  C   UNL     1       0.081   9.074  21.549  0.00  0.00    +0.000 A 
ATOM      3  N   UNL     1      -0.481  10.270  21.752  0.00  0.00    +0.000 NA
ATOM      4  N   UNL     1      -0.012  11.026  20.733  0.00  0.00    +0.000 N 
ATOM      5  C   UNL     1       0.918  10.370  19.970  0.00  0.00    +0.000 A 
ENDROOT
BRANCH   1  11
ATOM      6  N   UNL     1       4.542   5.044  18.000  0.00  0.00    +0.000 N 
ATOM      7  C   UNL     1       4.061   6.342  17.718  0.00  0.00    +0.000 A 
ATOM      8  O   UNL     1       4.436   7.022  16.768  0.00  0.00    +0.000 OA
ATOM      9  C   UNL     1       3.090   6.803  18.688  0.00  0.00    +0.000 A 
ATOM     10  N   UNL     1       2.440   8.017  18.764  0.00  0.00    +0.000 NA
ATOM     11  C   UNL     1       1.749   7.968  19.888  0.00  0.00    +0.000 A 
ATOM     12  N   UNL     1       1.889   6.743  20.498  0.00  0.00    +0.000 N 
ATOM     13  C   UNL     1       2.725   5.996  19.727  0.00  0.00    +0.000 A 
ATOM     14  N   UNL     1       3.164   4.706  19.954  0.00  0.00    +0.000 N 
ATOM     15  C   UNL     1       4.142   4.205  19.073  0.00  0.00    +0.000 A 
ATOM     16  O   UNL     1       4.623   3.082  19.228  0.00  0.00    +0.000 OA
ATOM     17  H   UNL     1       1.477   6.487  21.380  0.00  0.00    +0.000 HD
BRANCH   6  18
ATOM     18  C   UNL     1       5.516   4.490  17.062  0.00  0.00    +0.000 C 
BRANCH  18  20
ATOM     19  C   UNL     1       7.287   5.866  18.218  0.00  0.00    +0.000 C 
ATOM     20  C   UNL     1       6.932   4.503  17.647  0.00  0.00    +0.000 C 
ENDBRANCH  18  20
ENDBRANCH   6  18
BRANCH  14  21
ATOM     21  C   UNL     1       2.673   3.861  21.047  0.00  0.00    +0.000 C 
BRANCH  21  22
ATOM     22  C   UNL     1       1.202   3.436  20.926  0.00  0.00    +0.000 C 
ATOM     23  C   UNL     1       0.841   2.775  19.605  0.00  0.00    +0.000 C 
ENDBRANCH  21  22
ENDBRANCH  14  21
ENDBRANCH   1  11
BRANCH   4  24
ATOM     24  C   UNL     1      -0.478  12.398  20.587  0.00  0.00    +0.000 C 
BRANCH  24  25
ATOM     25  C   UNL     1      -1.906  12.448  20.185  0.00  0.00    +0.000 A 
ATOM     26  N   UNL     1      -2.370  11.913  19.046  0.00  0.00    +0.000 NA
ATOM     27  O   UNL     1      -3.759  12.041  19.172  0.00  0.00    +0.000 OA
ATOM     28  C   UNL     1      -3.985  12.631  20.381  0.00  0.00    +0.000 A 
ATOM     29  N   UNL     1      -2.876  12.911  21.034  0.00  0.00    +0.000 NA
BRANCH  28  30
ATOM     30  C   UNL     1      -5.352  12.766  20.851  0.00  0.00    +0.000 A 
ATOM     31  C   UNL     1      -6.361  11.836  20.574  0.00  0.00    +0.000 A 
ATOM     32  C   UNL     1      -7.622  11.984  21.156  0.00  0.00    +0.000 A 
ATOM     33  C   UNL     1      -7.883  13.065  22.002  0.00  0.00    +0.000 A 
ATOM     34  C   UNL     1      -6.899  14.016  22.265  0.00  0.00    +0.000 A 
ATOM     35  C   UNL     1      -5.644  13.862  21.684  0.00  0.00    +0.000 A 
BRANCH  34  36
ATOM     36  O   UNL     1      -7.260  15.029  23.111  0.00  0.00    +0.000 OA
ATOM     37  C   UNL     1      -6.226  15.577  23.925  0.00  0.00    +0.000 C 
ENDBRANCH  34  36
ENDBRANCH  28  30
ENDBRANCH  24  25
ENDBRANCH   4  24
TORSDOF 9
ENDMDL
MODEL 9
REMARK VINA RESULT:      -8.5      2.589     12.140
REMARK  Name = 
REMARK  12 active torsions:
REMARK  status: ('A' for Active; 'I' for Inactive)
REMARK    1  A    between atoms: C_1  and  C_2
REMARK    2  A    between atoms: C_2  and  C_3
REMARK    3  A    between atoms: C_3  and  N_4
REMARK    4  A    between atoms: C_9  and  C_10
REMARK    5  A    between atoms: N_13  and  C_14
REMARK    6  A    between atoms: C_14  and  C_15
REMARK    7  A    between atoms: C_18  and  C_19
REMARK    8  A    between atoms: C_23  and  O_24
REMARK    9  A    between atoms: O_24  and  C_25
REMARK   10  A    between atoms: N_31  and  C_32
REMARK   11  A    between atoms: C_32  and  C_33
REMARK   12  A    between atoms: C_33  and  C_34
REMARK                            x       y       z     vdW  Elec       q    Type
REMARK                         _______ _______ _______ _____ _____    ______ ____
ROOT
ATOM      1  C   UNL     1       1.493   9.234  19.335  0.00  0.00    +0.000 A 
ATOM      2  C   UNL     1       0.915   9.472  20.593  0.00  0.00    +0.000 A 
ATOM      3  N   UNL     1       0.332  10.673  20.662  0.00  0.00    +0.000 NA
ATOM      4  N   UNL     1       0.473  11.174  19.413  0.00  0.00    +0.000 N 
ATOM      5  C   UNL     1       1.231  10.371  18.602  0.00  0.00    +0.000 A 
ENDROOT
BRANCH   1  11
ATOM      6  N   UNL     1       4.787   4.788  17.210  0.00  0.00    +0.000 N 
ATOM      7  C   UNL     1       4.450   6.115  16.862  0.00  0.00    +0.000 A 
ATOM      8  O   UNL     1       4.939   6.722  15.914  0.00  0.00    +0.000 OA
ATOM      9  C   UNL     1       3.479   6.702  17.760  0.00  0.00    +0.000 A 
ATOM     10  N   UNL     1       2.948   7.974  17.763  0.00  0.00    +0.000 NA
ATOM     11  C   UNL     1       2.196   8.032  18.847  0.00  0.00    +0.000 A 
ATOM     12  N   UNL     1       2.183   6.821  19.501  0.00  0.00    +0.000 N 
ATOM     13  C   UNL     1       2.982   5.971  18.802  0.00  0.00    +0.000 A 
ATOM     14  N   UNL     1       3.281   4.654  19.092  0.00  0.00    +0.000 N 
ATOM     15  C   UNL     1       4.250   4.030  18.283  0.00  0.00    +0.000 A 
ATOM     16  O   UNL     1       4.610   2.872  18.499  0.00  0.00    +0.000 OA
ATOM     17  H   UNL     1       1.702   6.638  20.366  0.00  0.00    +0.000 HD
BRANCH   6  18
ATOM     18  C   UNL     1       5.750   4.109  16.345  0.00  0.00    +0.000 C 
BRANCH  18  20
ATOM     19  C   UNL     1       7.650   4.660  17.911  0.00  0.00    +0.000 C 
ATOM     20  C   UNL     1       7.150   4.717  16.477  0.00  0.00    +0.000 C 
ENDBRANCH  18  20
ENDBRANCH   6  18
BRANCH  14  21
ATOM     21  C   UNL     1       2.652   3.899  20.181  0.00  0.00    +0.000 C 
BRANCH  21  22
ATOM     22  C   UNL     1       1.162   3.587  19.976  0.00  0.00    +0.000 C 
ATOM     23  C   UNL     1       0.879   2.488  18.965  0.00  0.00    +0.000 C 
ENDBRANCH  21  22
ENDBRANCH  14  21
ENDBRANCH   1  11
BRANCH   4  24
ATOM     24  C   UNL     1      -0.119  12.466  19.090  0.00  0.00    +0.000 C 
BRANCH  24  25
ATOM     25  C   UNL     1      -1.536  12.539  19.523  0.00  0.00    +0.000 A 
ATOM     26  N   UNL     1      -2.561  12.121  18.765  0.00  0.00    +0.000 NA
ATOM     27  O   UNL     1      -3.660  12.217  19.629  0.00  0.00    +0.000 OA
ATOM     28  C   UNL     1      -3.177  12.673  20.821  0.00  0.00    +0.000 A 
ATOM     29  N   UNL     1      -1.880  12.896  20.800  0.00  0.00    +0.000 NA
BRANCH  28  30
ATOM     30  C   UNL     1      -4.074  12.739  21.960  0.00  0.00    +0.000 A 
ATOM     31  C   UNL     1      -3.658  12.555  23.285  0.00  0.00    +0.000 A 
ATOM     32  C   UNL     1      -4.563  12.746  24.331  0.00  0.00    +0.000 A 
ATOM     33  C   UNL     1      -5.886  13.106  24.059  0.00  0.00    +0.000 A 
ATOM     34  C   UNL     1      -6.324  13.264  22.745  0.00  0.00    +0.000 A 
ATOM     35  C   UNL     1      -5.416  13.075  21.708  0.00  0.00    +0.000 A 
BRANCH  34  36
ATOM     36  O   UNL     1      -7.635  13.623  22.593  0.00  0.00    +0.000 OA
ATOM     37  C   UNL     1      -7.916  15.021  22.586  0.00  0.00    +0.000 C 
ENDBRANCH  34  36
ENDBRANCH  28  30
ENDBRANCH  24  25
ENDBRANCH   4  24
TORSDOF 9
ENDMDL
