MODEL 1
REMARK VINA RESULT:      -7.0      0.000      0.000
REMARK  Name = 
REMARK  9 active torsions:
REMARK  status: ('A' for Active; 'I' for Inactive)
REMARK    1  A    between atoms: C_1  and  C_2
REMARK    2  A    between atoms: C_2  and  C_3
REMARK    3  A    between atoms: C_2  and  C_4
REMARK    4  A    between atoms: C_4  and  S_5
REMARK    5  A    between atoms: C_4  and  C_15
REMARK    6  A    between atoms: S_5  and  C_6
REMARK    7  A    between atoms: N_10  and  C_11
REMARK    8  A    between atoms: N_17  and  C_18
REMARK    9  A    between atoms: C_18  and  C_19
REMARK                            x       y       z     vdW  Elec       q    Type
REMARK                         _______ _______ _______ _____ _____    ______ ____
ROOT
ATOM      1  C   UNL     1       2.593   4.063  19.331  0.00  0.00    +0.000 C 
ENDROOT
BRANCH   1   2
ATOM      2  C   UNL     1       4.036   3.815  18.877  0.00  0.00    +0.000 C 
ATOM      3  O   UNL     1       4.852   3.185  19.545  0.00  0.00    +0.000 OA
ATOM      4  N   UNL     1       4.362   4.374  17.658  0.00  0.00    +0.000 N 
ATOM      5  H   UNL     1       3.779   5.116  17.287  0.00  0.00    +0.000 HD
BRANCH   4   6
ATOM      6  C   UNL     1       5.709   4.244  17.148  0.00  0.00    +0.000 C 
BRANCH   6   7
ATOM      7  C   UNL     1       6.552   5.439  17.461  0.00  0.00    +0.000 A 
ATOM      8  C   UNL     1       7.426   5.456  18.554  0.00  0.00    +0.000 A 
ATOM      9  C   UNL     1       8.149   6.609  18.843  0.00  0.00    +0.000 A 
ATOM     10  C   UNL     1       7.977   7.713  18.026  0.00  0.00    +0.000 A 
ATOM     11  N   UNL     1       7.142   7.737  16.964  0.00  0.00    +0.000 NA
ATOM     12  C   UNL     1       6.448   6.605  16.711  0.00  0.00    +0.000 A 
ENDBRANCH   6   7
ENDBRANCH   4   6
ENDBRANCH   1   2
BRANCH   1  14
ATOM     13  C   UNL     1       1.315   2.781  21.173  0.00  0.00    +0.000 C 
ATOM     14  C   UNL     1       1.897   2.740  19.755  0.00  0.00    +0.000 C 
ATOM     15  C   UNL     1       0.754   2.394  18.782  0.00  0.00    +0.000 C 
ENDBRANCH   1  14
BRANCH   1  16
ATOM     16  S   UNL     1       2.646   5.426  20.570  0.00  0.00    +0.000 S 
BRANCH  16  17
ATOM     17  C   UNL     1       2.254   6.825  19.590  0.00  0.00    +0.000 A 
ATOM     18  N   UNL     1       2.603   6.891  18.327  0.00  0.00    +0.000 NA
ATOM     19  N   UNL     1       2.270   8.102  17.771  0.00  0.00    +0.000 NA
ATOM     20  C   UNL     1       1.706   8.939  18.622  0.00  0.00    +0.000 A 
ATOM     21  N   UNL     1       1.381  10.207  18.247  0.00  0.00    +0.000 N 
ATOM     22  S   UNL     1       1.506   8.247  20.193  0.00  0.00    +0.000 S 
ATOM     23  H   UNL     1       1.436  10.360  17.245  0.00  0.00    +0.000 HD
BRANCH  21  24
ATOM     24  C   UNL     1       0.509  11.069  19.031  0.00  0.00    +0.000 C 
ATOM     25  C   UNL     1       0.203  12.489  18.647  0.00  0.00    +0.000 C 
ATOM     26  C   UNL     1      -0.832  11.426  18.436  0.00  0.00    +0.000 C 
ENDBRANCH  21  24
ENDBRANCH  16  17
ENDBRANCH   1  16
TORSDOF 7
ENDMDL
MODEL 2
REMARK VINA RESULT:      -7.0      1.872      4.990
REMARK  Name = 
REMARK  9 active torsions:
REMARK  status: ('A' for Active; 'I' for Inactive)
REMARK    1  A    between atoms: C_1  and  C_2
REMARK    2  A    between atoms: C_2  and  C_3
REMARK    3  A    between atoms: C_2  and  C_4
REMARK    4  A    between atoms: C_4  and  S_5
REMARK    5  A    between atoms: C_4  and  C_15
REMARK    6  A    between atoms: S_5  and  C_6
REMARK    7  A    between atoms: N_10  and  C_11
REMARK    8  A    between atoms: N_17  and  C_18
REMARK    9  A    between atoms: C_18  and  C_19
REMARK                            x       y       z     vdW  Elec       q    Type
REMARK                         _______ _______ _______ _____ _____    ______ ____
ROOT
ATOM      1  C   UNL     1       5.709   6.160  18.011  0.00  0.00    +0.000 C 
ENDROOT
BRANCH   1   2
ATOM      2  C   UNL     1       5.404   4.758  18.551  0.00  0.00    +0.000 C 
ATOM      3  O   UNL     1       6.079   4.209  19.418  0.00  0.00    +0.000 OA
ATOM      4  N   UNL     1       4.312   4.142  17.972  0.00  0.00    +0.000 N 
ATOM      5  H   UNL     1       3.971   4.483  17.082  0.00  0.00    +0.000 HD
BRANCH   4   6
ATOM      6  C   UNL     1       3.955   2.798  18.371  0.00  0.00    +0.000 C 
BRANCH   6   7
ATOM      7  C   UNL     1       2.995   2.783  19.517  0.00  0.00    +0.000 A 
ATOM      8  C   UNL     1       1.655   3.154  19.360  0.00  0.00    +0.000 A 
ATOM      9  C   UNL     1       0.810   3.181  20.466  0.00  0.00    +0.000 A 
ATOM     10  C   UNL     1       1.333   2.833  21.699  0.00  0.00    +0.000 A 
ATOM     11  N   UNL     1       2.620   2.470  21.892  0.00  0.00    +0.000 NA
ATOM     12  C   UNL     1       3.419   2.460  20.802  0.00  0.00    +0.000 A 
ENDBRANCH   6   7
ENDBRANCH   4   6
ENDBRANCH   1   2
BRANCH   1  14
ATOM     13  C   UNL     1       7.151   5.690  15.921  0.00  0.00    +0.000 C 
ATOM     14  C   UNL     1       7.117   6.222  17.359  0.00  0.00    +0.000 C 
ATOM     15  C   UNL     1       7.642   7.670  17.342  0.00  0.00    +0.000 C 
ENDBRANCH   1  14
BRANCH   1  16
ATOM     16  S   UNL     1       4.272   6.659  16.970  0.00  0.00    +0.000 S 
BRANCH  16  17
ATOM     17  C   UNL     1       3.197   7.379  18.153  0.00  0.00    +0.000 A 
ATOM     18  N   UNL     1       2.919   6.768  19.281  0.00  0.00    +0.000 NA
ATOM     19  N   UNL     1       1.999   7.467  20.023  0.00  0.00    +0.000 NA
ATOM     20  C   UNL     1       1.574   8.571  19.437  0.00  0.00    +0.000 A 
ATOM     21  N   UNL     1       0.606   9.341  20.009  0.00  0.00    +0.000 N 
ATOM     22  S   UNL     1       2.340   8.846  17.913  0.00  0.00    +0.000 S 
ATOM     23  H   UNL     1       0.406   9.089  20.971  0.00  0.00    +0.000 HD
BRANCH  21  24
ATOM     24  C   UNL     1       0.305  10.695  19.571  0.00  0.00    +0.000 C 
ATOM     25  C   UNL     1      -1.068  11.296  19.657  0.00  0.00    +0.000 C 
ATOM     26  C   UNL     1      -0.016  11.715  20.637  0.00  0.00    +0.000 C 
ENDBRANCH  21  24
ENDBRANCH  16  17
ENDBRANCH   1  16
TORSDOF 7
ENDMDL
MODEL 3
REMARK VINA RESULT:      -6.9      2.252      5.203
REMARK  Name = 
REMARK  9 active torsions:
REMARK  status: ('A' for Active; 'I' for Inactive)
REMARK    1  A    between atoms: C_1  and  C_2
REMARK    2  A    between atoms: C_2  and  C_3
REMARK    3  A    between atoms: C_2  and  C_4
REMARK    4  A    between atoms: C_4  and  S_5
REMARK    5  A    between atoms: C_4  and  C_15
REMARK    6  A    between atoms: S_5  and  C_6
REMARK    7  A    between atoms: N_10  and  C_11
REMARK    8  A    between atoms: N_17  and  C_18
REMARK    9  A    between atoms: C_18  and  C_19
REMARK                            x       y       z     vdW  Elec       q    Type
REMARK                         _______ _______ _______ _____ _____    ______ ____
ROOT
ATOM      1  C   UNL     1       5.673   6.220  18.073  0.00  0.00    +0.000 C 
ENDROOT
BRANCH   1   2
ATOM      2  C   UNL     1       5.451   4.867  18.760  0.00  0.00    +0.000 C 
ATOM      3  O   UNL     1       6.060   4.517  19.768  0.00  0.00    +0.000 OA
ATOM      4  N   UNL     1       4.518   4.055  18.147  0.00  0.00    +0.000 N 
ATOM      5  H   UNL     1       4.264   4.240  17.184  0.00  0.00    +0.000 HD
BRANCH   4   6
ATOM      6  C   UNL     1       4.257   2.736  18.681  0.00  0.00    +0.000 C 
BRANCH   6   7
ATOM      7  C   UNL     1       3.163   2.744  19.700  0.00  0.00    +0.000 A 
ATOM      8  C   UNL     1       1.842   3.060  19.359  0.00  0.00    +0.000 A 
ATOM      9  C   UNL     1       0.866   3.112  20.350  0.00  0.00    +0.000 A 
ATOM     10  C   UNL     1       1.241   2.842  21.655  0.00  0.00    +0.000 A 
ATOM     11  N   UNL     1       2.504   2.534  22.024  0.00  0.00    +0.000 NA
ATOM     12  C   UNL     1       3.432   2.499  21.042  0.00  0.00    +0.000 A 
ENDBRANCH   6   7
ENDBRANCH   4   6
ENDBRANCH   1   2
BRANCH   1  14
ATOM     13  C   UNL     1       7.323   5.762  16.140  0.00  0.00    +0.000 C 
ATOM     14  C   UNL     1       7.126   6.353  17.541  0.00  0.00    +0.000 C 
ATOM     15  C   UNL     1       7.554   7.832  17.498  0.00  0.00    +0.000 C 
ENDBRANCH   1  14
BRANCH   1  16
ATOM     16  S   UNL     1       4.304   6.436  16.858  0.00  0.00    +0.000 S 
BRANCH  16  17
ATOM     17  C   UNL     1       3.190   7.459  17.742  0.00  0.00    +0.000 A 
ATOM     18  N   UNL     1       2.734   8.576  17.226  0.00  0.00    +0.000 NA
ATOM     19  N   UNL     1       1.941   9.260  18.114  0.00  0.00    +0.000 NA
ATOM     20  C   UNL     1       1.835   8.672  19.291  0.00  0.00    +0.000 A 
ATOM     21  N   UNL     1       1.143   9.258  20.307  0.00  0.00    +0.000 N 
ATOM     22  S   UNL     1       2.692   7.174  19.360  0.00  0.00    +0.000 S 
ATOM     23  H   UNL     1       0.587  10.054  20.012  0.00  0.00    +0.000 HD
BRANCH  21  24
ATOM     24  C   UNL     1       0.747   8.547  21.513  0.00  0.00    +0.000 C 
ATOM     25  C   UNL     1       0.461   9.240  22.814  0.00  0.00    +0.000 C 
ATOM     26  C   UNL     1      -0.676   8.722  21.987  0.00  0.00    +0.000 C 
ENDBRANCH  21  24
ENDBRANCH  16  17
ENDBRANCH   1  16
TORSDOF 7
ENDMDL
MODEL 4
REMARK VINA RESULT:      -6.9      1.121      1.400
REMARK  Name = 
REMARK  9 active torsions:
REMARK  status: ('A' for Active; 'I' for Inactive)
REMARK    1  A    between atoms: C_1  and  C_2
REMARK    2  A    between atoms: C_2  and  C_3
REMARK    3  A    between atoms: C_2  and  C_4
REMARK    4  A    between atoms: C_4  and  S_5
REMARK    5  A    between atoms: C_4  and  C_15
REMARK    6  A    between atoms: S_5  and  C_6
REMARK    7  A    between atoms: N_10  and  C_11
REMARK    8  A    between atoms: N_17  and  C_18
REMARK    9  A    between atoms: C_18  and  C_19
REMARK                            x       y       z     vdW  Elec       q    Type
REMARK                         _______ _______ _______ _____ _____    ______ ____
ROOT
ATOM      1  C   UNL     1       1.727   4.926  19.227  0.00  0.00    +0.000 C 
ENDROOT
BRANCH   1   2
ATOM      2  C   UNL     1       2.983   4.531  18.441  0.00  0.00    +0.000 C 
ATOM      3  O   UNL     1       2.956   4.168  17.268  0.00  0.00    +0.000 OA
ATOM      4  N   UNL     1       4.158   4.595  19.162  0.00  0.00    +0.000 N 
ATOM      5  H   UNL     1       4.114   4.606  20.174  0.00  0.00    +0.000 HD
BRANCH   4   6
ATOM      6  C   UNL     1       5.403   4.203  18.538  0.00  0.00    +0.000 C 
BRANCH   6   7
ATOM      7  C   UNL     1       6.260   5.378  18.194  0.00  0.00    +0.000 A 
ATOM      8  C   UNL     1       7.349   5.752  18.990  0.00  0.00    +0.000 A 
ATOM      9  C   UNL     1       8.085   6.887  18.665  0.00  0.00    +0.000 A 
ATOM     10  C   UNL     1       7.711   7.615  17.548  0.00  0.00    +0.000 A 
ATOM     11  N   UNL     1       6.666   7.287  16.756  0.00  0.00    +0.000 NA
ATOM     12  C   UNL     1       5.965   6.184  17.100  0.00  0.00    +0.000 A 
ENDBRANCH   6   7
ENDBRANCH   4   6
ENDBRANCH   1   2
BRANCH   1  14
ATOM     13  C   UNL     1       1.133   2.427  18.964  0.00  0.00    +0.000 C 
ATOM     14  C   UNL     1       1.026   3.682  19.838  0.00  0.00    +0.000 C 
ATOM     15  C   UNL     1       1.620   3.351  21.220  0.00  0.00    +0.000 C 
ENDBRANCH   1  14
BRANCH   1  16
ATOM     16  S   UNL     1       2.220   6.273  20.384  0.00  0.00    +0.000 S 
BRANCH  16  17
ATOM     17  C   UNL     1       1.904   7.708  19.428  0.00  0.00    +0.000 A 
ATOM     18  N   UNL     1       2.384   7.837  18.214  0.00  0.00    +0.000 NA
ATOM     19  N   UNL     1       2.085   9.065  17.677  0.00  0.00    +0.000 NA
ATOM     20  C   UNL     1       1.415   9.853  18.498  0.00  0.00    +0.000 A 
ATOM     21  N   UNL     1       1.105  11.131  18.145  0.00  0.00    +0.000 N 
ATOM     22  S   UNL     1       1.064   9.089  20.007  0.00  0.00    +0.000 S 
ATOM     23  H   UNL     1       1.263  11.330  17.162  0.00  0.00    +0.000 HD
BRANCH  21  24
ATOM     24  C   UNL     1       0.136  11.943  18.866  0.00  0.00    +0.000 C 
ATOM     25  C   UNL     1       0.507  13.203  19.595  0.00  0.00    +0.000 C 
ATOM     26  C   UNL     1      -0.212  13.292  18.284  0.00  0.00    +0.000 C 
ENDBRANCH  21  24
ENDBRANCH  16  17
ENDBRANCH   1  16
TORSDOF 7
ENDMDL
MODEL 5
REMARK VINA RESULT:      -6.9      2.369      6.440
REMARK  Name = 
REMARK  9 active torsions:
REMARK  status: ('A' for Active; 'I' for Inactive)
REMARK    1  A    between atoms: C_1  and  C_2
REMARK    2  A    between atoms: C_2  and  C_3
REMARK    3  A    between atoms: C_2  and  C_4
REMARK    4  A    between atoms: C_4  and  S_5
REMARK    5  A    between atoms: C_4  and  C_15
REMARK    6  A    between atoms: S_5  and  C_6
REMARK    7  A    between atoms: N_10  and  C_11
REMARK    8  A    between atoms: N_17  and  C_18
REMARK    9  A    between atoms: C_18  and  C_19
REMARK                            x       y       z     vdW  Elec       q    Type
REMARK                         _______ _______ _______ _____ _____    ______ ____
ROOT
ATOM      1  C   UNL     1       6.790   6.128  16.833  0.00  0.00    +0.000 C 
ENDROOT
BRANCH   1   2
ATOM      2  C   UNL     1       5.432   6.616  16.315  0.00  0.00    +0.000 C 
ATOM      3  O   UNL     1       5.144   6.659  15.121  0.00  0.00    +0.000 OA
ATOM      4  N   UNL     1       4.553   7.025  17.297  0.00  0.00    +0.000 N 
ATOM      5  H   UNL     1       4.915   7.254  18.215  0.00  0.00    +0.000 HD
BRANCH   4   6
ATOM      6  C   UNL     1       3.256   7.547  16.925  0.00  0.00    +0.000 C 
BRANCH   6   7
ATOM      7  C   UNL     1       2.468   8.006  18.109  0.00  0.00    +0.000 A 
ATOM      8  C   UNL     1       1.722   9.191  18.081  0.00  0.00    +0.000 A 
ATOM      9  C   UNL     1       1.049   9.611  19.225  0.00  0.00    +0.000 A 
ATOM     10  C   UNL     1       1.142   8.831  20.365  0.00  0.00    +0.000 A 
ATOM     11  N   UNL     1       1.852   7.683  20.431  0.00  0.00    +0.000 NA
ATOM     12  C   UNL     1       2.501   7.304  19.308  0.00  0.00    +0.000 A 
ENDBRANCH   6   7
ENDBRANCH   4   6
ENDBRANCH   1   2
BRANCH   1  14
ATOM     13  C   UNL     1       8.000   5.975  19.109  0.00  0.00    +0.000 C 
ATOM     14  C   UNL     1       7.188   6.852  18.148  0.00  0.00    +0.000 C 
ATOM     15  C   UNL     1       8.016   8.114  17.842  0.00  0.00    +0.000 C 
ENDBRANCH   1  14
BRANCH   1  16
ATOM     16  S   UNL     1       6.722   4.287  16.868  0.00  0.00    +0.000 S 
BRANCH  16  17
ATOM     17  C   UNL     1       5.113   3.993  17.498  0.00  0.00    +0.000 A 
ATOM     18  N   UNL     1       4.101   3.754  16.698  0.00  0.00    +0.000 NA
ATOM     19  N   UNL     1       2.923   3.632  17.392  0.00  0.00    +0.000 NA
ATOM     20  C   UNL     1       3.053   3.811  18.693  0.00  0.00    +0.000 A 
ATOM     21  N   UNL     1       1.967   3.795  19.515  0.00  0.00    +0.000 N 
ATOM     22  S   UNL     1       4.691   4.102  19.158  0.00  0.00    +0.000 S 
ATOM     23  H   UNL     1       1.124   3.453  19.066  0.00  0.00    +0.000 HD
BRANCH  21  24
ATOM     24  C   UNL     1       2.068   3.696  20.963  0.00  0.00    +0.000 C 
ATOM     25  C   UNL     1       1.220   2.762  21.779  0.00  0.00    +0.000 C 
ATOM     26  C   UNL     1       2.660   2.428  21.533  0.00  0.00    +0.000 C 
ENDBRANCH  21  24
ENDBRANCH  16  17
ENDBRANCH   1  16
TORSDOF 7
ENDMDL
MODEL 6
REMARK VINA RESULT:      -6.8      2.773      6.600
REMARK  Name = 
REMARK  9 active torsions:
REMARK  status: ('A' for Active; 'I' for Inactive)
REMARK    1  A    between atoms: C_1  and  C_2
REMARK    2  A    between atoms: C_2  and  C_3
REMARK    3  A    between atoms: C_2  and  C_4
REMARK    4  A    between atoms: C_4  and  S_5
REMARK    5  A    between atoms: C_4  and  C_15
REMARK    6  A    between atoms: S_5  and  C_6
REMARK    7  A    between atoms: N_10  and  C_11
REMARK    8  A    between atoms: N_17  and  C_18
REMARK    9  A    between atoms: C_18  and  C_19
REMARK                            x       y       z     vdW  Elec       q    Type
REMARK                         _______ _______ _______ _____ _____    ______ ____
ROOT
ATOM      1  C   UNL     1       3.633   4.104  19.398  0.00  0.00    +0.000 C 
ENDROOT
BRANCH   1   2
ATOM      2  C   UNL     1       2.648   4.931  20.232  0.00  0.00    +0.000 C 
ATOM      3  O   UNL     1       1.852   4.432  21.024  0.00  0.00    +0.000 OA
ATOM      4  N   UNL     1       2.707   6.293  20.013  0.00  0.00    +0.000 N 
ATOM      5  H   UNL     1       3.146   6.636  19.167  0.00  0.00    +0.000 HD
BRANCH   4   6
ATOM      6  C   UNL     1       1.794   7.171  20.712  0.00  0.00    +0.000 C 
BRANCH   6   7
ATOM      7  C   UNL     1       1.493   8.412  19.935  0.00  0.00    +0.000 A 
ATOM      8  C   UNL     1       1.891   8.558  18.600  0.00  0.00    +0.000 A 
ATOM      9  C   UNL     1       1.642   9.753  17.932  0.00  0.00    +0.000 A 
ATOM     10  C   UNL     1       0.998  10.768  18.619  0.00  0.00    +0.000 A 
ATOM     11  N   UNL     1       0.601  10.666  19.907  0.00  0.00    +0.000 NA
ATOM     12  C   UNL     1       0.862   9.497  20.532  0.00  0.00    +0.000 A 
ENDBRANCH   6   7
ENDBRANCH   4   6
ENDBRANCH   1   2
BRANCH   1  14
ATOM     13  C   UNL     1       2.717   2.115  18.030  0.00  0.00    +0.000 C 
ATOM     14  C   UNL     1       2.987   3.624  18.070  0.00  0.00    +0.000 C 
ATOM     15  C   UNL     1       1.652   4.352  17.823  0.00  0.00    +0.000 C 
ENDBRANCH   1  14
BRANCH   1  16
ATOM     16  S   UNL     1       5.188   5.086  19.276  0.00  0.00    +0.000 S 
BRANCH  16  17
ATOM     17  C   UNL     1       5.350   5.300  17.544  0.00  0.00    +0.000 A 
ATOM     18  N   UNL     1       5.064   6.444  16.970  0.00  0.00    +0.000 NA
ATOM     19  N   UNL     1       5.183   6.371  15.604  0.00  0.00    +0.000 NA
ATOM     20  C   UNL     1       5.525   5.173  15.166  0.00  0.00    +0.000 A 
ATOM     21  N   UNL     1       5.614   4.914  13.831  0.00  0.00    +0.000 N 
ATOM     22  S   UNL     1       5.772   4.046  16.451  0.00  0.00    +0.000 S 
ATOM     23  H   UNL     1       5.584   5.748  13.254  0.00  0.00    +0.000 HD
BRANCH  21  24
ATOM     24  C   UNL     1       6.256   3.724  13.294  0.00  0.00    +0.000 C 
ATOM     25  C   UNL     1       5.795   3.044  12.036  0.00  0.00    +0.000 C 
ATOM     26  C   UNL     1       7.041   3.876  12.013  0.00  0.00    +0.000 C 
ENDBRANCH  21  24
ENDBRANCH  16  17
ENDBRANCH   1  16
TORSDOF 7
ENDMDL
MODEL 7
REMARK VINA RESULT:      -6.8      1.435      2.172
REMARK  Name = 
REMARK  9 active torsions:
REMARK  status: ('A' for Active; 'I' for Inactive)
REMARK    1  A    between atoms: C_1  and  C_2
REMARK    2  A    between atoms: C_2  and  C_3
REMARK    3  A    between atoms: C_2  and  C_4
REMARK    4  A    between atoms: C_4  and  S_5
REMARK    5  A    between atoms: C_4  and  C_15
REMARK    6  A    between atoms: S_5  and  C_6
REMARK    7  A    between atoms: N_10  and  C_11
REMARK    8  A    between atoms: N_17  and  C_18
REMARK    9  A    between atoms: C_18  and  C_19
REMARK                            x       y       z     vdW  Elec       q    Type
REMARK                         _______ _______ _______ _____ _____    ______ ____
ROOT
ATOM      1  C   UNL     1       2.008   4.845  19.457  0.00  0.00    +0.000 C 
ENDROOT
BRANCH   1   2
ATOM      2  C   UNL     1       3.442   4.323  19.306  0.00  0.00    +0.000 C 
ATOM      3  O   UNL     1       3.898   3.403  19.980  0.00  0.00    +0.000 OA
ATOM      4  N   UNL     1       4.198   4.983  18.358  0.00  0.00    +0.000 N 
ATOM      5  H   UNL     1       3.902   5.899  18.044  0.00  0.00    +0.000 HD
BRANCH   4   6
ATOM      6  C   UNL     1       5.581   4.607  18.158  0.00  0.00    +0.000 C 
BRANCH   6   7
ATOM      7  C   UNL     1       5.990   4.692  16.722  0.00  0.00    +0.000 A 
ATOM      8  C   UNL     1       5.263   4.051  15.711  0.00  0.00    +0.000 A 
ATOM      9  C   UNL     1       5.712   4.108  14.395  0.00  0.00    +0.000 A 
ATOM     10  C   UNL     1       6.876   4.808  14.129  0.00  0.00    +0.000 A 
ATOM     11  N   UNL     1       7.605   5.438  15.076  0.00  0.00    +0.000 NA
ATOM     12  C   UNL     1       7.149   5.359  16.346  0.00  0.00    +0.000 A 
ENDBRANCH   6   7
ENDBRANCH   4   6
ENDBRANCH   1   2
BRANCH   1  14
ATOM     13  C   UNL     1       1.101   2.557  18.675  0.00  0.00    +0.000 C 
ATOM     14  C   UNL     1       1.007   3.685  19.710  0.00  0.00    +0.000 C 
ATOM     15  C   UNL     1       1.231   3.070  21.104  0.00  0.00    +0.000 C 
ENDBRANCH   1  14
BRANCH   1  16
ATOM     16  S   UNL     1       2.061   6.204  20.701  0.00  0.00    +0.000 S 
BRANCH  16  17
ATOM     17  C   UNL     1       1.813   7.623  19.703  0.00  0.00    +0.000 A 
ATOM     18  N   UNL     1       2.298   7.691  18.485  0.00  0.00    +0.000 NA
ATOM     19  N   UNL     1       2.058   8.915  17.911  0.00  0.00    +0.000 NA
ATOM     20  C   UNL     1       1.428   9.759  18.708  0.00  0.00    +0.000 A 
ATOM     21  N   UNL     1       1.179  11.040  18.316  0.00  0.00    +0.000 N 
ATOM     22  S   UNL     1       1.042   9.059  20.239  0.00  0.00    +0.000 S 
ATOM     23  H   UNL     1       1.345  11.200  17.327  0.00  0.00    +0.000 HD
BRANCH  21  24
ATOM     24  C   UNL     1       0.251  11.918  19.012  0.00  0.00    +0.000 C 
ATOM     25  C   UNL     1       0.483  13.394  19.166  0.00  0.00    +0.000 C 
ATOM     26  C   UNL     1      -0.531  12.904  18.178  0.00  0.00    +0.000 C 
ENDBRANCH  21  24
ENDBRANCH  16  17
ENDBRANCH   1  16
TORSDOF 7
ENDMDL
MODEL 8
REMARK VINA RESULT:      -6.7      1.029      1.500
REMARK  Name = 
REMARK  9 active torsions:
REMARK  status: ('A' for Active; 'I' for Inactive)
REMARK    1  A    between atoms: C_1  and  C_2
REMARK    2  A    between atoms: C_2  and  C_3
REMARK    3  A    between atoms: C_2  and  C_4
REMARK    4  A    between atoms: C_4  and  S_5
REMARK    5  A    between atoms: C_4  and  C_15
REMARK    6  A    between atoms: S_5  and  C_6
REMARK    7  A    between atoms: N_10  and  C_11
REMARK    8  A    between atoms: N_17  and  C_18
REMARK    9  A    between atoms: C_18  and  C_19
REMARK                            x       y       z     vdW  Elec       q    Type
REMARK                         _______ _______ _______ _____ _____    ______ ____
ROOT
ATOM      1  C   UNL     1       1.683   4.654  19.387  0.00  0.00    +0.000 C 
ENDROOT
BRANCH   1   2
ATOM      2  C   UNL     1       3.013   4.179  18.792  0.00  0.00    +0.000 C 
ATOM      3  O   UNL     1       3.879   3.607  19.450  0.00  0.00    +0.000 OA
ATOM      4  N   UNL     1       3.178   4.460  17.450  0.00  0.00    +0.000 N 
ATOM      5  H   UNL     1       2.599   5.173  17.024  0.00  0.00    +0.000 HD
BRANCH   4   6
ATOM      6  C   UNL     1       4.414   4.099  16.790  0.00  0.00    +0.000 C 
BRANCH   6   7
ATOM      7  C   UNL     1       5.529   5.039  17.120  0.00  0.00    +0.000 A 
ATOM      8  C   UNL     1       5.404   6.421  16.939  0.00  0.00    +0.000 A 
ATOM      9  C   UNL     1       6.487   7.254  17.204  0.00  0.00    +0.000 A 
ATOM     10  C   UNL     1       7.665   6.677  17.646  0.00  0.00    +0.000 A 
ATOM     11  N   UNL     1       7.826   5.349  17.832  0.00  0.00    +0.000 NA
ATOM     12  C   UNL     1       6.759   4.564  17.559  0.00  0.00    +0.000 A 
ENDBRANCH   6   7
ENDBRANCH   4   6
ENDBRANCH   1   2
BRANCH   1  14
ATOM     13  C   UNL     1       0.798   2.266  18.958  0.00  0.00    +0.000 C 
ATOM     14  C   UNL     1       0.842   3.461  19.918  0.00  0.00    +0.000 C 
ATOM     15  C   UNL     1       1.396   2.966  21.268  0.00  0.00    +0.000 C 
ENDBRANCH   1  14
BRANCH   1  16
ATOM     16  S   UNL     1       2.079   6.006  20.576  0.00  0.00    +0.000 S 
BRANCH  16  17
ATOM     17  C   UNL     1       1.838   7.437  19.594  0.00  0.00    +0.000 A 
ATOM     18  N   UNL     1       2.292   7.504  18.365  0.00  0.00    +0.000 NA
ATOM     19  N   UNL     1       2.065   8.738  17.806  0.00  0.00    +0.000 NA
ATOM     20  C   UNL     1       1.475   9.589  18.625  0.00  0.00    +0.000 A 
ATOM     21  N   UNL     1       1.245  10.878  18.249  0.00  0.00    +0.000 N 
ATOM     22  S   UNL     1       1.113   8.886  20.160  0.00  0.00    +0.000 S 
ATOM     23  H   UNL     1       1.389  11.042  17.257  0.00  0.00    +0.000 HD
BRANCH  21  24
ATOM     24  C   UNL     1       0.355  11.771  18.975  0.00  0.00    +0.000 C 
ATOM     25  C   UNL     1       0.053  13.171  18.521  0.00  0.00    +0.000 C 
ATOM     26  C   UNL     1      -0.975  12.097  18.338  0.00  0.00    +0.000 C 
ENDBRANCH  21  24
ENDBRANCH  16  17
ENDBRANCH   1  16
TORSDOF 7
ENDMDL
MODEL 9
REMARK VINA RESULT:      -6.7      2.806      6.845
REMARK  Name = 
REMARK  9 active torsions:
REMARK  status: ('A' for Active; 'I' for Inactive)
REMARK    1  A    between atoms: C_1  and  C_2
REMARK    2  A    between atoms: C_2  and  C_3
REMARK    3  A    between atoms: C_2  and  C_4
REMARK    4  A    between atoms: C_4  and  S_5
REMARK    5  A    between atoms: C_4  and  C_15
REMARK    6  A    between atoms: S_5  and  C_6
REMARK    7  A    between atoms: N_10  and  C_11
REMARK    8  A    between atoms: N_17  and  C_18
REMARK    9  A    between atoms: C_18  and  C_19
REMARK                            x       y       z     vdW  Elec       q    Type
REMARK                         _______ _______ _______ _____ _____    ______ ____
ROOT
ATOM      1  C   UNL     1       3.756   4.242  19.466  0.00  0.00    +0.000 C 
ENDROOT
BRANCH   1   2
ATOM      2  C   UNL     1       2.580   4.740  20.315  0.00  0.00    +0.000 C 
ATOM      3  O   UNL     1       1.777   3.987  20.860  0.00  0.00    +0.000 OA
ATOM      4  N   UNL     1       2.478   6.114  20.410  0.00  0.00    +0.000 N 
ATOM      5  H   UNL     1       2.957   6.690  19.728  0.00  0.00    +0.000 HD
BRANCH   4   6
ATOM      6  C   UNL     1       1.381   6.700  21.148  0.00  0.00    +0.000 C 
BRANCH   6   7
ATOM      7  C   UNL     1       1.186   8.146  20.821  0.00  0.00    +0.000 A 
ATOM      8  C   UNL     1       0.656   9.046  21.754  0.00  0.00    +0.000 A 
ATOM      9  C   UNL     1       0.437  10.371  21.388  0.00  0.00    +0.000 A 
ATOM     10  C   UNL     1       0.757  10.757  20.098  0.00  0.00    +0.000 A 
ATOM     11  N   UNL     1       1.268   9.919  19.170  0.00  0.00    +0.000 NA
ATOM     12  C   UNL     1       1.464   8.637  19.551  0.00  0.00    +0.000 A 
ENDBRANCH   6   7
ENDBRANCH   4   6
ENDBRANCH   1   2
BRANCH   1  14
ATOM     13  C   UNL     1       3.003   2.044  18.341  0.00  0.00    +0.000 C 
ATOM     14  C   UNL     1       3.263   3.545  18.169  0.00  0.00    +0.000 C 
ATOM     15  C   UNL     1       1.962   4.198  17.665  0.00  0.00    +0.000 C 
ENDBRANCH   1  14
BRANCH   1  16
ATOM     16  S   UNL     1       4.919   5.659  19.277  0.00  0.00    +0.000 S 
BRANCH  16  17
ATOM     17  C   UNL     1       5.904   5.144  17.922  0.00  0.00    +0.000 A 
ATOM     18  N   UNL     1       7.084   4.600  18.107  0.00  0.00    +0.000 NA
ATOM     19  N   UNL     1       7.718   4.346  16.915  0.00  0.00    +0.000 NA
ATOM     20  C   UNL     1       7.027   4.726  15.856  0.00  0.00    +0.000 A 
ATOM     21  N   UNL     1       7.547   4.610  14.602  0.00  0.00    +0.000 N 
ATOM     22  S   UNL     1       5.492   5.397  16.276  0.00  0.00    +0.000 S 
ATOM     23  H   UNL     1       8.391   4.049  14.564  0.00  0.00    +0.000 HD
BRANCH  21  24
ATOM     24  C   UNL     1       6.744   4.735  13.395  0.00  0.00    +0.000 C 
ATOM     25  C   UNL     1       7.177   4.185  12.066  0.00  0.00    +0.000 C 
ATOM     26  C   UNL     1       6.113   3.477  12.847  0.00  0.00    +0.000 C 
ENDBRANCH  21  24
ENDBRANCH  16  17
ENDBRANCH   1  16
TORSDOF 7
ENDMDL
