MODEL 1
REMARK VINA RESULT:      -7.9      0.000      0.000
REMARK  Name = 
REMARK  5 active torsions:
REMARK  status: ('A' for Active; 'I' for Inactive)
REMARK    1  A    between atoms: C_1  and  C_2
REMARK    2  A    between atoms: C_2  and  C_3
REMARK    3  A    between atoms: C_2  and  N_4
REMARK    4  A    between atoms: C_2  and  C_22
REMARK    5  A    between atoms: C_8  and  C_9
REMARK                            x       y       z     vdW  Elec       q    Type
REMARK                         _______ _______ _______ _____ _____    ______ ____
ROOT
ATOM      1  N   UNL     1       2.654   5.608  20.259  0.00  0.00    +0.000 N 
ATOM      2  C   UNL     1       2.193   6.887  20.027  0.00  0.00    +0.000 A 
ATOM      3  N   UNL     1       1.472   7.449  21.004  0.00  0.00    +0.000 NA
ATOM      4  C   UNL     1       0.940   8.667  20.754  0.00  0.00    +0.000 A 
ATOM      5  C   UNL     1       1.153   9.357  19.583  0.00  0.00    +0.000 A 
ATOM      6  C   UNL     1       1.985   8.754  18.685  0.00  0.00    +0.000 A 
ATOM      7  N   UNL     1       2.477   7.515  18.878  0.00  0.00    +0.000 NA
ATOM      8  H   UNL     1       3.375   5.682  20.969  0.00  0.00    +0.000 HD
ENDROOT
BRANCH   5   9
ATOM      9  C   UNL     1       0.517  10.635  19.270  0.00  0.00    +0.000 C 
ATOM     10  O   UNL     1       0.926  11.661  19.795  0.00  0.00    +0.000 OA
ATOM     11  N   UNL     1      -0.510  10.579  18.376  0.00  0.00    +0.000 N 
ATOM     12  C   UNL     1      -1.346  11.631  17.826  0.00  0.00    +0.000 C 
ATOM     13  C   UNL     1      -2.182  10.447  17.240  0.00  0.00    +0.000 C 
ATOM     14  C   UNL     1      -2.731  10.622  15.826  0.00  0.00    +0.000 C 
ATOM     15  C   UNL     1      -3.997  11.469  15.890  0.00  0.00    +0.000 C 
ATOM     16  O   UNL     1      -4.964  10.858  16.748  0.00  0.00    +0.000 OA
ATOM     17  C   UNL     1      -4.501  10.774  18.096  0.00  0.00    +0.000 C 
ATOM     18  C   UNL     1      -3.271   9.882  18.170  0.00  0.00    +0.000 C 
ATOM     19  C   UNL     1      -0.864   9.636  17.325  0.00  0.00    +0.000 C 
ENDBRANCH   5   9
BRANCH   1  21
ATOM     20  C   UNL     1       3.045   3.245  19.647  0.00  0.00    +0.000 C 
ATOM     21  C   UNL     1       3.001   4.703  19.145  0.00  0.00    +0.000 C 
ATOM     22  C   UNL     1       2.030   4.853  17.954  0.00  0.00    +0.000 C 
BRANCH  21  23
ATOM     23  C   UNL     1       4.423   5.046  18.644  0.00  0.00    +0.000 A 
ATOM     24  C   UNL     1       4.705   5.209  17.288  0.00  0.00    +0.000 A 
ATOM     25  N   UNL     1       5.946   5.496  16.817  0.00  0.00    +0.000 NA
ATOM     26  C   UNL     1       6.904   5.633  17.753  0.00  0.00    +0.000 A 
ATOM     27  C   UNL     1       6.642   5.509  19.103  0.00  0.00    +0.000 A 
ATOM     28  N   UNL     1       5.408   5.219  19.572  0.00  0.00    +0.000 NA
ENDBRANCH  21  23
ENDBRANCH   1  21
TORSDOF 3
ENDMDL
MODEL 2
REMARK VINA RESULT:      -7.7      2.391      3.947
REMARK  Name = 
REMARK  5 active torsions:
REMARK  status: ('A' for Active; 'I' for Inactive)
REMARK    1  A    between atoms: C_1  and  C_2
REMARK    2  A    between atoms: C_2  and  C_3
REMARK    3  A    between atoms: C_2  and  N_4
REMARK    4  A    between atoms: C_2  and  C_22
REMARK    5  A    between atoms: C_8  and  C_9
REMARK                            x       y       z     vdW  Elec       q    Type
REMARK                         _______ _______ _______ _____ _____    ______ ____
ROOT
ATOM      1  N   UNL     1       2.883   5.930  20.147  0.00  0.00    +0.000 N 
ATOM      2  C   UNL     1       2.321   7.139  19.791  0.00  0.00    +0.000 A 
ATOM      3  N   UNL     1       1.601   7.763  20.730  0.00  0.00    +0.000 NA
ATOM      4  C   UNL     1       0.974   8.905  20.367  0.00  0.00    +0.000 A 
ATOM      5  C   UNL     1       1.089   9.463  19.115  0.00  0.00    +0.000 A 
ATOM      6  C   UNL     1       1.925   8.815  18.253  0.00  0.00    +0.000 A 
ATOM      7  N   UNL     1       2.513   7.644  18.564  0.00  0.00    +0.000 NA
ATOM      8  H   UNL     1       3.624   6.137  20.807  0.00  0.00    +0.000 HD
ENDROOT
BRANCH   5   9
ATOM      9  C   UNL     1       0.350  10.650  18.687  0.00  0.00    +0.000 C 
ATOM     10  O   UNL     1      -0.645  10.526  17.986  0.00  0.00    +0.000 OA
ATOM     11  N   UNL     1       0.842  11.841  19.129  0.00  0.00    +0.000 N 
ATOM     12  C   UNL     1       0.367  13.198  18.923  0.00  0.00    +0.000 C 
ATOM     13  C   UNL     1       1.720  13.608  19.590  0.00  0.00    +0.000 C 
ATOM     14  C   UNL     1       1.685  14.789  20.556  0.00  0.00    +0.000 C 
ATOM     15  C   UNL     1       1.703  16.084  19.752  0.00  0.00    +0.000 C 
ATOM     16  O   UNL     1       2.861  16.136  18.915  0.00  0.00    +0.000 OA
ATOM     17  C   UNL     1       2.861  15.091  17.942  0.00  0.00    +0.000 C 
ATOM     18  C   UNL     1       2.918  13.736  18.631  0.00  0.00    +0.000 C 
ATOM     19  C   UNL     1       1.665  12.216  20.270  0.00  0.00    +0.000 C 
ENDBRANCH   5   9
BRANCH   1  21
ATOM     20  C   UNL     1       3.290   3.522  19.769  0.00  0.00    +0.000 C 
ATOM     21  C   UNL     1       3.248   4.925  19.129  0.00  0.00    +0.000 C 
ATOM     22  C   UNL     1       2.294   4.956  17.916  0.00  0.00    +0.000 C 
BRANCH  21  23
ATOM     23  C   UNL     1       4.676   5.225  18.618  0.00  0.00    +0.000 A 
ATOM     24  C   UNL     1       4.948   5.406  17.262  0.00  0.00    +0.000 A 
ATOM     25  N   UNL     1       6.193   5.656  16.781  0.00  0.00    +0.000 NA
ATOM     26  C   UNL     1       7.167   5.738  17.708  0.00  0.00    +0.000 A 
ATOM     27  C   UNL     1       6.917   5.595  19.059  0.00  0.00    +0.000 A 
ATOM     28  N   UNL     1       5.678   5.342  19.537  0.00  0.00    +0.000 NA
ENDBRANCH  21  23
ENDBRANCH   1  21
TORSDOF 3
ENDMDL
MODEL 3
REMARK VINA RESULT:      -7.5      3.054      4.790
REMARK  Name = 
REMARK  5 active torsions:
REMARK  status: ('A' for Active; 'I' for Inactive)
REMARK    1  A    between atoms: C_1  and  C_2
REMARK    2  A    between atoms: C_2  and  C_3
REMARK    3  A    between atoms: C_2  and  N_4
REMARK    4  A    between atoms: C_2  and  C_22
REMARK    5  A    between atoms: C_8  and  C_9
REMARK                            x       y       z     vdW  Elec       q    Type
REMARK                         _______ _______ _______ _____ _____    ______ ____
ROOT
ATOM      1  N   UNL     1       2.498   6.754  19.891  0.00  0.00    +0.000 N 
ATOM      2  C   UNL     1       2.022   8.019  19.615  0.00  0.00    +0.000 A 
ATOM      3  N   UNL     1       1.252   8.585  20.552  0.00  0.00    +0.000 NA
ATOM      4  C   UNL     1       0.708   9.788  20.257  0.00  0.00    +0.000 A 
ATOM      5  C   UNL     1       0.953  10.458  19.081  0.00  0.00    +0.000 A 
ATOM      6  C   UNL     1       1.831   9.855  18.228  0.00  0.00    +0.000 A 
ATOM      7  N   UNL     1       2.338   8.630  18.465  0.00  0.00    +0.000 NA
ATOM      8  H   UNL     1       3.189   6.856  20.627  0.00  0.00    +0.000 HD
ENDROOT
BRANCH   5   9
ATOM      9  C   UNL     1       0.306  11.718  18.718  0.00  0.00    +0.000 C 
ATOM     10  O   UNL     1      -0.796  11.702  18.185  0.00  0.00    +0.000 OA
ATOM     11  N   UNL     1       1.003  12.848  19.024  0.00  0.00    +0.000 N 
ATOM     12  C   UNL     1       0.670  14.248  18.830  0.00  0.00    +0.000 C 
ATOM     13  C   UNL     1       2.151  14.500  19.262  0.00  0.00    +0.000 C 
ATOM     14  C   UNL     1       2.413  15.701  20.167  0.00  0.00    +0.000 C 
ATOM     15  C   UNL     1       2.460  16.962  19.311  0.00  0.00    +0.000 C 
ATOM     16  O   UNL     1       3.469  16.843  18.304  0.00  0.00    +0.000 OA
ATOM     17  C   UNL     1       3.188  15.782  17.392  0.00  0.00    +0.000 C 
ATOM     18  C   UNL     1       3.189  14.450  18.126  0.00  0.00    +0.000 C 
ATOM     19  C   UNL     1       2.035  13.145  20.006  0.00  0.00    +0.000 C 
ENDBRANCH   5   9
BRANCH   1  21
ATOM     20  C   UNL     1       1.692   5.516  17.909  0.00  0.00    +0.000 C 
ATOM     21  C   UNL     1       2.905   5.835  18.809  0.00  0.00    +0.000 C 
ATOM     22  C   UNL     1       4.079   6.398  17.982  0.00  0.00    +0.000 C 
BRANCH  21  23
ATOM     23  C   UNL     1       3.362   4.496  19.433  0.00  0.00    +0.000 A 
ATOM     24  C   UNL     1       4.599   3.929  19.129  0.00  0.00    +0.000 A 
ATOM     25  N   UNL     1       5.022   2.748  19.649  0.00  0.00    +0.000 NA
ATOM     26  C   UNL     1       4.171   2.154  20.506  0.00  0.00    +0.000 A 
ATOM     27  C   UNL     1       2.955   2.712  20.849  0.00  0.00    +0.000 A 
ATOM     28  N   UNL     1       2.531   3.885  20.327  0.00  0.00    +0.000 NA
ENDBRANCH  21  23
ENDBRANCH   1  21
TORSDOF 3
ENDMDL
MODEL 4
REMARK VINA RESULT:      -7.4      2.419      2.937
REMARK  Name = 
REMARK  5 active torsions:
REMARK  status: ('A' for Active; 'I' for Inactive)
REMARK    1  A    between atoms: C_1  and  C_2
REMARK    2  A    between atoms: C_2  and  C_3
REMARK    3  A    between atoms: C_2  and  N_4
REMARK    4  A    between atoms: C_2  and  C_22
REMARK    5  A    between atoms: C_8  and  C_9
REMARK                            x       y       z     vdW  Elec       q    Type
REMARK                         _______ _______ _______ _____ _____    ______ ____
ROOT
ATOM      1  N   UNL     1       2.616   5.016  19.910  0.00  0.00    +0.000 N 
ATOM      2  C   UNL     1       2.431   6.335  19.551  0.00  0.00    +0.000 A 
ATOM      3  N   UNL     1       1.849   7.127  20.459  0.00  0.00    +0.000 NA
ATOM      4  C   UNL     1       1.584   8.399  20.086  0.00  0.00    +0.000 A 
ATOM      5  C   UNL     1       1.929   8.914  18.858  0.00  0.00    +0.000 A 
ATOM      6  C   UNL     1       2.611   8.067  18.034  0.00  0.00    +0.000 A 
ATOM      7  N   UNL     1       2.834   6.777  18.351  0.00  0.00    +0.000 NA
ATOM      8  H   UNL     1       3.340   5.006  20.620  0.00  0.00    +0.000 HD
ENDROOT
BRANCH   5   9
ATOM      9  C   UNL     1       1.574  10.261  18.416  0.00  0.00    +0.000 C 
ATOM     10  O   UNL     1       2.212  10.793  17.517  0.00  0.00    +0.000 OA
ATOM     11  N   UNL     1       0.515  10.831  19.056  0.00  0.00    +0.000 N 
ATOM     12  C   UNL     1      -0.119  12.125  18.872  0.00  0.00    +0.000 C 
ATOM     13  C   UNL     1      -0.898  11.755  20.176  0.00  0.00    +0.000 C 
ATOM     14  C   UNL     1      -2.375  12.136  20.232  0.00  0.00    +0.000 C 
ATOM     15  C   UNL     1      -2.489  13.612  20.595  0.00  0.00    +0.000 C 
ATOM     16  O   UNL     1      -1.842  13.870  21.844  0.00  0.00    +0.000 OA
ATOM     17  C   UNL     1      -0.440  13.607  21.781  0.00  0.00    +0.000 C 
ATOM     18  C   UNL     1      -0.198  12.134  21.494  0.00  0.00    +0.000 C 
ATOM     19  C   UNL     1      -0.626  10.282  19.774  0.00  0.00    +0.000 C 
ENDBRANCH   5   9
BRANCH   1  21
ATOM     20  C   UNL     1       2.746   2.571  19.571  0.00  0.00    +0.000 C 
ATOM     21  C   UNL     1       2.759   3.957  18.892  0.00  0.00    +0.000 C 
ATOM     22  C   UNL     1       1.672   4.052  17.800  0.00  0.00    +0.000 C 
BRANCH  21  23
ATOM     23  C   UNL     1       4.136   4.104  18.204  0.00  0.00    +0.000 A 
ATOM     24  C   UNL     1       5.309   4.276  18.939  0.00  0.00    +0.000 A 
ATOM     25  N   UNL     1       6.530   4.423  18.364  0.00  0.00    +0.000 NA
ATOM     26  C   UNL     1       6.547   4.374  17.019  0.00  0.00    +0.000 A 
ATOM     27  C   UNL     1       5.404   4.171  16.271  0.00  0.00    +0.000 A 
ATOM     28  N   UNL     1       4.187   4.030  16.843  0.00  0.00    +0.000 NA
ENDBRANCH  21  23
ENDBRANCH   1  21
TORSDOF 3
ENDMDL
MODEL 5
REMARK VINA RESULT:      -7.4      2.629      4.395
REMARK  Name = 
REMARK  5 active torsions:
REMARK  status: ('A' for Active; 'I' for Inactive)
REMARK    1  A    between atoms: C_1  and  C_2
REMARK    2  A    between atoms: C_2  and  C_3
REMARK    3  A    between atoms: C_2  and  N_4
REMARK    4  A    between atoms: C_2  and  C_22
REMARK    5  A    between atoms: C_8  and  C_9
REMARK                            x       y       z     vdW  Elec       q    Type
REMARK                         _______ _______ _______ _____ _____    ______ ____
ROOT
ATOM      1  N   UNL     1       5.075   4.489  16.546  0.00  0.00    +0.000 N 
ATOM      2  C   UNL     1       4.271   5.099  17.487  0.00  0.00    +0.000 A 
ATOM      3  N   UNL     1       2.958   4.857  17.398  0.00  0.00    +0.000 NA
ATOM      4  C   UNL     1       2.151   5.517  18.259  0.00  0.00    +0.000 A 
ATOM      5  C   UNL     1       2.621   6.365  19.234  0.00  0.00    +0.000 A 
ATOM      6  C   UNL     1       3.979   6.473  19.319  0.00  0.00    +0.000 A 
ATOM      7  N   UNL     1       4.805   5.879  18.437  0.00  0.00    +0.000 NA
ATOM      8  H   UNL     1       5.079   3.499  16.764  0.00  0.00    +0.000 HD
ENDROOT
BRANCH   5   9
ATOM      9  C   UNL     1       1.754   7.146  20.115  0.00  0.00    +0.000 C 
ATOM     10  O   UNL     1       1.397   6.677  21.187  0.00  0.00    +0.000 OA
ATOM     11  N   UNL     1       1.411   8.383  19.658  0.00  0.00    +0.000 N 
ATOM     12  C   UNL     1       0.595   9.423  20.260  0.00  0.00    +0.000 C 
ATOM     13  C   UNL     1       0.715  10.111  18.861  0.00  0.00    +0.000 C 
ATOM     14  C   UNL     1       0.898  11.626  18.850  0.00  0.00    +0.000 C 
ATOM     15  C   UNL     1      -0.462  12.288  19.046  0.00  0.00    +0.000 C 
ATOM     16  O   UNL     1      -1.372  11.869  18.026  0.00  0.00    +0.000 OA
ATOM     17  C   UNL     1      -1.627  10.466  18.084  0.00  0.00    +0.000 C 
ATOM     18  C   UNL     1      -0.344   9.692  17.825  0.00  0.00    +0.000 C 
ATOM     19  C   UNL     1       2.029   9.302  18.713  0.00  0.00    +0.000 C 
ENDBRANCH   5   9
BRANCH   1  21
ATOM     20  C   UNL     1       6.400   6.569  16.369  0.00  0.00    +0.000 C 
ATOM     21  C   UNL     1       6.405   5.034  16.206  0.00  0.00    +0.000 C 
ATOM     22  C   UNL     1       7.527   4.389  17.045  0.00  0.00    +0.000 C 
BRANCH  21  23
ATOM     23  C   UNL     1       6.699   4.744  14.716  0.00  0.00    +0.000 A 
ATOM     24  C   UNL     1       5.962   3.810  13.989  0.00  0.00    +0.000 A 
ATOM     25  N   UNL     1       6.205   3.522  12.685  0.00  0.00    +0.000 NA
ATOM     26  C   UNL     1       7.208   4.218  12.116  0.00  0.00    +0.000 A 
ATOM     27  C   UNL     1       7.931   5.172  12.806  0.00  0.00    +0.000 A 
ATOM     28  N   UNL     1       7.692   5.454  14.106  0.00  0.00    +0.000 NA
ENDBRANCH  21  23
ENDBRANCH   1  21
TORSDOF 3
ENDMDL
MODEL 6
REMARK VINA RESULT:      -7.2      5.864      9.056
REMARK  Name = 
REMARK  5 active torsions:
REMARK  status: ('A' for Active; 'I' for Inactive)
REMARK    1  A    between atoms: C_1  and  C_2
REMARK    2  A    between atoms: C_2  and  C_3
REMARK    3  A    between atoms: C_2  and  N_4
REMARK    4  A    between atoms: C_2  and  C_22
REMARK    5  A    between atoms: C_8  and  C_9
REMARK                            x       y       z     vdW  Elec       q    Type
REMARK                         _______ _______ _______ _____ _____    ______ ____
ROOT
ATOM      1  N   UNL     1       9.261  10.277  19.313  0.00  0.00    +0.000 N 
ATOM      2  C   UNL     1       8.596   9.220  18.728  0.00  0.00    +0.000 A 
ATOM      3  N   UNL     1       8.817   8.010  19.254  0.00  0.00    +0.000 NA
ATOM      4  C   UNL     1       8.240   6.955  18.636  0.00  0.00    +0.000 A 
ATOM      5  C   UNL     1       7.411   7.080  17.545  0.00  0.00    +0.000 A 
ATOM      6  C   UNL     1       7.159   8.358  17.139  0.00  0.00    +0.000 A 
ATOM      7  N   UNL     1       7.768   9.424  17.694  0.00  0.00    +0.000 NA
ATOM      8  H   UNL     1       8.839  10.419  20.224  0.00  0.00    +0.000 HD
ENDROOT
BRANCH   5   9
ATOM      9  C   UNL     1       6.849   5.943  16.820  0.00  0.00    +0.000 C 
ATOM     10  O   UNL     1       7.238   5.693  15.687  0.00  0.00    +0.000 OA
ATOM     11  N   UNL     1       5.912   5.219  17.494  0.00  0.00    +0.000 N 
ATOM     12  C   UNL     1       5.166   4.035  17.103  0.00  0.00    +0.000 C 
ATOM     13  C   UNL     1       4.354   4.304  18.411  0.00  0.00    +0.000 C 
ATOM     14  C   UNL     1       3.950   3.086  19.237  0.00  0.00    +0.000 C 
ATOM     15  C   UNL     1       2.711   2.455  18.611  0.00  0.00    +0.000 C 
ATOM     16  O   UNL     1       1.647   3.408  18.541  0.00  0.00    +0.000 OA
ATOM     17  C   UNL     1       1.974   4.510  17.694  0.00  0.00    +0.000 C 
ATOM     18  C   UNL     1       3.163   5.269  18.263  0.00  0.00    +0.000 C 
ATOM     19  C   UNL     1       5.631   5.027  18.910  0.00  0.00    +0.000 C 
ENDBRANCH   5   9
BRANCH   1  21
ATOM     20  C   UNL     1      10.769  11.361  17.682  0.00  0.00    +0.000 C 
ATOM     21  C   UNL     1       9.518  11.527  18.569  0.00  0.00    +0.000 C 
ATOM     22  C   UNL     1       8.297  11.965  17.734  0.00  0.00    +0.000 C 
BRANCH  21  23
ATOM     23  C   UNL     1       9.832  12.655  19.578  0.00  0.00    +0.000 A 
ATOM     24  C   UNL     1       9.431  12.582  20.912  0.00  0.00    +0.000 A 
ATOM     25  N   UNL     1       9.679  13.562  21.818  0.00  0.00    +0.000 NA
ATOM     26  C   UNL     1      10.364  14.623  21.350  0.00  0.00    +0.000 A 
ATOM     27  C   UNL     1      10.801  14.704  20.042  0.00  0.00    +0.000 A 
ATOM     28  N   UNL     1      10.550  13.730  19.139  0.00  0.00    +0.000 NA
ENDBRANCH  21  23
ENDBRANCH   1  21
TORSDOF 3
ENDMDL
MODEL 7
REMARK VINA RESULT:      -7.1      1.431      2.410
REMARK  Name = 
REMARK  5 active torsions:
REMARK  status: ('A' for Active; 'I' for Inactive)
REMARK    1  A    between atoms: C_1  and  C_2
REMARK    2  A    between atoms: C_2  and  C_3
REMARK    3  A    between atoms: C_2  and  N_4
REMARK    4  A    between atoms: C_2  and  C_22
REMARK    5  A    between atoms: C_8  and  C_9
REMARK                            x       y       z     vdW  Elec       q    Type
REMARK                         _______ _______ _______ _____ _____    ______ ____
ROOT
ATOM      1  N   UNL     1       2.580   6.431  20.108  0.00  0.00    +0.000 N 
ATOM      2  C   UNL     1       2.110   7.669  19.724  0.00  0.00    +0.000 A 
ATOM      3  N   UNL     1       1.371   8.333  20.621  0.00  0.00    +0.000 NA
ATOM      4  C   UNL     1       0.832   9.509  20.225  0.00  0.00    +0.000 A 
ATOM      5  C   UNL     1       1.053  10.060  18.984  0.00  0.00    +0.000 A 
ATOM      6  C   UNL     1       1.901   9.365  18.172  0.00  0.00    +0.000 A 
ATOM      7  N   UNL     1       2.402   8.163  18.513  0.00  0.00    +0.000 NA
ATOM      8  H   UNL     1       3.291   6.594  20.813  0.00  0.00    +0.000 HD
ENDROOT
BRANCH   5   9
ATOM      9  C   UNL     1       0.410  11.287  18.518  0.00  0.00    +0.000 C 
ATOM     10  O   UNL     1       1.018  12.347  18.566  0.00  0.00    +0.000 OA
ATOM     11  N   UNL     1      -0.858  11.142  18.039  0.00  0.00    +0.000 N 
ATOM     12  C   UNL     1      -1.779  12.119  17.486  0.00  0.00    +0.000 C 
ATOM     13  C   UNL     1      -2.817  10.952  17.559  0.00  0.00    +0.000 C 
ATOM     14  C   UNL     1      -3.796  10.823  16.396  0.00  0.00    +0.000 C 
ATOM     15  C   UNL     1      -4.927  11.826  16.590  0.00  0.00    +0.000 C 
ATOM     16  O   UNL     1      -5.581  11.605  17.842  0.00  0.00    +0.000 OA
ATOM     17  C   UNL     1      -4.701  11.815  18.947  0.00  0.00    +0.000 C 
ATOM     18  C   UNL     1      -3.559  10.811  18.901  0.00  0.00    +0.000 C 
ATOM     19  C   UNL     1      -1.585  10.015  17.473  0.00  0.00    +0.000 C 
ENDBRANCH   5   9
BRANCH   1  21
ATOM     20  C   UNL     1       1.747   5.122  18.184  0.00  0.00    +0.000 C 
ATOM     21  C   UNL     1       2.948   5.407  19.110  0.00  0.00    +0.000 C 
ATOM     22  C   UNL     1       4.194   5.813  18.297  0.00  0.00    +0.000 C 
BRANCH  21  23
ATOM     23  C   UNL     1       3.269   4.084  19.843  0.00  0.00    +0.000 A 
ATOM     24  C   UNL     1       2.590   3.701  21.000  0.00  0.00    +0.000 A 
ATOM     25  N   UNL     1       2.860   2.554  21.674  0.00  0.00    +0.000 NA
ATOM     26  C   UNL     1       3.826   1.782  21.142  0.00  0.00    +0.000 A 
ATOM     27  C   UNL     1       4.490   2.124  19.979  0.00  0.00    +0.000 A 
ATOM     28  N   UNL     1       4.225   3.268  19.311  0.00  0.00    +0.000 NA
ENDBRANCH  21  23
ENDBRANCH   1  21
TORSDOF 3
ENDMDL
MODEL 8
REMARK VINA RESULT:      -7.1      2.790      8.571
REMARK  Name = 
REMARK  5 active torsions:
REMARK  status: ('A' for Active; 'I' for Inactive)
REMARK    1  A    between atoms: C_1  and  C_2
REMARK    2  A    between atoms: C_2  and  C_3
REMARK    3  A    between atoms: C_2  and  N_4
REMARK    4  A    between atoms: C_2  and  C_22
REMARK    5  A    between atoms: C_8  and  C_9
REMARK                            x       y       z     vdW  Elec       q    Type
REMARK                         _______ _______ _______ _____ _____    ______ ____
ROOT
ATOM      1  N   UNL     1      -1.019  11.020  20.210  0.00  0.00    +0.000 N 
ATOM      2  C   UNL     1      -0.099  10.130  19.698  0.00  0.00    +0.000 A 
ATOM      3  N   UNL     1       0.540   9.356  20.583  0.00  0.00    +0.000 NA
ATOM      4  C   UNL     1       1.507   8.541  20.102  0.00  0.00    +0.000 A 
ATOM      5  C   UNL     1       1.814   8.441  18.765  0.00  0.00    +0.000 A 
ATOM      6  C   UNL     1       1.043   9.190  17.925  0.00  0.00    +0.000 A 
ATOM      7  N   UNL     1       0.117  10.057  18.377  0.00  0.00    +0.000 NA
ATOM      8  H   UNL     1      -1.805  10.471  20.539  0.00  0.00    +0.000 HD
ENDROOT
BRANCH   5   9
ATOM      9  C   UNL     1       2.910   7.626  18.245  0.00  0.00    +0.000 C 
ATOM     10  O   UNL     1       3.710   8.116  17.459  0.00  0.00    +0.000 OA
ATOM     11  N   UNL     1       2.961   6.345  18.704  0.00  0.00    +0.000 N 
ATOM     12  C   UNL     1       3.903   5.274  18.425  0.00  0.00    +0.000 C 
ATOM     13  C   UNL     1       2.882   4.383  19.205  0.00  0.00    +0.000 C 
ATOM     14  C   UNL     1       3.461   3.322  20.137  0.00  0.00    +0.000 C 
ATOM     15  C   UNL     1       3.872   2.109  19.309  0.00  0.00    +0.000 C 
ATOM     16  O   UNL     1       2.751   1.601  18.581  0.00  0.00    +0.000 OA
ATOM     17  C   UNL     1       2.256   2.549  17.635  0.00  0.00    +0.000 C 
ATOM     18  C   UNL     1       1.743   3.786  18.357  0.00  0.00    +0.000 C 
ATOM     19  C   UNL     1       2.458   5.698  19.908  0.00  0.00    +0.000 C 
ENDBRANCH   5   9
BRANCH   1  21
ATOM     20  C   UNL     1      -1.776  13.361  20.455  0.00  0.00    +0.000 C 
ATOM     21  C   UNL     1      -1.407  12.235  19.466  0.00  0.00    +0.000 C 
ATOM     22  C   UNL     1      -0.303  12.693  18.489  0.00  0.00    +0.000 C 
BRANCH  21  23
ATOM     23  C   UNL     1      -2.678  11.933  18.639  0.00  0.00    +0.000 A 
ATOM     24  C   UNL     1      -2.607  11.500  17.315  0.00  0.00    +0.000 A 
ATOM     25  N   UNL     1      -3.704  11.241  16.559  0.00  0.00    +0.000 NA
ATOM     26  C   UNL     1      -4.888  11.411  17.177  0.00  0.00    +0.000 A 
ATOM     27  C   UNL     1      -4.983  11.808  18.497  0.00  0.00    +0.000 A 
ATOM     28  N   UNL     1      -3.891  12.071  19.248  0.00  0.00    +0.000 NA
ENDBRANCH  21  23
ENDBRANCH   1  21
TORSDOF 3
ENDMDL
MODEL 9
REMARK VINA RESULT:      -7.0      2.754      4.490
REMARK  Name = 
REMARK  5 active torsions:
REMARK  status: ('A' for Active; 'I' for Inactive)
REMARK    1  A    between atoms: C_1  and  C_2
REMARK    2  A    between atoms: C_2  and  C_3
REMARK    3  A    between atoms: C_2  and  N_4
REMARK    4  A    between atoms: C_2  and  C_22
REMARK    5  A    between atoms: C_8  and  C_9
REMARK                            x       y       z     vdW  Elec       q    Type
REMARK                         _______ _______ _______ _____ _____    ______ ____
ROOT
ATOM      1  N   UNL     1       2.757   6.403  19.794  0.00  0.00    +0.000 N 
ATOM      2  C   UNL     1       2.072   7.600  19.767  0.00  0.00    +0.000 A 
ATOM      3  N   UNL     1       1.462   7.964  20.901  0.00  0.00    +0.000 NA
ATOM      4  C   UNL     1       0.715   9.091  20.863  0.00  0.00    +0.000 A 
ATOM      5  C   UNL     1       0.604   9.885  19.745  0.00  0.00    +0.000 A 
ATOM      6  C   UNL     1       1.342   9.493  18.666  0.00  0.00    +0.000 A 
ATOM      7  N   UNL     1       2.044   8.344  18.653  0.00  0.00    +0.000 NA
ATOM      8  H   UNL     1       3.574   6.548  20.376  0.00  0.00    +0.000 HD
ENDROOT
BRANCH   5   9
ATOM      9  C   UNL     1      -0.265  11.058  19.669  0.00  0.00    +0.000 C 
ATOM     10  O   UNL     1      -1.428  10.929  19.311  0.00  0.00    +0.000 OA
ATOM     11  N   UNL     1       0.308  12.241  20.027  0.00  0.00    +0.000 N 
ATOM     12  C   UNL     1      -0.245  13.582  20.090  0.00  0.00    +0.000 C 
ATOM     13  C   UNL     1       1.238  14.016  20.327  0.00  0.00    +0.000 C 
ATOM     14  C   UNL     1       1.480  15.127  21.345  0.00  0.00    +0.000 C 
ATOM     15  C   UNL     1       1.203  16.472  20.683  0.00  0.00    +0.000 C 
ATOM     16  O   UNL     1       2.032  16.639  19.530  0.00  0.00    +0.000 OA
ATOM     17  C   UNL     1       1.751  15.663  18.526  0.00  0.00    +0.000 C 
ATOM     18  C   UNL     1       2.063  14.271  19.052  0.00  0.00    +0.000 C 
ATOM     19  C   UNL     1       1.441  12.581  20.876  0.00  0.00    +0.000 C 
ENDBRANCH   5   9
BRANCH   1  21
ATOM     20  C   UNL     1       1.741   5.539  17.712  0.00  0.00    +0.000 C 
ATOM     21  C   UNL     1       3.030   5.648  18.554  0.00  0.00    +0.000 C 
ATOM     22  C   UNL     1       4.178   6.275  17.735  0.00  0.00    +0.000 C 
BRANCH  21  23
ATOM     23  C   UNL     1       3.444   4.206  18.926  0.00  0.00    +0.000 A 
ATOM     24  C   UNL     1       4.683   3.921  19.500  0.00  0.00    +0.000 A 
ATOM     25  N   UNL     1       5.081   2.665  19.823  0.00  0.00    +0.000 NA
ATOM     26  C   UNL     1       4.186   1.690  19.570  0.00  0.00    +0.000 A 
ATOM     27  C   UNL     1       2.941   1.950  19.033  0.00  0.00    +0.000 A 
ATOM     28  N   UNL     1       2.546   3.201  18.706  0.00  0.00    +0.000 NA
ENDBRANCH  21  23
ENDBRANCH   1  21
TORSDOF 3
ENDMDL
