MODEL 1
REMARK VINA RESULT:      -7.9      0.000      0.000
REMARK  Name = 
REMARK  2 active torsions:
REMARK  status: ('A' for Active; 'I' for Inactive)
REMARK    1  A    between atoms: O_1  and  C_2
REMARK    2  A    between atoms: C_12  and  C_13
REMARK                            x       y       z     vdW  Elec       q    Type
REMARK                         _______ _______ _______ _____ _____    ______ ____
ROOT
ATOM      1  C   UNL     1       5.052   5.111  17.035  0.00  0.00    +0.000 C 
ATOM      2  C   UNL     1       4.648   5.929  19.831  0.00  0.00    +0.000 C 
ATOM      3  C   UNL     1       5.238   5.254  18.884  0.00  0.00    +0.000 C 
ATOM      4  C   UNL     1       5.925   4.469  17.779  0.00  0.00    +0.000 C 
ATOM      5  C   UNL     1       7.180   4.566  16.756  0.00  0.00    +0.000 C 
ATOM      6  C   UNL     1       7.373   4.442  15.258  0.00  0.00    +0.000 C 
ATOM      7  C   UNL     1       5.648   4.679  13.970  0.00  0.00    +0.000 C 
ATOM      8  C   UNL     1       6.335   3.893  12.866  0.00  0.00    +0.000 C 
ATOM      9  C   UNL     1       6.925   3.219  11.918  0.00  0.00    +0.000 C 
ATOM     10  C   UNL     1       5.978   3.649  14.662  0.00  0.00    +0.000 C 
ATOM     11  C   UNL     1       4.612   4.806  15.838  0.00  0.00    +0.000 C 
ENDROOT
BRANCH  11  12
ATOM     12  C   UNL     1       3.357   6.180  17.388  0.00  0.00    +0.000 A 
ATOM     13  C   UNL     1       2.350   7.800  17.938  0.00  0.00    +0.000 A 
ATOM     14  C   UNL     1       1.384   9.070  19.138  0.00  0.00    +0.000 A 
ATOM     15  C   UNL     1       0.657   9.615  20.573  0.00  0.00    +0.000 A 
ATOM     16  C   UNL     1      -0.214  11.113  21.527  0.00  0.00    +0.000 A 
ATOM     17  C   UNL     1      -0.901  11.532  22.845  0.00  0.00    +0.000 A 
ATOM     18  C   UNL     1      -0.810  10.210  23.153  0.00  0.00    +0.000 A 
ATOM     19  C   UNL     1       0.062   8.827  22.093  0.00  0.00    +0.000 A 
ATOM     20  C   UNL     1       1.130   8.024  20.577  0.00  0.00    +0.000 A 
ATOM     21  C   UNL     1       2.244   6.888  19.091  0.00  0.00    +0.000 A 
ENDBRANCH  11  12
BRANCH   1  22
ATOM     22  O   UNL     1       6.046   6.691  17.401  0.00  0.00    +0.000 OA
ATOM     23  H   UNL     1       6.018   6.803  18.419  0.00  0.00    +0.000 HD
ENDBRANCH   1  22
TORSDOF 2
ENDMDL
MODEL 2
REMARK VINA RESULT:      -7.7      0.740      1.251
REMARK  Name = 
REMARK  2 active torsions:
REMARK  status: ('A' for Active; 'I' for Inactive)
REMARK    1  A    between atoms: O_1  and  C_2
REMARK    2  A    between atoms: C_12  and  C_13
REMARK                            x       y       z     vdW  Elec       q    Type
REMARK                         _______ _______ _______ _____ _____    ______ ____
ROOT
ATOM      1  C   UNL     1       5.358   5.031  16.637  0.00  0.00    +0.000 C 
ATOM      2  C   UNL     1       5.395   6.244  19.316  0.00  0.00    +0.000 C 
ATOM      3  C   UNL     1       5.906   5.543  18.344  0.00  0.00    +0.000 C 
ATOM      4  C   UNL     1       6.503   4.726  17.209  0.00  0.00    +0.000 C 
ATOM      5  C   UNL     1       7.439   4.888  15.895  0.00  0.00    +0.000 C 
ATOM      6  C   UNL     1       7.323   4.535  14.425  0.00  0.00    +0.000 C 
ATOM      7  C   UNL     1       5.351   4.179  13.603  0.00  0.00    +0.000 C 
ATOM      8  C   UNL     1       5.948   3.361  12.468  0.00  0.00    +0.000 C 
ATOM      9  C   UNL     1       6.459   2.660  11.495  0.00  0.00    +0.000 C 
ATOM     10  C   UNL     1       6.064   3.380  14.313  0.00  0.00    +0.000 C 
ATOM     11  C   UNL     1       4.753   4.430  15.641  0.00  0.00    +0.000 C 
ENDROOT
BRANCH  11  12
ATOM     12  C   UNL     1       3.576   5.779  17.273  0.00  0.00    +0.000 A 
ATOM     13  C   UNL     1       2.686   6.113  19.016  0.00  0.00    +0.000 A 
ATOM     14  C   UNL     1       1.636   7.081  20.410  0.00  0.00    +0.000 A 
ATOM     15  C   UNL     1       0.813   8.387  21.119  0.00  0.00    +0.000 A 
ATOM     16  C   UNL     1      -0.294   9.030  22.626  0.00  0.00    +0.000 A 
ATOM     17  C   UNL     1      -0.986  10.268  23.238  0.00  0.00    +0.000 A 
ATOM     18  C   UNL     1      -0.334  10.947  22.257  0.00  0.00    +0.000 A 
ATOM     19  C   UNL     1       0.757  10.177  20.838  0.00  0.00    +0.000 A 
ATOM     20  C   UNL     1       1.629   8.739  19.717  0.00  0.00    +0.000 A 
ATOM     21  C   UNL     1       2.682   7.423  18.339  0.00  0.00    +0.000 A 
ENDBRANCH  11  12
BRANCH   1  22
ATOM     22  O   UNL     1       5.997   6.820  16.532  0.00  0.00    +0.000 OA
ATOM     23  H   UNL     1       6.969   6.744  16.216  0.00  0.00    +0.000 HD
ENDBRANCH   1  22
TORSDOF 2
ENDMDL
MODEL 3
REMARK VINA RESULT:      -7.6      3.653      9.677
REMARK  Name = 
REMARK  2 active torsions:
REMARK  status: ('A' for Active; 'I' for Inactive)
REMARK    1  A    between atoms: O_1  and  C_2
REMARK    2  A    between atoms: C_12  and  C_13
REMARK                            x       y       z     vdW  Elec       q    Type
REMARK                         _______ _______ _______ _____ _____    ______ ____
ROOT
ATOM      1  C   UNL     1       0.116  11.457  20.297  0.00  0.00    +0.000 C 
ATOM      2  C   UNL     1       0.002   8.728  21.389  0.00  0.00    +0.000 C 
ATOM      3  C   UNL     1      -0.270  10.003  21.398  0.00  0.00    +0.000 C 
ATOM      4  C   UNL     1      -0.588  11.489  21.408  0.00  0.00    +0.000 C 
ATOM      5  C   UNL     1      -1.716  12.542  20.907  0.00  0.00    +0.000 C 
ATOM      6  C   UNL     1      -1.728  13.814  20.082  0.00  0.00    +0.000 C 
ATOM      7  C   UNL     1      -0.045  14.215  18.779  0.00  0.00    +0.000 C 
ATOM      8  C   UNL     1      -0.362  15.701  18.790  0.00  0.00    +0.000 C 
ATOM      9  C   UNL     1      -0.634  16.977  18.799  0.00  0.00    +0.000 C 
ATOM     10  C   UNL     1      -0.110  14.375  20.052  0.00  0.00    +0.000 C 
ATOM     11  C   UNL     1       0.733  12.441  19.688  0.00  0.00    +0.000 C 
ENDROOT
BRANCH  11  12
ATOM     12  C   UNL     1       1.372  10.120  19.418  0.00  0.00    +0.000 A 
ATOM     13  C   UNL     1       1.924   8.522  18.377  0.00  0.00    +0.000 A 
ATOM     14  C   UNL     1       2.374   6.614  18.002  0.00  0.00    +0.000 A 
ATOM     15  C   UNL     1       2.686   4.983  18.360  0.00  0.00    +0.000 A 
ATOM     16  C   UNL     1       3.050   3.170  17.661  0.00  0.00    +0.000 A 
ATOM     17  C   UNL     1       3.371   1.712  18.056  0.00  0.00    +0.000 A 
ATOM     18  C   UNL     1       3.475   2.220  19.313  0.00  0.00    +0.000 A 
ATOM     19  C   UNL     1       3.109   4.055  19.859  0.00  0.00    +0.000 A 
ATOM     20  C   UNL     1       2.533   5.984  19.677  0.00  0.00    +0.000 A 
ATOM     21  C   UNL     1       1.972   8.085  19.784  0.00  0.00    +0.000 A 
ENDBRANCH  11  12
BRANCH   1  22
ATOM     22  O   UNL     1      -1.336  10.505  19.519  0.00  0.00    +0.000 OA
ATOM     23  H   UNL     1      -0.912   9.705  19.038  0.00  0.00    +0.000 HD
ENDBRANCH   1  22
TORSDOF 2
ENDMDL
MODEL 4
REMARK VINA RESULT:      -7.5      2.497     10.326
REMARK  Name = 
REMARK  2 active torsions:
REMARK  status: ('A' for Active; 'I' for Inactive)
REMARK    1  A    between atoms: O_1  and  C_2
REMARK    2  A    between atoms: C_12  and  C_13
REMARK                            x       y       z     vdW  Elec       q    Type
REMARK                         _______ _______ _______ _____ _____    ______ ____
ROOT
ATOM      1  C   UNL     1      -0.630  10.945  20.076  0.00  0.00    +0.000 C 
ATOM      2  C   UNL     1      -0.185   9.467  17.572  0.00  0.00    +0.000 C 
ATOM      3  C   UNL     1      -0.861  10.256  18.360  0.00  0.00    +0.000 C 
ATOM      4  C   UNL     1      -1.649  11.177  19.277  0.00  0.00    +0.000 C 
ATOM      5  C   UNL     1      -1.834  12.749  19.630  0.00  0.00    +0.000 C 
ATOM      6  C   UNL     1      -1.776  13.597  20.885  0.00  0.00    +0.000 C 
ATOM      7  C   UNL     1      -0.744  12.806  22.618  0.00  0.00    +0.000 C 
ATOM      8  C   UNL     1      -1.532  13.726  23.536  0.00  0.00    +0.000 C 
ATOM      9  C   UNL     1      -2.208  14.516  24.323  0.00  0.00    +0.000 C 
ATOM     10  C   UNL     1      -1.922  12.510  22.200  0.00  0.00    +0.000 C 
ATOM     11  C   UNL     1      -0.565  11.071  21.380  0.00  0.00    +0.000 C 
ENDROOT
BRANCH  11  12
ATOM     12  C   UNL     1       0.893   9.598  20.126  0.00  0.00    +0.000 A 
ATOM     13  C   UNL     1       1.723   7.850  19.680  0.00  0.00    +0.000 A 
ATOM     14  C   UNL     1       2.947   6.547  18.792  0.00  0.00    +0.000 A 
ATOM     15  C   UNL     1       4.122   6.010  17.689  0.00  0.00    +0.000 A 
ATOM     16  C   UNL     1       5.277   4.522  17.089  0.00  0.00    +0.000 A 
ATOM     17  C   UNL     1       6.313   4.084  16.030  0.00  0.00    +0.000 A 
ATOM     18  C   UNL     1       6.005   5.270  15.438  0.00  0.00    +0.000 A 
ATOM     19  C   UNL     1       4.814   6.644  16.138  0.00  0.00    +0.000 A 
ATOM     20  C   UNL     1       3.576   7.560  17.447  0.00  0.00    +0.000 A 
ATOM     21  C   UNL     1       2.228   8.775  18.649  0.00  0.00    +0.000 A 
ENDBRANCH  11  12
BRANCH   1  22
ATOM     22  O   UNL     1       0.419  11.990  18.882  0.00  0.00    +0.000 OA
ATOM     23  H   UNL     1      -0.240  12.357  18.188  0.00  0.00    +0.000 HD
ENDBRANCH   1  22
TORSDOF 2
ENDMDL
MODEL 5
REMARK VINA RESULT:      -7.4      2.380     10.265
REMARK  Name = 
REMARK  2 active torsions:
REMARK  status: ('A' for Active; 'I' for Inactive)
REMARK    1  A    between atoms: O_1  and  C_2
REMARK    2  A    between atoms: C_12  and  C_13
REMARK                            x       y       z     vdW  Elec       q    Type
REMARK                         _______ _______ _______ _____ _____    ______ ____
ROOT
ATOM      1  C   UNL     1       0.072  11.435  20.321  0.00  0.00    +0.000 C 
ATOM      2  C   UNL     1       2.213  11.239  18.314  0.00  0.00    +0.000 C 
ATOM      3  C   UNL     1       1.293  11.875  18.983  0.00  0.00    +0.000 C 
ATOM      4  C   UNL     1       0.221  12.617  19.765  0.00  0.00    +0.000 C 
ATOM      5  C   UNL     1       0.026  13.504  21.109  0.00  0.00    +0.000 C 
ATOM      6  C   UNL     1      -0.883  13.457  22.321  0.00  0.00    +0.000 C 
ATOM      7  C   UNL     1      -1.874  11.590  22.796  0.00  0.00    +0.000 C 
ATOM      8  C   UNL     1      -2.946  12.332  23.576  0.00  0.00    +0.000 C 
ATOM      9  C   UNL     1      -3.866  12.969  24.246  0.00  0.00    +0.000 C 
ATOM     10  C   UNL     1      -2.195  12.444  21.891  0.00  0.00    +0.000 C 
ATOM     11  C   UNL     1      -0.964  10.956  20.966  0.00  0.00    +0.000 C 
ENDROOT
BRANCH  11  12
ATOM     12  C   UNL     1       0.678   9.542  19.884  0.00  0.00    +0.000 A 
ATOM     13  C   UNL     1       1.831   7.934  19.722  0.00  0.00    +0.000 A 
ATOM     14  C   UNL     1       3.236   6.722  18.988  0.00  0.00    +0.000 A 
ATOM     15  C   UNL     1       4.412   6.179  17.888  0.00  0.00    +0.000 A 
ATOM     16  C   UNL     1       5.813   4.845  17.480  0.00  0.00    +0.000 A 
ATOM     17  C   UNL     1       6.835   4.381  16.419  0.00  0.00    +0.000 A 
ATOM     18  C   UNL     1       6.234   5.313  15.632  0.00  0.00    +0.000 A 
ATOM     19  C   UNL     1       4.830   6.555  16.165  0.00  0.00    +0.000 A 
ATOM     20  C   UNL     1       3.526   7.493  17.391  0.00  0.00    +0.000 A 
ATOM     21  C   UNL     1       2.042   8.672  18.464  0.00  0.00    +0.000 A 
ENDBRANCH  11  12
BRANCH   1  22
ATOM     22  O   UNL     1       1.764  11.717  21.145  0.00  0.00    +0.000 OA
ATOM     23  H   UNL     1       2.191  12.496  20.633  0.00  0.00    +0.000 HD
ENDBRANCH   1  22
TORSDOF 2
ENDMDL
MODEL 6
REMARK VINA RESULT:      -7.3      1.384      2.423
REMARK  Name = 
REMARK  2 active torsions:
REMARK  status: ('A' for Active; 'I' for Inactive)
REMARK    1  A    between atoms: O_1  and  C_2
REMARK    2  A    between atoms: C_12  and  C_13
REMARK                            x       y       z     vdW  Elec       q    Type
REMARK                         _______ _______ _______ _____ _____    ______ ____
ROOT
ATOM      1  C   UNL     1       3.368   5.856  18.129  0.00  0.00    +0.000 C 
ATOM      2  C   UNL     1       1.494   6.045  20.388  0.00  0.00    +0.000 C 
ATOM      3  C   UNL     1       2.283   5.401  19.574  0.00  0.00    +0.000 C 
ATOM      4  C   UNL     1       3.204   4.650  18.627  0.00  0.00    +0.000 C 
ATOM      5  C   UNL     1       4.743   4.158  18.489  0.00  0.00    +0.000 C 
ATOM      6  C   UNL     1       5.842   4.299  17.454  0.00  0.00    +0.000 C 
ATOM      7  C   UNL     1       5.683   5.887  15.990  0.00  0.00    +0.000 C 
ATOM      8  C   UNL     1       6.604   5.135  15.042  0.00  0.00    +0.000 C 
ATOM      9  C   UNL     1       7.393   4.491  14.229  0.00  0.00    +0.000 C 
ATOM     10  C   UNL     1       5.067   4.760  15.998  0.00  0.00    +0.000 C 
ATOM     11  C   UNL     1       3.790   6.200  16.936  0.00  0.00    +0.000 C 
ENDROOT
BRANCH  11  12
ATOM     12  C   UNL     1       2.405   7.639  18.307  0.00  0.00    +0.000 A 
ATOM     13  C   UNL     1       1.028   9.034  18.619  0.00  0.00    +0.000 A 
ATOM     14  C   UNL     1      -0.104  10.336  19.623  0.00  0.00    +0.000 A 
ATOM     15  C   UNL     1      -0.748  11.120  20.985  0.00  0.00    +0.000 A 
ATOM     16  C   UNL     1      -1.899  12.572  21.675  0.00  0.00    +0.000 A 
ATOM     17  C   UNL     1      -2.483  13.213  22.953  0.00  0.00    +0.000 A 
ATOM     18  C   UNL     1      -1.932  12.138  23.578  0.00  0.00    +0.000 A 
ATOM     19  C   UNL     1      -0.831  10.754  22.759  0.00  0.00    +0.000 A 
ATOM     20  C   UNL     1       0.203   9.797  21.309  0.00  0.00    +0.000 A 
ATOM     21  C   UNL     1       1.389   8.560  19.967  0.00  0.00    +0.000 A 
ENDBRANCH  11  12
BRANCH   1  22
ATOM     22  O   UNL     1       4.313   6.281  19.724  0.00  0.00    +0.000 OA
ATOM     23  H   UNL     1       5.157   5.698  19.706  0.00  0.00    +0.000 HD
ENDBRANCH   1  22
TORSDOF 2
ENDMDL
MODEL 7
REMARK VINA RESULT:      -7.2      2.536     10.339
REMARK  Name = 
REMARK  2 active torsions:
REMARK  status: ('A' for Active; 'I' for Inactive)
REMARK    1  A    between atoms: O_1  and  C_2
REMARK    2  A    between atoms: C_12  and  C_13
REMARK                            x       y       z     vdW  Elec       q    Type
REMARK                         _______ _______ _______ _____ _____    ______ ____
ROOT
ATOM      1  C   UNL     1      -0.784  11.018  20.120  0.00  0.00    +0.000 C 
ATOM      2  C   UNL     1      -0.361   9.526  17.621  0.00  0.00    +0.000 C 
ATOM      3  C   UNL     1      -1.024  10.330  18.404  0.00  0.00    +0.000 C 
ATOM      4  C   UNL     1      -1.795  11.268  19.318  0.00  0.00    +0.000 C 
ATOM      5  C   UNL     1      -1.951  12.844  19.667  0.00  0.00    +0.000 C 
ATOM      6  C   UNL     1      -1.879  13.693  20.920  0.00  0.00    +0.000 C 
ATOM      7  C   UNL     1      -0.867  12.886  22.657  0.00  0.00    +0.000 C 
ATOM      8  C   UNL     1      -1.640  13.824  23.571  0.00  0.00    +0.000 C 
ATOM      9  C   UNL     1      -2.302  14.628  24.355  0.00  0.00    +0.000 C 
ATOM     10  C   UNL     1      -2.050  12.612  22.237  0.00  0.00    +0.000 C 
ATOM     11  C   UNL     1      -0.719  11.145  21.424  0.00  0.00    +0.000 C 
ENDROOT
BRANCH  11  12
ATOM     12  C   UNL     1       0.713   9.640  20.177  0.00  0.00    +0.000 A 
ATOM     13  C   UNL     1       2.130   9.194  18.860  0.00  0.00    +0.000 A 
ATOM     14  C   UNL     1       3.303   8.067  17.704  0.00  0.00    +0.000 A 
ATOM     15  C   UNL     1       3.976   6.634  17.087  0.00  0.00    +0.000 A 
ATOM     16  C   UNL     1       5.171   5.804  15.748  0.00  0.00    +0.000 A 
ATOM     17  C   UNL     1       5.779   4.470  15.264  0.00  0.00    +0.000 A 
ATOM     18  C   UNL     1       5.203   3.958  16.385  0.00  0.00    +0.000 A 
ATOM     19  C   UNL     1       4.060   4.911  17.643  0.00  0.00    +0.000 A 
ATOM     20  C   UNL     1       2.992   6.444  18.411  0.00  0.00    +0.000 A 
ATOM     21  C   UNL     1       1.764   7.901  19.466  0.00  0.00    +0.000 A 
ENDBRANCH  11  12
BRANCH   1  22
ATOM     22  O   UNL     1       0.290  12.039  18.926  0.00  0.00    +0.000 OA
ATOM     23  H   UNL     1       1.005  11.391  18.579  0.00  0.00    +0.000 HD
ENDBRANCH   1  22
TORSDOF 2
ENDMDL
MODEL 8
REMARK VINA RESULT:      -7.2      3.131     11.004
REMARK  Name = 
REMARK  2 active torsions:
REMARK  status: ('A' for Active; 'I' for Inactive)
REMARK    1  A    between atoms: O_1  and  C_2
REMARK    2  A    between atoms: C_12  and  C_13
REMARK                            x       y       z     vdW  Elec       q    Type
REMARK                         _______ _______ _______ _____ _____    ______ ____
ROOT
ATOM      1  C   UNL     1      -1.364  11.997  21.274  0.00  0.00    +0.000 C 
ATOM      2  C   UNL     1      -0.985  10.342  18.872  0.00  0.00    +0.000 C 
ATOM      3  C   UNL     1      -1.569  11.278  19.567  0.00  0.00    +0.000 C 
ATOM      4  C   UNL     1      -2.250  12.370  20.376  0.00  0.00    +0.000 C 
ATOM      5  C   UNL     1      -2.172  13.965  20.659  0.00  0.00    +0.000 C 
ATOM      6  C   UNL     1      -2.066  14.849  21.886  0.00  0.00    +0.000 C 
ATOM      7  C   UNL     1      -1.351  13.970  23.732  0.00  0.00    +0.000 C 
ATOM      8  C   UNL     1      -2.032  15.062  24.541  0.00  0.00    +0.000 C 
ATOM      9  C   UNL     1      -2.617  15.998  25.236  0.00  0.00    +0.000 C 
ATOM     10  C   UNL     1      -2.523  13.872  23.216  0.00  0.00    +0.000 C 
ATOM     11  C   UNL     1      -1.389  12.172  22.573  0.00  0.00    +0.000 C 
ENDROOT
BRANCH  11  12
ATOM     12  C   UNL     1      -0.125  10.400  21.510  0.00  0.00    +0.000 A 
ATOM     13  C   UNL     1       0.524   8.535  21.306  0.00  0.00    +0.000 A 
ATOM     14  C   UNL     1       1.586   7.006  20.586  0.00  0.00    +0.000 A 
ATOM     15  C   UNL     1       2.658   6.204  19.540  0.00  0.00    +0.000 A 
ATOM     16  C   UNL     1       3.648   4.542  19.135  0.00  0.00    +0.000 A 
ATOM     17  C   UNL     1       4.593   3.858  18.123  0.00  0.00    +0.000 A 
ATOM     18  C   UNL     1       4.368   4.969  17.370  0.00  0.00    +0.000 A 
ATOM     19  C   UNL     1       3.337   6.537  17.893  0.00  0.00    +0.000 A 
ATOM     20  C   UNL     1       2.244   7.747  19.087  0.00  0.00    +0.000 A 
ATOM     21  C   UNL     1       1.064   9.248  20.134  0.00  0.00    +0.000 A 
ENDBRANCH  11  12
BRANCH   1  22
ATOM     22  O   UNL     1      -0.040  12.775  20.150  0.00  0.00    +0.000 OA
ATOM     23  H   UNL     1       0.185  13.679  20.578  0.00  0.00    +0.000 HD
ENDBRANCH   1  22
TORSDOF 2
ENDMDL
MODEL 9
REMARK VINA RESULT:      -7.2      8.415     10.510
REMARK  Name = 
REMARK  2 active torsions:
REMARK  status: ('A' for Active; 'I' for Inactive)
REMARK    1  A    between atoms: O_1  and  C_2
REMARK    2  A    between atoms: C_12  and  C_13
REMARK                            x       y       z     vdW  Elec       q    Type
REMARK                         _______ _______ _______ _____ _____    ______ ____
ROOT
ATOM      1  C   UNL     1      10.338  13.263  19.594  0.00  0.00    +0.000 C 
ATOM      2  C   UNL     1       9.273  10.896  20.977  0.00  0.00    +0.000 C 
ATOM      3  C   UNL     1       9.878  12.050  20.932  0.00  0.00    +0.000 C 
ATOM      4  C   UNL     1      10.583  13.395  20.880  0.00  0.00    +0.000 C 
ATOM      5  C   UNL     1      10.277  14.984  20.986  0.00  0.00    +0.000 C 
ATOM      6  C   UNL     1      10.558  16.206  20.133  0.00  0.00    +0.000 C 
ATOM      7  C   UNL     1      11.023  15.917  18.037  0.00  0.00    +0.000 C 
ATOM      8  C   UNL     1      11.728  17.262  17.985  0.00  0.00    +0.000 C 
ATOM      9  C   UNL     1      12.333  18.416  17.940  0.00  0.00    +0.000 C 
ATOM     10  C   UNL     1      11.800  15.751  19.046  0.00  0.00    +0.000 C 
ATOM     11  C   UNL     1      10.930  13.850  18.582  0.00  0.00    +0.000 C 
ENDROOT
BRANCH  11  12
ATOM     12  C   UNL     1       9.768  11.734  18.379  0.00  0.00    +0.000 A 
ATOM     13  C   UNL     1       8.408  10.501  17.622  0.00  0.00    +0.000 A 
ATOM     14  C   UNL     1       7.309   8.847  17.417  0.00  0.00    +0.000 A 
ATOM     15  C   UNL     1       6.822   7.248  17.720  0.00  0.00    +0.000 A 
ATOM     16  C   UNL     1       5.505   5.819  17.359  0.00  0.00    +0.000 A 
ATOM     17  C   UNL     1       5.141   4.345  17.645  0.00  0.00    +0.000 A 
ATOM     18  C   UNL     1       6.358   4.305  18.251  0.00  0.00    +0.000 A 
ATOM     19  C   UNL     1       7.576   5.804  18.513  0.00  0.00    +0.000 A 
ATOM     20  C   UNL     1       8.233   7.714  18.462  0.00  0.00    +0.000 A 
ATOM     21  C   UNL     1       9.195   9.665  18.547  0.00  0.00    +0.000 A 
ENDBRANCH  11  12
BRANCH   1  22
ATOM     22  O   UNL     1       8.502  13.527  20.015  0.00  0.00    +0.000 OA
ATOM     23  H   UNL     1       8.475  14.360  20.613  0.00  0.00    +0.000 HD
ENDBRANCH   1  22
TORSDOF 2
ENDMDL
