MODEL 1
REMARK VINA RESULT:      -8.1      0.000      0.000
REMARK  Name = 
REMARK  7 active torsions:
REMARK  status: ('A' for Active; 'I' for Inactive)
REMARK    1  A    between atoms: C_2  and  C_14
REMARK    2  A    between atoms: N_3  and  C_4
REMARK    3  A    between atoms: C_4  and  C_5
REMARK    4  A    between atoms: C_5  and  C_6
REMARK    5  A    between atoms: C_6  and  C_7
REMARK    6  A    between atoms: C_7  and  C_8
REMARK    7  A    between atoms: C_19  and  O_20
REMARK                            x       y       z     vdW  Elec       q    Type
REMARK                         _______ _______ _______ _____ _____    ______ ____
ROOT
ATOM      1  O   UNL     1       8.100   5.080  19.073  0.00  0.00    +0.000 OA
ATOM      2  C   UNL     1       7.135   5.609  18.538  0.00  0.00    +0.000 C 
ATOM      3  N   UNL     1       7.139   6.921  18.131  0.00  0.00    +0.000 N 
ATOM      4  H   UNL     1       6.296   7.313  17.708  0.00  0.00    +0.000 HD
ENDROOT
BRANCH   2   5
ATOM      5  C   UNL     1       5.867   4.852  18.280  0.00  0.00    +0.000 A 
ATOM      6  C   UNL     1       5.098   4.551  19.340  0.00  0.00    +0.000 A 
ATOM      7  C   UNL     1       3.837   3.856  19.144  0.00  0.00    +0.000 A 
ATOM      8  C   UNL     1       2.855   3.782  20.134  0.00  0.00    +0.000 A 
ATOM      9  C   UNL     1       1.657   3.102  19.880  0.00  0.00    +0.000 A 
ATOM     10  C   UNL     1       1.471   2.461  18.656  0.00  0.00    +0.000 A 
ATOM     11  C   UNL     1       2.445   2.513  17.668  0.00  0.00    +0.000 A 
ATOM     12  C   UNL     1       3.600   3.249  17.914  0.00  0.00    +0.000 A 
ATOM     13  O   UNL     1       4.483   3.442  16.841  0.00  0.00    +0.000 OA
ATOM     14  C   UNL     1       5.426   4.461  16.925  0.00  0.00    +0.000 A 
ATOM     15  O   UNL     1       5.911   4.957  15.909  0.00  0.00    +0.000 OA
BRANCH  10  16
ATOM     16  O   UNL     1       0.318   1.792  18.371  0.00  0.00    +0.000 OA
ATOM     17  H   UNL     1      -0.231   1.755  19.172  0.00  0.00    +0.000 HD
ENDBRANCH  10  16
ENDBRANCH   2   5
BRANCH   3  18
ATOM     18  C   UNL     1       8.282   7.795  18.283  0.00  0.00    +0.000 C 
BRANCH  18  19
ATOM     19  C   UNL     1       8.016   9.215  17.787  0.00  0.00    +0.000 C 
BRANCH  19  20
ATOM     20  C   UNL     1       9.133  10.199  18.149  0.00  0.00    +0.000 C 
BRANCH  20  21
ATOM     21  C   UNL     1       9.431  10.167  19.652  0.00  0.00    +0.000 C 
BRANCH  21  22
ATOM     22  C   UNL     1       9.842  11.526  20.167  0.00  0.00    +0.000 A 
ATOM     23  C   UNL     1       9.077  12.178  21.144  0.00  0.00    +0.000 A 
ATOM     24  C   UNL     1       9.431  13.454  21.585  0.00  0.00    +0.000 A 
ATOM     25  C   UNL     1      10.551  14.090  21.056  0.00  0.00    +0.000 A 
ATOM     26  C   UNL     1      11.326  13.447  20.091  0.00  0.00    +0.000 A 
ATOM     27  C   UNL     1      10.973  12.171  19.648  0.00  0.00    +0.000 A 
ENDBRANCH  21  22
ENDBRANCH  20  21
ENDBRANCH  19  20
ENDBRANCH  18  19
ENDBRANCH   3  18
TORSDOF 7
ENDMDL
MODEL 2
REMARK VINA RESULT:      -8.0      5.024      7.855
REMARK  Name = 
REMARK  7 active torsions:
REMARK  status: ('A' for Active; 'I' for Inactive)
REMARK    1  A    between atoms: C_2  and  C_14
REMARK    2  A    between atoms: N_3  and  C_4
REMARK    3  A    between atoms: C_4  and  C_5
REMARK    4  A    between atoms: C_5  and  C_6
REMARK    5  A    between atoms: C_6  and  C_7
REMARK    6  A    between atoms: C_7  and  C_8
REMARK    7  A    between atoms: C_19  and  O_20
REMARK                            x       y       z     vdW  Elec       q    Type
REMARK                         _______ _______ _______ _____ _____    ______ ____
ROOT
ATOM      1  O   UNL     1       5.229   5.052  19.733  0.00  0.00    +0.000 OA
ATOM      2  C   UNL     1       5.410   4.178  18.896  0.00  0.00    +0.000 C 
ATOM      3  N   UNL     1       5.137   2.853  19.136  0.00  0.00    +0.000 N 
ATOM      4  H   UNL     1       5.327   2.165  18.405  0.00  0.00    +0.000 HD
ENDROOT
BRANCH   2   5
ATOM      5  C   UNL     1       5.945   4.494  17.532  0.00  0.00    +0.000 A 
ATOM      6  C   UNL     1       5.534   3.724  16.511  0.00  0.00    +0.000 A 
ATOM      7  C   UNL     1       5.988   4.012  15.160  0.00  0.00    +0.000 A 
ATOM      8  C   UNL     1       5.379   3.468  14.028  0.00  0.00    +0.000 A 
ATOM      9  C   UNL     1       5.860   3.790  12.753  0.00  0.00    +0.000 A 
ATOM     10  C   UNL     1       6.975   4.616  12.622  0.00  0.00    +0.000 A 
ATOM     11  C   UNL     1       7.601   5.152  13.740  0.00  0.00    +0.000 A 
ATOM     12  C   UNL     1       7.068   4.874  14.995  0.00  0.00    +0.000 A 
ATOM     13  O   UNL     1       7.599   5.572  16.090  0.00  0.00    +0.000 OA
ATOM     14  C   UNL     1       6.867   5.620  17.272  0.00  0.00    +0.000 A 
ATOM     15  O   UNL     1       7.039   6.527  18.084  0.00  0.00    +0.000 OA
BRANCH  10  16
ATOM     16  O   UNL     1       7.471   4.955  11.398  0.00  0.00    +0.000 OA
ATOM     17  H   UNL     1       7.852   5.847  11.448  0.00  0.00    +0.000 HD
ENDBRANCH  10  16
ENDBRANCH   2   5
BRANCH   3  18
ATOM     18  C   UNL     1       4.598   2.370  20.389  0.00  0.00    +0.000 C 
BRANCH  18  19
ATOM     19  C   UNL     1       3.072   2.430  20.444  0.00  0.00    +0.000 C 
BRANCH  19  20
ATOM     20  C   UNL     1       2.408   2.125  19.098  0.00  0.00    +0.000 C 
BRANCH  20  21
ATOM     21  C   UNL     1       1.217   3.057  18.845  0.00  0.00    +0.000 C 
BRANCH  21  22
ATOM     22  C   UNL     1       1.593   4.506  19.041  0.00  0.00    +0.000 A 
ATOM     23  C   UNL     1       2.151   5.245  17.989  0.00  0.00    +0.000 A 
ATOM     24  C   UNL     1       2.541   6.571  18.184  0.00  0.00    +0.000 A 
ATOM     25  C   UNL     1       2.377   7.171  19.430  0.00  0.00    +0.000 A 
ATOM     26  C   UNL     1       1.813   6.449  20.481  0.00  0.00    +0.000 A 
ATOM     27  C   UNL     1       1.423   5.122  20.288  0.00  0.00    +0.000 A 
ENDBRANCH  21  22
ENDBRANCH  20  21
ENDBRANCH  19  20
ENDBRANCH  18  19
ENDBRANCH   3  18
TORSDOF 7
ENDMDL
MODEL 3
REMARK VINA RESULT:      -8.0      5.297      8.621
REMARK  Name = 
REMARK  7 active torsions:
REMARK  status: ('A' for Active; 'I' for Inactive)
REMARK    1  A    between atoms: C_2  and  C_14
REMARK    2  A    between atoms: N_3  and  C_4
REMARK    3  A    between atoms: C_4  and  C_5
REMARK    4  A    between atoms: C_5  and  C_6
REMARK    5  A    between atoms: C_6  and  C_7
REMARK    6  A    between atoms: C_7  and  C_8
REMARK    7  A    between atoms: C_19  and  O_20
REMARK                            x       y       z     vdW  Elec       q    Type
REMARK                         _______ _______ _______ _____ _____    ______ ____
ROOT
ATOM      1  O   UNL     1       2.174   6.018  17.727  0.00  0.00    +0.000 OA
ATOM      2  C   UNL     1       2.697   7.079  18.042  0.00  0.00    +0.000 C 
ATOM      3  N   UNL     1       3.977   7.412  17.675  0.00  0.00    +0.000 N 
ATOM      4  H   UNL     1       4.368   8.304  17.984  0.00  0.00    +0.000 HD
ENDROOT
BRANCH   2   5
ATOM      5  C   UNL     1       1.966   8.104  18.856  0.00  0.00    +0.000 A 
ATOM      6  C   UNL     1       1.640   7.776  20.117  0.00  0.00    +0.000 A 
ATOM      7  C   UNL     1       0.969   8.748  20.966  0.00  0.00    +0.000 A 
ATOM      8  C   UNL     1       0.876   8.601  22.351  0.00  0.00    +0.000 A 
ATOM      9  C   UNL     1       0.221   9.576  23.114  0.00  0.00    +0.000 A 
ATOM     10  C   UNL     1      -0.376  10.665  22.480  0.00  0.00    +0.000 A 
ATOM     11  C   UNL     1      -0.305  10.815  21.102  0.00  0.00    +0.000 A 
ATOM     12  C   UNL     1       0.406   9.871  20.368  0.00  0.00    +0.000 A 
ATOM     13  O   UNL     1       0.623  10.141  19.009  0.00  0.00    +0.000 OA
ATOM     14  C   UNL     1       1.626   9.446  18.339  0.00  0.00    +0.000 A 
ATOM     15  O   UNL     1       2.148   9.911  17.328  0.00  0.00    +0.000 OA
BRANCH  10  16
ATOM     16  O   UNL     1      -1.019  11.636  23.189  0.00  0.00    +0.000 OA
ATOM     17  H   UNL     1      -1.123  12.421  22.626  0.00  0.00    +0.000 HD
ENDBRANCH  10  16
ENDBRANCH   2   5
BRANCH   3  18
ATOM     18  C   UNL     1       4.822   6.553  16.873  0.00  0.00    +0.000 C 
BRANCH  18  19
ATOM     19  C   UNL     1       5.707   5.634  17.715  0.00  0.00    +0.000 C 
BRANCH  19  20
ATOM     20  C   UNL     1       5.169   4.203  17.813  0.00  0.00    +0.000 C 
BRANCH  20  21
ATOM     21  C   UNL     1       4.872   3.822  19.268  0.00  0.00    +0.000 C 
BRANCH  21  22
ATOM     22  C   UNL     1       3.400   3.576  19.490  0.00  0.00    +0.000 A 
ATOM     23  C   UNL     1       2.715   4.235  20.520  0.00  0.00    +0.000 A 
ATOM     24  C   UNL     1       1.364   3.970  20.754  0.00  0.00    +0.000 A 
ATOM     25  C   UNL     1       0.685   3.047  19.963  0.00  0.00    +0.000 A 
ATOM     26  C   UNL     1       1.354   2.393  18.929  0.00  0.00    +0.000 A 
ATOM     27  C   UNL     1       2.705   2.655  18.694  0.00  0.00    +0.000 A 
ENDBRANCH  21  22
ENDBRANCH  20  21
ENDBRANCH  19  20
ENDBRANCH  18  19
ENDBRANCH   3  18
TORSDOF 7
ENDMDL
MODEL 4
REMARK VINA RESULT:      -8.0      1.609      1.761
REMARK  Name = 
REMARK  7 active torsions:
REMARK  status: ('A' for Active; 'I' for Inactive)
REMARK    1  A    between atoms: C_2  and  C_14
REMARK    2  A    between atoms: N_3  and  C_4
REMARK    3  A    between atoms: C_4  and  C_5
REMARK    4  A    between atoms: C_5  and  C_6
REMARK    5  A    between atoms: C_6  and  C_7
REMARK    6  A    between atoms: C_7  and  C_8
REMARK    7  A    between atoms: C_19  and  O_20
REMARK                            x       y       z     vdW  Elec       q    Type
REMARK                         _______ _______ _______ _____ _____    ______ ____
ROOT
ATOM      1  O   UNL     1       7.948   5.167  19.403  0.00  0.00    +0.000 OA
ATOM      2  C   UNL     1       7.080   5.644  18.683  0.00  0.00    +0.000 C 
ATOM      3  N   UNL     1       7.201   6.879  18.094  0.00  0.00    +0.000 N 
ATOM      4  H   UNL     1       6.435   7.234  17.519  0.00  0.00    +0.000 HD
ENDROOT
BRANCH   2   5
ATOM      5  C   UNL     1       5.811   4.904  18.387  0.00  0.00    +0.000 A 
ATOM      6  C   UNL     1       5.049   4.536  19.430  0.00  0.00    +0.000 A 
ATOM      7  C   UNL     1       3.787   3.854  19.199  0.00  0.00    +0.000 A 
ATOM      8  C   UNL     1       2.811   3.718  20.188  0.00  0.00    +0.000 A 
ATOM      9  C   UNL     1       1.612   3.054  19.899  0.00  0.00    +0.000 A 
ATOM     10  C   UNL     1       1.418   2.491  18.639  0.00  0.00    +0.000 A 
ATOM     11  C   UNL     1       2.387   2.605  17.650  0.00  0.00    +0.000 A 
ATOM     12  C   UNL     1       3.543   3.324  17.935  0.00  0.00    +0.000 A 
ATOM     13  O   UNL     1       4.419   3.585  16.871  0.00  0.00    +0.000 OA
ATOM     14  C   UNL     1       5.363   4.598  17.012  0.00  0.00    +0.000 A 
ATOM     15  O   UNL     1       5.841   5.156  16.027  0.00  0.00    +0.000 OA
BRANCH  10  16
ATOM     16  O   UNL     1       0.264   1.840  18.320  0.00  0.00    +0.000 OA
ATOM     17  H   UNL     1      -0.314   2.446  17.827  0.00  0.00    +0.000 HD
ENDBRANCH  10  16
ENDBRANCH   2   5
BRANCH   3  18
ATOM     18  C   UNL     1       8.365   7.723  18.255  0.00  0.00    +0.000 C 
BRANCH  18  19
ATOM     19  C   UNL     1       8.087   9.190  17.927  0.00  0.00    +0.000 C 
BRANCH  19  20
ATOM     20  C   UNL     1       8.893  10.163  18.792  0.00  0.00    +0.000 C 
BRANCH  20  21
ATOM     21  C   UNL     1       9.684  11.149  17.924  0.00  0.00    +0.000 C 
BRANCH  21  22
ATOM     22  C   UNL     1       9.106  12.542  17.995  0.00  0.00    +0.000 A 
ATOM     23  C   UNL     1       7.840  12.816  17.458  0.00  0.00    +0.000 A 
ATOM     24  C   UNL     1       7.327  14.114  17.482  0.00  0.00    +0.000 A 
ATOM     25  C   UNL     1       8.071  15.149  18.042  0.00  0.00    +0.000 A 
ATOM     26  C   UNL     1       9.327  14.886  18.588  0.00  0.00    +0.000 A 
ATOM     27  C   UNL     1       9.842  13.589  18.565  0.00  0.00    +0.000 A 
ENDBRANCH  21  22
ENDBRANCH  20  21
ENDBRANCH  19  20
ENDBRANCH  18  19
ENDBRANCH   3  18
TORSDOF 7
ENDMDL
MODEL 5
REMARK VINA RESULT:      -8.0      1.522      1.837
REMARK  Name = 
REMARK  7 active torsions:
REMARK  status: ('A' for Active; 'I' for Inactive)
REMARK    1  A    between atoms: C_2  and  C_14
REMARK    2  A    between atoms: N_3  and  C_4
REMARK    3  A    between atoms: C_4  and  C_5
REMARK    4  A    between atoms: C_5  and  C_6
REMARK    5  A    between atoms: C_6  and  C_7
REMARK    6  A    between atoms: C_7  and  C_8
REMARK    7  A    between atoms: C_19  and  O_20
REMARK                            x       y       z     vdW  Elec       q    Type
REMARK                         _______ _______ _______ _____ _____    ______ ____
ROOT
ATOM      1  O   UNL     1       8.007   5.154  19.148  0.00  0.00    +0.000 OA
ATOM      2  C   UNL     1       7.091   5.722  18.567  0.00  0.00    +0.000 C 
ATOM      3  N   UNL     1       7.189   7.015  18.114  0.00  0.00    +0.000 N 
ATOM      4  H   UNL     1       6.384   7.443  17.653  0.00  0.00    +0.000 HD
ENDROOT
BRANCH   2   5
ATOM      5  C   UNL     1       5.784   5.037  18.302  0.00  0.00    +0.000 A 
ATOM      6  C   UNL     1       5.216   4.370  19.320  0.00  0.00    +0.000 A 
ATOM      7  C   UNL     1       3.928   3.723  19.131  0.00  0.00    +0.000 A 
ATOM      8  C   UNL     1       3.142   3.284  20.197  0.00  0.00    +0.000 A 
ATOM      9  C   UNL     1       1.906   2.673  19.948  0.00  0.00    +0.000 A 
ATOM     10  C   UNL     1       1.489   2.465  18.634  0.00  0.00    +0.000 A 
ATOM     11  C   UNL     1       2.268   2.882  17.564  0.00  0.00    +0.000 A 
ATOM     12  C   UNL     1       3.461   3.546  17.832  0.00  0.00    +0.000 A 
ATOM     13  O   UNL     1       4.137   4.121  16.746  0.00  0.00    +0.000 OA
ATOM     14  C   UNL     1       5.098   5.096  16.995  0.00  0.00    +0.000 A 
ATOM     15  O   UNL     1       5.398   5.920  16.133  0.00  0.00    +0.000 OA
BRANCH  10  16
ATOM     16  O   UNL     1       0.291   1.877  18.353  0.00  0.00    +0.000 OA
ATOM     17  H   UNL     1       0.406   0.912  18.356  0.00  0.00    +0.000 HD
ENDBRANCH  10  16
ENDBRANCH   2   5
BRANCH   3  18
ATOM     18  C   UNL     1       8.382   7.820  18.265  0.00  0.00    +0.000 C 
BRANCH  18  19
ATOM     19  C   UNL     1       8.154   9.291  17.922  0.00  0.00    +0.000 C 
BRANCH  19  20
ATOM     20  C   UNL     1       9.014  10.245  18.758  0.00  0.00    +0.000 C 
BRANCH  20  21
ATOM     21  C   UNL     1      10.010  11.008  17.876  0.00  0.00    +0.000 C 
BRANCH  21  22
ATOM     22  C   UNL     1       9.731  12.491  17.875  0.00  0.00    +0.000 A 
ATOM     23  C   UNL     1      10.783  13.414  17.799  0.00  0.00    +0.000 A 
ATOM     24  C   UNL     1      10.527  14.785  17.846  0.00  0.00    +0.000 A 
ATOM     25  C   UNL     1       9.219  15.248  17.969  0.00  0.00    +0.000 A 
ATOM     26  C   UNL     1       8.163  14.340  18.035  0.00  0.00    +0.000 A 
ATOM     27  C   UNL     1       8.417  12.968  17.989  0.00  0.00    +0.000 A 
ENDBRANCH  21  22
ENDBRANCH  20  21
ENDBRANCH  19  20
ENDBRANCH  18  19
ENDBRANCH   3  18
TORSDOF 7
ENDMDL
MODEL 6
REMARK VINA RESULT:      -8.0      1.667      1.768
REMARK  Name = 
REMARK  7 active torsions:
REMARK  status: ('A' for Active; 'I' for Inactive)
REMARK    1  A    between atoms: C_2  and  C_14
REMARK    2  A    between atoms: N_3  and  C_4
REMARK    3  A    between atoms: C_4  and  C_5
REMARK    4  A    between atoms: C_5  and  C_6
REMARK    5  A    between atoms: C_6  and  C_7
REMARK    6  A    between atoms: C_7  and  C_8
REMARK    7  A    between atoms: C_19  and  O_20
REMARK                            x       y       z     vdW  Elec       q    Type
REMARK                         _______ _______ _______ _____ _____    ______ ____
ROOT
ATOM      1  O   UNL     1       7.667   5.308  17.133  0.00  0.00    +0.000 OA
ATOM      2  C   UNL     1       6.647   5.889  17.481  0.00  0.00    +0.000 C 
ATOM      3  N   UNL     1       6.600   7.246  17.684  0.00  0.00    +0.000 N 
ATOM      4  H   UNL     1       5.725   7.674  17.993  0.00  0.00    +0.000 HD
ENDROOT
BRANCH   2   5
ATOM      5  C   UNL     1       5.361   5.153  17.708  0.00  0.00    +0.000 A 
ATOM      6  C   UNL     1       4.758   5.309  18.898  0.00  0.00    +0.000 A 
ATOM      7  C   UNL     1       3.488   4.653  19.156  0.00  0.00    +0.000 A 
ATOM      8  C   UNL     1       2.662   5.004  20.225  0.00  0.00    +0.000 A 
ATOM      9  C   UNL     1       1.445   4.336  20.417  0.00  0.00    +0.000 A 
ATOM     10  C   UNL     1       1.087   3.292  19.565  0.00  0.00    +0.000 A 
ATOM     11  C   UNL     1       1.906   2.922  18.507  0.00  0.00    +0.000 A 
ATOM     12  C   UNL     1       3.079   3.640  18.294  0.00  0.00    +0.000 A 
ATOM     13  O   UNL     1       3.793   3.373  17.116  0.00  0.00    +0.000 OA
ATOM     14  C   UNL     1       4.731   4.303  16.676  0.00  0.00    +0.000 A 
ATOM     15  O   UNL     1       5.057   4.356  15.492  0.00  0.00    +0.000 OA
BRANCH  10  16
ATOM     16  O   UNL     1      -0.090   2.622  19.717  0.00  0.00    +0.000 OA
ATOM     17  H   UNL     1      -0.804   3.266  19.855  0.00  0.00    +0.000 HD
ENDBRANCH  10  16
ENDBRANCH   2   5
BRANCH   3  18
ATOM     18  C   UNL     1       7.741   8.117  17.494  0.00  0.00    +0.000 C 
BRANCH  18  19
ATOM     19  C   UNL     1       8.586   8.274  18.758  0.00  0.00    +0.000 C 
BRANCH  19  20
ATOM     20  C   UNL     1       9.045   9.715  19.000  0.00  0.00    +0.000 C 
BRANCH  20  21
ATOM     21  C   UNL     1       8.708  10.611  17.802  0.00  0.00    +0.000 C 
BRANCH  21  22
ATOM     22  C   UNL     1       9.460  11.919  17.855  0.00  0.00    +0.000 A 
ATOM     23  C   UNL     1       8.778  13.124  18.074  0.00  0.00    +0.000 A 
ATOM     24  C   UNL     1       9.468  14.338  18.076  0.00  0.00    +0.000 A 
ATOM     25  C   UNL     1      10.844  14.359  17.861  0.00  0.00    +0.000 A 
ATOM     26  C   UNL     1      11.535  13.166  17.654  0.00  0.00    +0.000 A 
ATOM     27  C   UNL     1      10.846  11.951  17.650  0.00  0.00    +0.000 A 
ENDBRANCH  21  22
ENDBRANCH  20  21
ENDBRANCH  19  20
ENDBRANCH  18  19
ENDBRANCH   3  18
TORSDOF 7
ENDMDL
MODEL 7
REMARK VINA RESULT:      -7.9      4.879      8.380
REMARK  Name = 
REMARK  7 active torsions:
REMARK  status: ('A' for Active; 'I' for Inactive)
REMARK    1  A    between atoms: C_2  and  C_14
REMARK    2  A    between atoms: N_3  and  C_4
REMARK    3  A    between atoms: C_4  and  C_5
REMARK    4  A    between atoms: C_5  and  C_6
REMARK    5  A    between atoms: C_6  and  C_7
REMARK    6  A    between atoms: C_7  and  C_8
REMARK    7  A    between atoms: C_19  and  O_20
REMARK                            x       y       z     vdW  Elec       q    Type
REMARK                         _______ _______ _______ _____ _____    ______ ____
ROOT
ATOM      1  O   UNL     1       5.258   5.447  19.407  0.00  0.00    +0.000 OA
ATOM      2  C   UNL     1       4.781   5.840  18.350  0.00  0.00    +0.000 C 
ATOM      3  N   UNL     1       3.589   6.519  18.281  0.00  0.00    +0.000 N 
ATOM      4  H   UNL     1       3.231   6.805  17.368  0.00  0.00    +0.000 HD
ENDROOT
BRANCH   2   5
ATOM      5  C   UNL     1       5.475   5.611  17.041  0.00  0.00    +0.000 A 
ATOM      6  C   UNL     1       4.972   4.666  16.230  0.00  0.00    +0.000 A 
ATOM      7  C   UNL     1       5.580   4.431  14.930  0.00  0.00    +0.000 A 
ATOM      8  C   UNL     1       4.945   3.702  13.922  0.00  0.00    +0.000 A 
ATOM      9  C   UNL     1       5.582   3.516  12.689  0.00  0.00    +0.000 A 
ATOM     10  C   UNL     1       6.867   4.020  12.490  0.00  0.00    +0.000 A 
ATOM     11  C   UNL     1       7.516   4.733  13.489  0.00  0.00    +0.000 A 
ATOM     12  C   UNL     1       6.841   4.964  14.684  0.00  0.00    +0.000 A 
ATOM     13  O   UNL     1       7.438   5.840  15.602  0.00  0.00    +0.000 OA
ATOM     14  C   UNL     1       6.652   6.393  16.609  0.00  0.00    +0.000 A 
ATOM     15  O   UNL     1       6.972   7.450  17.149  0.00  0.00    +0.000 OA
BRANCH  10  16
ATOM     16  O   UNL     1       7.517   3.861  11.303  0.00  0.00    +0.000 OA
ATOM     17  H   UNL     1       7.992   4.682  11.091  0.00  0.00    +0.000 HD
ENDBRANCH  10  16
ENDBRANCH   2   5
BRANCH   3  18
ATOM     18  C   UNL     1       2.794   6.845  19.445  0.00  0.00    +0.000 C 
BRANCH  18  19
ATOM     19  C   UNL     1       1.556   5.961  19.586  0.00  0.00    +0.000 C 
BRANCH  19  20
ATOM     20  C   UNL     1       1.495   5.219  20.925  0.00  0.00    +0.000 C 
BRANCH  20  21
ATOM     21  C   UNL     1       1.121   3.745  20.724  0.00  0.00    +0.000 C 
BRANCH  21  22
ATOM     22  C   UNL     1       2.056   3.060  19.757  0.00  0.00    +0.000 A 
ATOM     23  C   UNL     1       1.648   2.789  18.444  0.00  0.00    +0.000 A 
ATOM     24  C   UNL     1       2.495   2.113  17.564  0.00  0.00    +0.000 A 
ATOM     25  C   UNL     1       3.757   1.703  17.987  0.00  0.00    +0.000 A 
ATOM     26  C   UNL     1       4.178   1.977  19.288  0.00  0.00    +0.000 A 
ATOM     27  C   UNL     1       3.332   2.652  20.169  0.00  0.00    +0.000 A 
ENDBRANCH  21  22
ENDBRANCH  20  21
ENDBRANCH  19  20
ENDBRANCH  18  19
ENDBRANCH   3  18
TORSDOF 7
ENDMDL
MODEL 8
REMARK VINA RESULT:      -7.8      5.054      7.953
REMARK  Name = 
REMARK  7 active torsions:
REMARK  status: ('A' for Active; 'I' for Inactive)
REMARK    1  A    between atoms: C_2  and  C_14
REMARK    2  A    between atoms: N_3  and  C_4
REMARK    3  A    between atoms: C_4  and  C_5
REMARK    4  A    between atoms: C_5  and  C_6
REMARK    5  A    between atoms: C_6  and  C_7
REMARK    6  A    between atoms: C_7  and  C_8
REMARK    7  A    between atoms: C_19  and  O_20
REMARK                            x       y       z     vdW  Elec       q    Type
REMARK                         _______ _______ _______ _____ _____    ______ ____
ROOT
ATOM      1  O   UNL     1       6.276   4.860  19.354  0.00  0.00    +0.000 OA
ATOM      2  C   UNL     1       5.850   4.257  18.378  0.00  0.00    +0.000 C 
ATOM      3  N   UNL     1       4.948   3.226  18.478  0.00  0.00    +0.000 N 
ATOM      4  H   UNL     1       4.644   2.746  17.629  0.00  0.00    +0.000 HD
ENDROOT
BRANCH   2   5
ATOM      5  C   UNL     1       6.285   4.608  16.987  0.00  0.00    +0.000 A 
ATOM      6  C   UNL     1       5.997   3.733  16.008  0.00  0.00    +0.000 A 
ATOM      7  C   UNL     1       6.357   4.043  14.634  0.00  0.00    +0.000 A 
ATOM      8  C   UNL     1       5.830   3.349  13.543  0.00  0.00    +0.000 A 
ATOM      9  C   UNL     1       6.213   3.700  12.242  0.00  0.00    +0.000 A 
ATOM     10  C   UNL     1       7.154   4.709  12.046  0.00  0.00    +0.000 A 
ATOM     11  C   UNL     1       7.698   5.397  13.122  0.00  0.00    +0.000 A 
ATOM     12  C   UNL     1       7.256   5.079  14.403  0.00  0.00    +0.000 A 
ATOM     13  O   UNL     1       7.677   5.907  15.454  0.00  0.00    +0.000 OA
ATOM     14  C   UNL     1       6.978   5.870  16.657  0.00  0.00    +0.000 A 
ATOM     15  O   UNL     1       7.000   6.827  17.428  0.00  0.00    +0.000 OA
BRANCH  10  16
ATOM     16  O   UNL     1       7.548   5.081  10.795  0.00  0.00    +0.000 OA
ATOM     17  H   UNL     1       6.807   5.522  10.348  0.00  0.00    +0.000 HD
ENDBRANCH  10  16
ENDBRANCH   2   5
BRANCH   3  18
ATOM     18  C   UNL     1       4.407   2.765  19.739  0.00  0.00    +0.000 C 
BRANCH  18  19
ATOM     19  C   UNL     1       3.155   1.906  19.570  0.00  0.00    +0.000 C 
BRANCH  19  20
ATOM     20  C   UNL     1       2.405   2.183  18.264  0.00  0.00    +0.000 C 
BRANCH  20  21
ATOM     21  C   UNL     1       1.195   3.094  18.503  0.00  0.00    +0.000 C 
BRANCH  21  22
ATOM     22  C   UNL     1       1.617   4.487  18.905  0.00  0.00    +0.000 A 
ATOM     23  C   UNL     1       1.450   4.929  20.224  0.00  0.00    +0.000 A 
ATOM     24  C   UNL     1       1.796   6.233  20.583  0.00  0.00    +0.000 A 
ATOM     25  C   UNL     1       2.314   7.106  19.630  0.00  0.00    +0.000 A 
ATOM     26  C   UNL     1       2.495   6.673  18.317  0.00  0.00    +0.000 A 
ATOM     27  C   UNL     1       2.148   5.370  17.955  0.00  0.00    +0.000 A 
ENDBRANCH  21  22
ENDBRANCH  20  21
ENDBRANCH  19  20
ENDBRANCH  18  19
ENDBRANCH   3  18
TORSDOF 7
ENDMDL
MODEL 9
REMARK VINA RESULT:      -7.8      4.931      7.358
REMARK  Name = 
REMARK  7 active torsions:
REMARK  status: ('A' for Active; 'I' for Inactive)
REMARK    1  A    between atoms: C_2  and  C_14
REMARK    2  A    between atoms: N_3  and  C_4
REMARK    3  A    between atoms: C_4  and  C_5
REMARK    4  A    between atoms: C_5  and  C_6
REMARK    5  A    between atoms: C_6  and  C_7
REMARK    6  A    between atoms: C_7  and  C_8
REMARK    7  A    between atoms: C_19  and  O_20
REMARK                            x       y       z     vdW  Elec       q    Type
REMARK                         _______ _______ _______ _____ _____    ______ ____
ROOT
ATOM      1  O   UNL     1       3.797   5.581  19.925  0.00  0.00    +0.000 OA
ATOM      2  C   UNL     1       2.649   5.813  19.569  0.00  0.00    +0.000 C 
ATOM      3  N   UNL     1       1.842   4.858  18.999  0.00  0.00    +0.000 N 
ATOM      4  H   UNL     1       0.899   5.116  18.703  0.00  0.00    +0.000 HD
ENDROOT
BRANCH   2   5
ATOM      5  C   UNL     1       2.034   7.170  19.734  0.00  0.00    +0.000 A 
ATOM      6  C   UNL     1       1.373   7.415  20.878  0.00  0.00    +0.000 A 
ATOM      7  C   UNL     1       0.793   8.728  21.109  0.00  0.00    +0.000 A 
ATOM      8  C   UNL     1       0.370   9.153  22.370  0.00  0.00    +0.000 A 
ATOM      9  C   UNL     1      -0.175  10.433  22.529  0.00  0.00    +0.000 A 
ATOM     10  C   UNL     1      -0.336  11.260  21.418  0.00  0.00    +0.000 A 
ATOM     11  C   UNL     1       0.065  10.844  20.155  0.00  0.00    +0.000 A 
ATOM     12  C   UNL     1       0.665   9.595  20.029  0.00  0.00    +0.000 A 
ATOM     13  O   UNL     1       1.230   9.274  18.785  0.00  0.00    +0.000 OA
ATOM     14  C   UNL     1       2.153   8.235  18.717  0.00  0.00    +0.000 A 
ATOM     15  O   UNL     1       2.979   8.184  17.807  0.00  0.00    +0.000 OA
BRANCH  10  16
ATOM     16  O   UNL     1      -0.860  12.513  21.533  0.00  0.00    +0.000 OA
ATOM     17  H   UNL     1      -0.890  12.924  20.653  0.00  0.00    +0.000 HD
ENDBRANCH  10  16
ENDBRANCH   2   5
BRANCH   3  18
ATOM     18  C   UNL     1       2.264   3.491  18.780  0.00  0.00    +0.000 C 
BRANCH  18  19
ATOM     19  C   UNL     1       2.823   3.258  17.377  0.00  0.00    +0.000 C 
BRANCH  19  20
ATOM     20  C   UNL     1       4.344   3.424  17.300  0.00  0.00    +0.000 C 
BRANCH  20  21
ATOM     21  C   UNL     1       4.725   4.664  16.482  0.00  0.00    +0.000 C 
BRANCH  21  22
ATOM     22  C   UNL     1       5.863   5.424  17.120  0.00  0.00    +0.000 A 
ATOM     23  C   UNL     1       6.693   4.803  18.063  0.00  0.00    +0.000 A 
ATOM     24  C   UNL     1       7.715   5.521  18.687  0.00  0.00    +0.000 A 
ATOM     25  C   UNL     1       7.918   6.863  18.375  0.00  0.00    +0.000 A 
ATOM     26  C   UNL     1       7.105   7.487  17.430  0.00  0.00    +0.000 A 
ATOM     27  C   UNL     1       6.081   6.772  16.806  0.00  0.00    +0.000 A 
ENDBRANCH  21  22
ENDBRANCH  20  21
ENDBRANCH  19  20
ENDBRANCH  18  19
ENDBRANCH   3  18
TORSDOF 7
ENDMDL
