MODEL 1
REMARK VINA RESULT:      -7.3      0.000      0.000
REMARK  Name = 
REMARK  11 active torsions:
REMARK  status: ('A' for Active; 'I' for Inactive)
REMARK    1  A    between atoms: C_1  and  O_2
REMARK    2  A    between atoms: O_2  and  C_3
REMARK    3  A    between atoms: C_3  and  C_4
REMARK    4  A    between atoms: C_4  and  N_5
REMARK    5  A    between atoms: C_7  and  N_8
REMARK    6  A    between atoms: C_11  and  N_12
REMARK    7  A    between atoms: N_12  and  C_13
REMARK    8  A    between atoms: C_13  and  C_14
REMARK    9  A    between atoms: C_18  and  N_19
REMARK   10  A    between atoms: C_20  and  C_22
REMARK   11  A    between atoms: C_22  and  C_23
REMARK                            x       y       z     vdW  Elec       q    Type
REMARK                         _______ _______ _______ _____ _____    ______ ____
ROOT
ATOM      1  N   UNL     1       0.305  10.701  18.952  0.00  0.00    +0.000 N 
ATOM      2  C   UNL     1       1.182   9.614  18.771  0.00  0.00    +0.000 A 
ATOM      3  C   UNL     1       1.363   8.690  19.783  0.00  0.00    +0.000 A 
ATOM      4  C   UNL     1       2.224   7.639  19.563  0.00  0.00    +0.000 A 
ATOM      5  N   UNL     1       2.883   7.509  18.407  0.00  0.00    +0.000 NA
ATOM      6  C   UNL     1       2.646   8.455  17.482  0.00  0.00    +0.000 A 
ATOM      7  N   UNL     1       1.809   9.499  17.595  0.00  0.00    +0.000 NA
ATOM      8  H   UNL     1       0.186  11.189  18.069  0.00  0.00    +0.000 HD
ENDROOT
BRANCH   1  11
ATOM      9  N   UNL     1      -0.819  12.002  22.002  0.00  0.00    +0.000 N 
ATOM     10  C   UNL     1      -1.043  11.200  20.913  0.00  0.00    +0.000 A 
ATOM     11  C   UNL     1       0.058  11.352  20.111  0.00  0.00    +0.000 A 
ATOM     12  C   UNL     1       0.850  12.323  20.760  0.00  0.00    +0.000 A 
ATOM     13  N   UNL     1       0.326  12.705  21.926  0.00  0.00    +0.000 NA
BRANCH   9  14
ATOM     14  C   UNL     1      -1.661  12.149  23.169  0.00  0.00    +0.000 C 
BRANCH  14  15
ATOM     15  C   UNL     1      -3.094  12.514  22.814  0.00  0.00    +0.000 C 
BRANCH  15  17
ATOM     16  C   UNL     1      -4.011  13.761  21.034  0.00  0.00    +0.000 C 
ATOM     17  O   UNL     1      -3.091  13.763  22.117  0.00  0.00    +0.000 OA
ENDBRANCH  15  17
ENDBRANCH  14  15
ENDBRANCH   9  14
ENDBRANCH   1  11
BRANCH   4  18
ATOM     18  N   UNL     1       2.331   6.693  20.583  0.00  0.00    +0.000 N 
ATOM     19  H   UNL     1       3.295   6.391  20.697  0.00  0.00    +0.000 HD
BRANCH  18  20
ATOM     20  C   UNL     1       1.397   5.583  20.560  0.00  0.00    +0.000 C 
BRANCH  20  21
ATOM     21  C   UNL     1       2.111   4.388  19.963  0.00  0.00    +0.000 A 
ATOM     22  C   UNL     1       1.552   3.109  20.038  0.00  0.00    +0.000 A 
ATOM     23  C   UNL     1       2.237   2.017  19.508  0.00  0.00    +0.000 A 
ATOM     24  C   UNL     1       3.476   2.192  18.885  0.00  0.00    +0.000 A 
ATOM     25  C   UNL     1       4.047   3.461  18.781  0.00  0.00    +0.000 A 
ATOM     26  C   UNL     1       3.369   4.548  19.343  0.00  0.00    +0.000 A 
BRANCH  25  27
ATOM     27  N   UNL     1       5.293   3.707  18.160  0.00  0.00    +0.000 N 
ATOM     28  C   UNL     1       6.293   4.547  18.632  0.00  0.00    +0.000 C 
ATOM     29  O   UNL     1       6.292   5.135  19.710  0.00  0.00    +0.000 OA
ATOM     30  H   UNL     1       5.478   3.159  17.329  0.00  0.00    +0.000 HD
BRANCH  28  31
ATOM     31  C   UNL     1       7.467   4.693  17.693  0.00  0.00    +0.000 C 
BRANCH  31  32
ATOM     32  C   UNL     1       7.031   4.478  16.316  0.00  0.00    +0.000 C 
ATOM     33  N   UNL     1       6.668   4.350  15.218  0.00  0.00    +0.000 NA
ENDBRANCH  31  32
ENDBRANCH  28  31
ENDBRANCH  25  27
ENDBRANCH  20  21
ENDBRANCH  18  20
ENDBRANCH   4  18
TORSDOF 10
ENDMDL
MODEL 2
REMARK VINA RESULT:      -7.2      3.264     10.636
REMARK  Name = 
REMARK  11 active torsions:
REMARK  status: ('A' for Active; 'I' for Inactive)
REMARK    1  A    between atoms: C_1  and  O_2
REMARK    2  A    between atoms: O_2  and  C_3
REMARK    3  A    between atoms: C_3  and  C_4
REMARK    4  A    between atoms: C_4  and  N_5
REMARK    5  A    between atoms: C_7  and  N_8
REMARK    6  A    between atoms: C_11  and  N_12
REMARK    7  A    between atoms: N_12  and  C_13
REMARK    8  A    between atoms: C_13  and  C_14
REMARK    9  A    between atoms: C_18  and  N_19
REMARK   10  A    between atoms: C_20  and  C_22
REMARK   11  A    between atoms: C_22  and  C_23
REMARK                            x       y       z     vdW  Elec       q    Type
REMARK                         _______ _______ _______ _____ _____    ______ ____
ROOT
ATOM      1  N   UNL     1       5.031   3.656  17.433  0.00  0.00    +0.000 N 
ATOM      2  C   UNL     1       4.161   4.458  18.196  0.00  0.00    +0.000 A 
ATOM      3  C   UNL     1       3.571   5.574  17.634  0.00  0.00    +0.000 A 
ATOM      4  C   UNL     1       2.722   6.328  18.413  0.00  0.00    +0.000 A 
ATOM      5  N   UNL     1       2.473   6.004  19.686  0.00  0.00    +0.000 NA
ATOM      6  C   UNL     1       3.092   4.904  20.148  0.00  0.00    +0.000 A 
ATOM      7  N   UNL     1       3.914   4.095  19.460  0.00  0.00    +0.000 NA
ATOM      8  H   UNL     1       5.253   2.811  17.952  0.00  0.00    +0.000 HD
ENDROOT
BRANCH   1  11
ATOM      9  N   UNL     1       6.780   4.490  14.517  0.00  0.00    +0.000 N 
ATOM     10  C   UNL     1       5.767   3.790  15.120  0.00  0.00    +0.000 A 
ATOM     11  C   UNL     1       5.865   4.077  16.456  0.00  0.00    +0.000 A 
ATOM     12  C   UNL     1       7.014   4.889  16.571  0.00  0.00    +0.000 A 
ATOM     13  N   UNL     1       7.560   5.161  15.385  0.00  0.00    +0.000 NA
BRANCH   9  14
ATOM     14  C   UNL     1       7.068   4.570  13.101  0.00  0.00    +0.000 C 
BRANCH  14  15
ATOM     15  C   UNL     1       6.158   3.680  12.269  0.00  0.00    +0.000 C 
BRANCH  15  17
ATOM     16  C   UNL     1       6.082   1.537  11.286  0.00  0.00    +0.000 C 
ATOM     17  O   UNL     1       6.921   2.576  11.775  0.00  0.00    +0.000 OA
ENDBRANCH  15  17
ENDBRANCH  14  15
ENDBRANCH   9  14
ENDBRANCH   1  11
BRANCH   4  18
ATOM     18  N   UNL     1       2.096   7.409  17.791  0.00  0.00    +0.000 N 
ATOM     19  H   UNL     1       1.710   7.136  16.891  0.00  0.00    +0.000 HD
BRANCH  18  20
ATOM     20  C   UNL     1       2.833   8.657  17.727  0.00  0.00    +0.000 C 
BRANCH  20  21
ATOM     21  C   UNL     1       1.869   9.781  18.044  0.00  0.00    +0.000 A 
ATOM     22  C   UNL     1       2.337  11.070  18.318  0.00  0.00    +0.000 A 
ATOM     23  C   UNL     1       1.438  12.086  18.635  0.00  0.00    +0.000 A 
ATOM     24  C   UNL     1       0.063  11.831  18.665  0.00  0.00    +0.000 A 
ATOM     25  C   UNL     1      -0.430  10.559  18.378  0.00  0.00    +0.000 A 
ATOM     26  C   UNL     1       0.480   9.535  18.091  0.00  0.00    +0.000 A 
BRANCH  25  27
ATOM     27  N   UNL     1      -1.807  10.236  18.385  0.00  0.00    +0.000 N 
ATOM     28  C   UNL     1      -2.703  10.438  17.345  0.00  0.00    +0.000 C 
ATOM     29  O   UNL     1      -2.423  10.843  16.219  0.00  0.00    +0.000 OA
ATOM     30  H   UNL     1      -2.134   9.752  19.213  0.00  0.00    +0.000 HD
BRANCH  28  31
ATOM     31  C   UNL     1      -4.133  10.095  17.688  0.00  0.00    +0.000 C 
BRANCH  31  32
ATOM     32  C   UNL     1      -4.995  11.243  17.427  0.00  0.00    +0.000 C 
ATOM     33  N   UNL     1      -5.646  12.187  17.227  0.00  0.00    +0.000 NA
ENDBRANCH  31  32
ENDBRANCH  28  31
ENDBRANCH  25  27
ENDBRANCH  20  21
ENDBRANCH  18  20
ENDBRANCH   4  18
TORSDOF 10
ENDMDL
MODEL 3
REMARK VINA RESULT:      -7.2      1.905      9.330
REMARK  Name = 
REMARK  11 active torsions:
REMARK  status: ('A' for Active; 'I' for Inactive)
REMARK    1  A    between atoms: C_1  and  O_2
REMARK    2  A    between atoms: O_2  and  C_3
REMARK    3  A    between atoms: C_3  and  C_4
REMARK    4  A    between atoms: C_4  and  N_5
REMARK    5  A    between atoms: C_7  and  N_8
REMARK    6  A    between atoms: C_11  and  N_12
REMARK    7  A    between atoms: N_12  and  C_13
REMARK    8  A    between atoms: C_13  and  C_14
REMARK    9  A    between atoms: C_18  and  N_19
REMARK   10  A    between atoms: C_20  and  C_22
REMARK   11  A    between atoms: C_22  and  C_23
REMARK                            x       y       z     vdW  Elec       q    Type
REMARK                         _______ _______ _______ _____ _____    ______ ____
ROOT
ATOM      1  N   UNL     1       3.195   3.347  16.811  0.00  0.00    +0.000 N 
ATOM      2  C   UNL     1       2.343   3.449  17.928  0.00  0.00    +0.000 A 
ATOM      3  C   UNL     1       2.362   4.585  18.716  0.00  0.00    +0.000 A 
ATOM      4  C   UNL     1       1.509   4.647  19.795  0.00  0.00    +0.000 A 
ATOM      5  N   UNL     1       0.684   3.637  20.089  0.00  0.00    +0.000 NA
ATOM      6  C   UNL     1       0.736   2.573  19.269  0.00  0.00    +0.000 A 
ATOM      7  N   UNL     1       1.514   2.431  18.184  0.00  0.00    +0.000 NA
ATOM      8  H   UNL     1       2.948   2.522  16.273  0.00  0.00    +0.000 HD
ENDROOT
BRANCH   1  11
ATOM      9  N   UNL     1       6.465   4.561  17.108  0.00  0.00    +0.000 N 
ATOM     10  C   UNL     1       5.327   4.092  17.712  0.00  0.00    +0.000 A 
ATOM     11  C   UNL     1       4.435   3.872  16.694  0.00  0.00    +0.000 A 
ATOM     12  C   UNL     1       5.096   4.313  15.528  0.00  0.00    +0.000 A 
ATOM     13  N   UNL     1       6.345   4.713  15.776  0.00  0.00    +0.000 NA
BRANCH   9  14
ATOM     14  C   UNL     1       7.723   4.887  17.745  0.00  0.00    +0.000 C 
BRANCH  14  15
ATOM     15  C   UNL     1       7.539   5.670  19.035  0.00  0.00    +0.000 C 
BRANCH  15  17
ATOM     16  C   UNL     1       7.707   7.541  17.609  0.00  0.00    +0.000 C 
ATOM     17  O   UNL     1       8.084   6.981  18.859  0.00  0.00    +0.000 OA
ENDBRANCH  15  17
ENDBRANCH  14  15
ENDBRANCH   9  14
ENDBRANCH   1  11
BRANCH   4  18
ATOM     18  N   UNL     1       1.510   5.835  20.527  0.00  0.00    +0.000 N 
ATOM     19  H   UNL     1       0.598   6.283  20.492  0.00  0.00    +0.000 HD
BRANCH  18  20
ATOM     20  C   UNL     1       2.599   6.762  20.286  0.00  0.00    +0.000 C 
BRANCH  20  21
ATOM     21  C   UNL     1       2.015   8.006  19.648  0.00  0.00    +0.000 A 
ATOM     22  C   UNL     1       2.343   8.359  18.336  0.00  0.00    +0.000 A 
ATOM     23  C   UNL     1       1.818   9.523  17.776  0.00  0.00    +0.000 A 
ATOM     24  C   UNL     1       0.950  10.334  18.512  0.00  0.00    +0.000 A 
ATOM     25  C   UNL     1       0.594   9.995  19.817  0.00  0.00    +0.000 A 
ATOM     26  C   UNL     1       1.149   8.842  20.384  0.00  0.00    +0.000 A 
BRANCH  25  27
ATOM     27  N   UNL     1      -0.282  10.768  20.613  0.00  0.00    +0.000 N 
ATOM     28  C   UNL     1      -1.429  11.418  20.177  0.00  0.00    +0.000 C 
ATOM     29  O   UNL     1      -1.916  11.346  19.052  0.00  0.00    +0.000 OA
ATOM     30  H   UNL     1      -0.069  10.782  21.603  0.00  0.00    +0.000 HD
BRANCH  28  31
ATOM     31  C   UNL     1      -2.099  12.260  21.237  0.00  0.00    +0.000 C 
BRANCH  31  32
ATOM     32  C   UNL     1      -1.110  12.712  22.211  0.00  0.00    +0.000 C 
ATOM     33  N   UNL     1      -0.351  13.059  23.021  0.00  0.00    +0.000 NA
ENDBRANCH  31  32
ENDBRANCH  28  31
ENDBRANCH  25  27
ENDBRANCH  20  21
ENDBRANCH  18  20
ENDBRANCH   4  18
TORSDOF 10
ENDMDL
MODEL 4
REMARK VINA RESULT:      -7.2      3.291      4.229
REMARK  Name = 
REMARK  11 active torsions:
REMARK  status: ('A' for Active; 'I' for Inactive)
REMARK    1  A    between atoms: C_1  and  O_2
REMARK    2  A    between atoms: O_2  and  C_3
REMARK    3  A    between atoms: C_3  and  C_4
REMARK    4  A    between atoms: C_4  and  N_5
REMARK    5  A    between atoms: C_7  and  N_8
REMARK    6  A    between atoms: C_11  and  N_12
REMARK    7  A    between atoms: N_12  and  C_13
REMARK    8  A    between atoms: C_13  and  C_14
REMARK    9  A    between atoms: C_18  and  N_19
REMARK   10  A    between atoms: C_20  and  C_22
REMARK   11  A    between atoms: C_22  and  C_23
REMARK                            x       y       z     vdW  Elec       q    Type
REMARK                         _______ _______ _______ _____ _____    ______ ____
ROOT
ATOM      1  N   UNL     1      -0.930  11.432  19.909  0.00  0.00    +0.000 N 
ATOM      2  C   UNL     1      -0.155  10.529  20.660  0.00  0.00    +0.000 A 
ATOM      3  C   UNL     1       0.401   9.417  20.055  0.00  0.00    +0.000 A 
ATOM      4  C   UNL     1       1.157   8.562  20.825  0.00  0.00    +0.000 A 
ATOM      5  N   UNL     1       1.350   8.785  22.129  0.00  0.00    +0.000 NA
ATOM      6  C   UNL     1       0.771   9.889  22.632  0.00  0.00    +0.000 A 
ATOM      7  N   UNL     1       0.039  10.791  21.958  0.00  0.00    +0.000 NA
ATOM      8  H   UNL     1      -1.133  12.253  20.473  0.00  0.00    +0.000 HD
ENDROOT
BRANCH   1  11
ATOM      9  N   UNL     1      -2.520  10.309  17.000  0.00  0.00    +0.000 N 
ATOM     10  C   UNL     1      -1.372  10.432  17.738  0.00  0.00    +0.000 A 
ATOM     11  C   UNL     1      -1.729  11.130  18.862  0.00  0.00    +0.000 A 
ATOM     12  C   UNL     1      -3.090  11.453  18.672  0.00  0.00    +0.000 A 
ATOM     13  N   UNL     1      -3.580  10.933  17.546  0.00  0.00    +0.000 NA
BRANCH   9  14
ATOM     14  C   UNL     1      -2.686   9.600  15.749  0.00  0.00    +0.000 C 
BRANCH  14  15
ATOM     15  C   UNL     1      -3.256  10.482  14.649  0.00  0.00    +0.000 C 
BRANCH  15  17
ATOM     16  C   UNL     1      -4.219   9.874  12.584  0.00  0.00    +0.000 C 
ATOM     17  O   UNL     1      -3.048   9.837  13.389  0.00  0.00    +0.000 OA
ENDBRANCH  15  17
ENDBRANCH  14  15
ENDBRANCH   9  14
ENDBRANCH   1  11
BRANCH   4  18
ATOM     18  N   UNL     1       1.754   7.488  20.165  0.00  0.00    +0.000 N 
ATOM     19  H   UNL     1       1.362   7.371  19.234  0.00  0.00    +0.000 HD
BRANCH  18  20
ATOM     20  C   UNL     1       1.854   6.235  20.889  0.00  0.00    +0.000 C 
BRANCH  20  21
ATOM     21  C   UNL     1       2.182   5.146  19.890  0.00  0.00    +0.000 A 
ATOM     22  C   UNL     1       1.213   4.217  19.499  0.00  0.00    +0.000 A 
ATOM     23  C   UNL     1       1.541   3.205  18.599  0.00  0.00    +0.000 A 
ATOM     24  C   UNL     1       2.831   3.119  18.068  0.00  0.00    +0.000 A 
ATOM     25  C   UNL     1       3.811   4.044  18.428  0.00  0.00    +0.000 A 
ATOM     26  C   UNL     1       3.484   5.039  19.356  0.00  0.00    +0.000 A 
BRANCH  25  27
ATOM     27  N   UNL     1       5.132   4.017  17.925  0.00  0.00    +0.000 N 
ATOM     28  C   UNL     1       5.646   4.829  16.923  0.00  0.00    +0.000 C 
ATOM     29  O   UNL     1       5.061   5.763  16.381  0.00  0.00    +0.000 OA
ATOM     30  H   UNL     1       5.764   3.383  18.399  0.00  0.00    +0.000 HD
BRANCH  28  31
ATOM     31  C   UNL     1       7.062   4.491  16.522  0.00  0.00    +0.000 C 
BRANCH  31  32
ATOM     32  C   UNL     1       7.305   4.925  15.149  0.00  0.00    +0.000 C 
ATOM     33  N   UNL     1       7.541   5.250  14.058  0.00  0.00    +0.000 NA
ENDBRANCH  31  32
ENDBRANCH  28  31
ENDBRANCH  25  27
ENDBRANCH  20  21
ENDBRANCH  18  20
ENDBRANCH   4  18
TORSDOF 10
ENDMDL
MODEL 5
REMARK VINA RESULT:      -7.2      2.320     10.369
REMARK  Name = 
REMARK  11 active torsions:
REMARK  status: ('A' for Active; 'I' for Inactive)
REMARK    1  A    between atoms: C_1  and  O_2
REMARK    2  A    between atoms: O_2  and  C_3
REMARK    3  A    between atoms: C_3  and  C_4
REMARK    4  A    between atoms: C_4  and  N_5
REMARK    5  A    between atoms: C_7  and  N_8
REMARK    6  A    between atoms: C_11  and  N_12
REMARK    7  A    between atoms: N_12  and  C_13
REMARK    8  A    between atoms: C_13  and  C_14
REMARK    9  A    between atoms: C_18  and  N_19
REMARK   10  A    between atoms: C_20  and  C_22
REMARK   11  A    between atoms: C_22  and  C_23
REMARK                            x       y       z     vdW  Elec       q    Type
REMARK                         _______ _______ _______ _____ _____    ______ ____
ROOT
ATOM      1  N   UNL     1       3.340   3.596  17.506  0.00  0.00    +0.000 N 
ATOM      2  C   UNL     1       2.618   4.145  18.583  0.00  0.00    +0.000 A 
ATOM      3  C   UNL     1       2.791   5.470  18.934  0.00  0.00    +0.000 A 
ATOM      4  C   UNL     1       2.062   5.969  19.990  0.00  0.00    +0.000 A 
ATOM      5  N   UNL     1       1.211   5.197  20.675  0.00  0.00    +0.000 NA
ATOM      6  C   UNL     1       1.110   3.921  20.265  0.00  0.00    +0.000 A 
ATOM      7  N   UNL     1       1.758   3.353  19.235  0.00  0.00    +0.000 NA
ATOM      8  H   UNL     1       2.986   2.666  17.301  0.00  0.00    +0.000 HD
ENDROOT
BRANCH   1  11
ATOM      9  N   UNL     1       6.351   4.437  15.932  0.00  0.00    +0.000 N 
ATOM     10  C   UNL     1       5.064   3.976  15.835  0.00  0.00    +0.000 A 
ATOM     11  C   UNL     1       4.591   3.932  17.120  0.00  0.00    +0.000 A 
ATOM     12  C   UNL     1       5.688   4.306  17.925  0.00  0.00    +0.000 A 
ATOM     13  N   UNL     1       6.757   4.637  17.199  0.00  0.00    +0.000 NA
BRANCH   9  14
ATOM     14  C   UNL     1       7.265   4.719  14.845  0.00  0.00    +0.000 C 
BRANCH  14  15
ATOM     15  C   UNL     1       6.559   4.829  13.503  0.00  0.00    +0.000 C 
BRANCH  15  17
ATOM     16  C   UNL     1       5.604   3.168  12.127  0.00  0.00    +0.000 C 
ATOM     17  O   UNL     1       6.791   3.628  12.761  0.00  0.00    +0.000 OA
ENDBRANCH  15  17
ENDBRANCH  14  15
ENDBRANCH   9  14
ENDBRANCH   1  11
BRANCH   4  18
ATOM     18  N   UNL     1       2.215   7.326  20.272  0.00  0.00    +0.000 N 
ATOM     19  H   UNL     1       3.192   7.554  20.438  0.00  0.00    +0.000 HD
BRANCH  18  20
ATOM     20  C   UNL     1       1.330   7.903  21.265  0.00  0.00    +0.000 C 
BRANCH  20  21
ATOM     21  C   UNL     1       0.758   9.182  20.690  0.00  0.00    +0.000 A 
ATOM     22  C   UNL     1       0.987   9.533  19.356  0.00  0.00    +0.000 A 
ATOM     23  C   UNL     1       0.476  10.728  18.852  0.00  0.00    +0.000 A 
ATOM     24  C   UNL     1      -0.281  11.574  19.667  0.00  0.00    +0.000 A 
ATOM     25  C   UNL     1      -0.540  11.238  20.996  0.00  0.00    +0.000 A 
ATOM     26  C   UNL     1       0.003  10.053  21.505  0.00  0.00    +0.000 A 
BRANCH  25  27
ATOM     27  N   UNL     1      -1.302  12.046  21.871  0.00  0.00    +0.000 N 
ATOM     28  C   UNL     1      -0.847  13.160  22.563  0.00  0.00    +0.000 C 
ATOM     29  O   UNL     1       0.262  13.677  22.451  0.00  0.00    +0.000 OA
ATOM     30  H   UNL     1      -2.284  11.810  21.933  0.00  0.00    +0.000 HD
BRANCH  28  31
ATOM     31  C   UNL     1      -1.863  13.754  23.510  0.00  0.00    +0.000 C 
BRANCH  31  32
ATOM     32  C   UNL     1      -3.007  12.855  23.637  0.00  0.00    +0.000 C 
ATOM     33  N   UNL     1      -3.908  12.135  23.784  0.00  0.00    +0.000 NA
ENDBRANCH  31  32
ENDBRANCH  28  31
ENDBRANCH  25  27
ENDBRANCH  20  21
ENDBRANCH  18  20
ENDBRANCH   4  18
TORSDOF 10
ENDMDL
MODEL 6
REMARK VINA RESULT:      -7.1      3.006      5.450
REMARK  Name = 
REMARK  11 active torsions:
REMARK  status: ('A' for Active; 'I' for Inactive)
REMARK    1  A    between atoms: C_1  and  O_2
REMARK    2  A    between atoms: O_2  and  C_3
REMARK    3  A    between atoms: C_3  and  C_4
REMARK    4  A    between atoms: C_4  and  N_5
REMARK    5  A    between atoms: C_7  and  N_8
REMARK    6  A    between atoms: C_11  and  N_12
REMARK    7  A    between atoms: N_12  and  C_13
REMARK    8  A    between atoms: C_13  and  C_14
REMARK    9  A    between atoms: C_18  and  N_19
REMARK   10  A    between atoms: C_20  and  C_22
REMARK   11  A    between atoms: C_22  and  C_23
REMARK                            x       y       z     vdW  Elec       q    Type
REMARK                         _______ _______ _______ _____ _____    ______ ____
ROOT
ATOM      1  N   UNL     1       1.869   6.247  21.009  0.00  0.00    +0.000 N 
ATOM      2  C   UNL     1       2.399   4.954  20.833  0.00  0.00    +0.000 A 
ATOM      3  C   UNL     1       3.477   4.752  19.992  0.00  0.00    +0.000 A 
ATOM      4  C   UNL     1       3.968   3.473  19.853  0.00  0.00    +0.000 A 
ATOM      5  N   UNL     1       3.419   2.442  20.502  0.00  0.00    +0.000 NA
ATOM      6  C   UNL     1       2.373   2.732  21.296  0.00  0.00    +0.000 A 
ATOM      7  N   UNL     1       1.841   3.946  21.513  0.00  0.00    +0.000 NA
ATOM      8  H   UNL     1       1.186   6.232  21.760  0.00  0.00    +0.000 HD
ENDROOT
BRANCH   1  11
ATOM      9  N   UNL     1       1.476   9.127  19.058  0.00  0.00    +0.000 N 
ATOM     10  C   UNL     1       1.199   8.444  20.214  0.00  0.00    +0.000 A 
ATOM     11  C   UNL     1       1.818   7.229  20.082  0.00  0.00    +0.000 A 
ATOM     12  C   UNL     1       2.373   7.242  18.784  0.00  0.00    +0.000 A 
ATOM     13  N   UNL     1       2.184   8.409  18.166  0.00  0.00    +0.000 NA
BRANCH   9  14
ATOM     14  C   UNL     1       1.098  10.485  18.731  0.00  0.00    +0.000 C 
BRANCH  14  15
ATOM     15  C   UNL     1       2.286  11.335  18.307  0.00  0.00    +0.000 C 
BRANCH  15  17
ATOM     16  C   UNL     1       0.632  12.973  18.686  0.00  0.00    +0.000 C 
ATOM     17  O   UNL     1       1.818  12.646  17.976  0.00  0.00    +0.000 OA
ENDBRANCH  15  17
ENDBRANCH  14  15
ENDBRANCH   9  14
ENDBRANCH   1  11
BRANCH   4  18
ATOM     18  N   UNL     1       5.097   3.320  19.047  0.00  0.00    +0.000 N 
ATOM     19  H   UNL     1       5.589   2.459  19.272  0.00  0.00    +0.000 HD
BRANCH  18  20
ATOM     20  C   UNL     1       5.988   4.458  18.929  0.00  0.00    +0.000 C 
BRANCH  20  21
ATOM     21  C   UNL     1       5.750   5.095  17.576  0.00  0.00    +0.000 A 
ATOM     22  C   UNL     1       5.465   6.459  17.466  0.00  0.00    +0.000 A 
ATOM     23  C   UNL     1       5.221   7.023  16.215  0.00  0.00    +0.000 A 
ATOM     24  C   UNL     1       5.275   6.236  15.061  0.00  0.00    +0.000 A 
ATOM     25  C   UNL     1       5.575   4.876  15.141  0.00  0.00    +0.000 A 
ATOM     26  C   UNL     1       5.788   4.310  16.404  0.00  0.00    +0.000 A 
BRANCH  25  27
ATOM     27  N   UNL     1       5.651   4.025  14.014  0.00  0.00    +0.000 N 
ATOM     28  C   UNL     1       6.614   4.071  13.016  0.00  0.00    +0.000 C 
ATOM     29  O   UNL     1       7.607   4.794  13.003  0.00  0.00    +0.000 OA
ATOM     30  H   UNL     1       4.966   3.280  13.987  0.00  0.00    +0.000 HD
BRANCH  28  31
ATOM     31  C   UNL     1       6.369   3.106  11.880  0.00  0.00    +0.000 C 
BRANCH  31  32
ATOM     32  C   UNL     1       4.950   3.093  11.537  0.00  0.00    +0.000 C 
ATOM     33  N   UNL     1       3.831   3.096  11.220  0.00  0.00    +0.000 NA
ENDBRANCH  31  32
ENDBRANCH  28  31
ENDBRANCH  25  27
ENDBRANCH  20  21
ENDBRANCH  18  20
ENDBRANCH   4  18
TORSDOF 10
ENDMDL
MODEL 7
REMARK VINA RESULT:      -7.1      2.448      9.108
REMARK  Name = 
REMARK  11 active torsions:
REMARK  status: ('A' for Active; 'I' for Inactive)
REMARK    1  A    between atoms: C_1  and  O_2
REMARK    2  A    between atoms: O_2  and  C_3
REMARK    3  A    between atoms: C_3  and  C_4
REMARK    4  A    between atoms: C_4  and  N_5
REMARK    5  A    between atoms: C_7  and  N_8
REMARK    6  A    between atoms: C_11  and  N_12
REMARK    7  A    between atoms: N_12  and  C_13
REMARK    8  A    between atoms: C_13  and  C_14
REMARK    9  A    between atoms: C_18  and  N_19
REMARK   10  A    between atoms: C_20  and  C_22
REMARK   11  A    between atoms: C_22  and  C_23
REMARK                            x       y       z     vdW  Elec       q    Type
REMARK                         _______ _______ _______ _____ _____    ______ ____
ROOT
ATOM      1  N   UNL     1       5.105   3.770  17.114  0.00  0.00    +0.000 N 
ATOM      2  C   UNL     1       4.046   3.466  17.990  0.00  0.00    +0.000 A 
ATOM      3  C   UNL     1       3.271   4.478  18.524  0.00  0.00    +0.000 A 
ATOM      4  C   UNL     1       2.242   4.137  19.373  0.00  0.00    +0.000 A 
ATOM      5  N   UNL     1       1.993   2.861  19.688  0.00  0.00    +0.000 NA
ATOM      6  C   UNL     1       2.799   1.945  19.124  0.00  0.00    +0.000 A 
ATOM      7  N   UNL     1       3.808   2.178  18.269  0.00  0.00    +0.000 NA
ATOM      8  H   UNL     1       5.467   2.911  16.711  0.00  0.00    +0.000 HD
ENDROOT
BRANCH   1  11
ATOM      9  N   UNL     1       7.256   6.448  17.790  0.00  0.00    +0.000 N 
ATOM     10  C   UNL     1       6.526   5.382  18.249  0.00  0.00    +0.000 A 
ATOM     11  C   UNL     1       5.889   4.871  17.149  0.00  0.00    +0.000 A 
ATOM     12  C   UNL     1       6.230   5.741  16.093  0.00  0.00    +0.000 A 
ATOM     13  N   UNL     1       7.083   6.692  16.477  0.00  0.00    +0.000 NA
BRANCH   9  14
ATOM     14  C   UNL     1       8.153   7.289  18.552  0.00  0.00    +0.000 C 
BRANCH  14  15
ATOM     15  C   UNL     1       8.220   8.710  18.012  0.00  0.00    +0.000 C 
BRANCH  15  17
ATOM     16  C   UNL     1       9.058  10.861  18.494  0.00  0.00    +0.000 C 
ATOM     17  O   UNL     1       9.041   9.494  18.883  0.00  0.00    +0.000 OA
ENDBRANCH  15  17
ENDBRANCH  14  15
ENDBRANCH   9  14
ENDBRANCH   1  11
BRANCH   4  18
ATOM     18  N   UNL     1       1.443   5.181  19.840  0.00  0.00    +0.000 N 
ATOM     19  H   UNL     1       0.749   5.444  19.145  0.00  0.00    +0.000 HD
BRANCH  18  20
ATOM     20  C   UNL     1       2.118   6.327  20.418  0.00  0.00    +0.000 C 
BRANCH  20  21
ATOM     21  C   UNL     1       1.685   7.557  19.647  0.00  0.00    +0.000 A 
ATOM     22  C   UNL     1       2.197   7.822  18.374  0.00  0.00    +0.000 A 
ATOM     23  C   UNL     1       1.808   8.973  17.692  0.00  0.00    +0.000 A 
ATOM     24  C   UNL     1       0.893   9.861  18.265  0.00  0.00    +0.000 A 
ATOM     25  C   UNL     1       0.354   9.610  19.527  0.00  0.00    +0.000 A 
ATOM     26  C   UNL     1       0.772   8.469  20.220  0.00  0.00    +0.000 A 
BRANCH  25  27
ATOM     27  N   UNL     1      -0.579  10.464  20.161  0.00  0.00    +0.000 N 
ATOM     28  C   UNL     1      -0.351  11.228  21.297  0.00  0.00    +0.000 C 
ATOM     29  O   UNL     1       0.725  11.357  21.877  0.00  0.00    +0.000 OA
ATOM     30  H   UNL     1      -1.468  10.562  19.687  0.00  0.00    +0.000 HD
BRANCH  28  31
ATOM     31  C   UNL     1      -1.573  11.955  21.805  0.00  0.00    +0.000 C 
BRANCH  31  32
ATOM     32  C   UNL     1      -1.184  12.934  22.815  0.00  0.00    +0.000 C 
ATOM     33  N   UNL     1      -0.841  13.684  23.635  0.00  0.00    +0.000 NA
ENDBRANCH  31  32
ENDBRANCH  28  31
ENDBRANCH  25  27
ENDBRANCH  20  21
ENDBRANCH  18  20
ENDBRANCH   4  18
TORSDOF 10
ENDMDL
MODEL 8
REMARK VINA RESULT:      -7.1      1.404      1.594
REMARK  Name = 
REMARK  11 active torsions:
REMARK  status: ('A' for Active; 'I' for Inactive)
REMARK    1  A    between atoms: C_1  and  O_2
REMARK    2  A    between atoms: O_2  and  C_3
REMARK    3  A    between atoms: C_3  and  C_4
REMARK    4  A    between atoms: C_4  and  N_5
REMARK    5  A    between atoms: C_7  and  N_8
REMARK    6  A    between atoms: C_11  and  N_12
REMARK    7  A    between atoms: N_12  and  C_13
REMARK    8  A    between atoms: C_13  and  C_14
REMARK    9  A    between atoms: C_18  and  N_19
REMARK   10  A    between atoms: C_20  and  C_22
REMARK   11  A    between atoms: C_22  and  C_23
REMARK                            x       y       z     vdW  Elec       q    Type
REMARK                         _______ _______ _______ _____ _____    ______ ____
ROOT
ATOM      1  N   UNL     1      -0.402  11.043  19.231  0.00  0.00    +0.000 N 
ATOM      2  C   UNL     1       0.536  10.015  19.015  0.00  0.00    +0.000 A 
ATOM      3  C   UNL     1       0.889   9.166  20.048  0.00  0.00    +0.000 A 
ATOM      4  C   UNL     1       1.805   8.171  19.793  0.00  0.00    +0.000 A 
ATOM      5  N   UNL     1       2.355   8.024  18.583  0.00  0.00    +0.000 NA
ATOM      6  C   UNL     1       1.954   8.895  17.641  0.00  0.00    +0.000 A 
ATOM      7  N   UNL     1       1.052   9.879  17.788  0.00  0.00    +0.000 NA
ATOM      8  H   UNL     1      -0.646  11.469  18.342  0.00  0.00    +0.000 HD
ENDROOT
BRANCH   1  11
ATOM      9  N   UNL     1      -1.480  12.746  22.093  0.00  0.00    +0.000 N 
ATOM     10  C   UNL     1      -1.784  12.150  20.897  0.00  0.00    +0.000 A 
ATOM     11  C   UNL     1      -0.585  11.738  20.376  0.00  0.00    +0.000 A 
ATOM     12  C   UNL     1       0.387  12.202  21.287  0.00  0.00    +0.000 A 
ATOM     13  N   UNL     1      -0.159  12.799  22.348  0.00  0.00    +0.000 NA
BRANCH   9  14
ATOM     14  C   UNL     1      -2.407  13.293  23.060  0.00  0.00    +0.000 C 
BRANCH  14  15
ATOM     15  C   UNL     1      -3.285  12.227  23.695  0.00  0.00    +0.000 C 
BRANCH  15  17
ATOM     16  C   UNL     1      -5.532  12.838  24.072  0.00  0.00    +0.000 C 
ATOM     17  O   UNL     1      -4.598  12.318  23.135  0.00  0.00    +0.000 OA
ENDBRANCH  15  17
ENDBRANCH  14  15
ENDBRANCH   9  14
ENDBRANCH   1  11
BRANCH   4  18
ATOM     18  N   UNL     1       2.086   7.295  20.841  0.00  0.00    +0.000 N 
ATOM     19  H   UNL     1       3.075   7.060  20.862  0.00  0.00    +0.000 HD
BRANCH  18  20
ATOM     20  C   UNL     1       1.233   6.131  20.982  0.00  0.00    +0.000 C 
BRANCH  20  21
ATOM     21  C   UNL     1       1.862   4.997  20.201  0.00  0.00    +0.000 A 
ATOM     22  C   UNL     1       1.143   3.830  19.927  0.00  0.00    +0.000 A 
ATOM     23  C   UNL     1       1.747   2.785  19.231  0.00  0.00    +0.000 A 
ATOM     24  C   UNL     1       3.068   2.901  18.787  0.00  0.00    +0.000 A 
ATOM     25  C   UNL     1       3.801   4.062  19.031  0.00  0.00    +0.000 A 
ATOM     26  C   UNL     1       3.198   5.094  19.758  0.00  0.00    +0.000 A 
BRANCH  25  27
ATOM     27  N   UNL     1       5.137   4.245  18.605  0.00  0.00    +0.000 N 
ATOM     28  C   UNL     1       5.562   4.448  17.300  0.00  0.00    +0.000 C 
ATOM     29  O   UNL     1       4.836   4.595  16.319  0.00  0.00    +0.000 OA
ATOM     30  H   UNL     1       5.825   4.294  19.347  0.00  0.00    +0.000 HD
BRANCH  28  31
ATOM     31  C   UNL     1       7.063   4.499  17.141  0.00  0.00    +0.000 C 
BRANCH  31  32
ATOM     32  C   UNL     1       7.675   4.993  18.371  0.00  0.00    +0.000 C 
ATOM     33  N   UNL     1       8.198   5.402  19.326  0.00  0.00    +0.000 NA
ENDBRANCH  31  32
ENDBRANCH  28  31
ENDBRANCH  25  27
ENDBRANCH  20  21
ENDBRANCH  18  20
ENDBRANCH   4  18
TORSDOF 10
ENDMDL
MODEL 9
REMARK VINA RESULT:      -7.1      2.897      3.792
REMARK  Name = 
REMARK  11 active torsions:
REMARK  status: ('A' for Active; 'I' for Inactive)
REMARK    1  A    between atoms: C_1  and  O_2
REMARK    2  A    between atoms: O_2  and  C_3
REMARK    3  A    between atoms: C_3  and  C_4
REMARK    4  A    between atoms: C_4  and  N_5
REMARK    5  A    between atoms: C_7  and  N_8
REMARK    6  A    between atoms: C_11  and  N_12
REMARK    7  A    between atoms: N_12  and  C_13
REMARK    8  A    between atoms: C_13  and  C_14
REMARK    9  A    between atoms: C_18  and  N_19
REMARK   10  A    between atoms: C_20  and  C_22
REMARK   11  A    between atoms: C_22  and  C_23
REMARK                            x       y       z     vdW  Elec       q    Type
REMARK                         _______ _______ _______ _____ _____    ______ ____
ROOT
ATOM      1  N   UNL     1      -1.168  12.040  17.841  0.00  0.00    +0.000 N 
ATOM      2  C   UNL     1      -0.328  11.585  18.875  0.00  0.00    +0.000 A 
ATOM      3  C   UNL     1      -0.347  10.256  19.254  0.00  0.00    +0.000 A 
ATOM      4  C   UNL     1       0.494   9.851  20.266  0.00  0.00    +0.000 A 
ATOM      5  N   UNL     1       1.308  10.714  20.882  0.00  0.00    +0.000 NA
ATOM      6  C   UNL     1       1.258  11.986  20.448  0.00  0.00    +0.000 A 
ATOM      7  N   UNL     1       0.492  12.468  19.457  0.00  0.00    +0.000 NA
ATOM      8  H   UNL     1      -0.920  12.995  17.600  0.00  0.00    +0.000 HD
ENDROOT
BRANCH   1  11
ATOM      9  N   UNL     1      -4.523  11.066  17.630  0.00  0.00    +0.000 N 
ATOM     10  C   UNL     1      -3.483  11.541  18.386  0.00  0.00    +0.000 A 
ATOM     11  C   UNL     1      -2.403  11.578  17.544  0.00  0.00    +0.000 A 
ATOM     12  C   UNL     1      -2.868  11.031  16.330  0.00  0.00    +0.000 A 
ATOM     13  N   UNL     1      -4.170  10.739  16.373  0.00  0.00    +0.000 NA
BRANCH   9  14
ATOM     14  C   UNL     1      -5.900  10.898  18.042  0.00  0.00    +0.000 C 
BRANCH  14  15
ATOM     15  C   UNL     1      -6.492  12.167  18.635  0.00  0.00    +0.000 C 
BRANCH  15  17
ATOM     16  C   UNL     1      -6.823  13.639  16.822  0.00  0.00    +0.000 C 
ATOM     17  O   UNL     1      -7.436  12.711  17.708  0.00  0.00    +0.000 OA
ENDBRANCH  15  17
ENDBRANCH  14  15
ENDBRANCH   9  14
ENDBRANCH   1  11
BRANCH   4  18
ATOM     18  N   UNL     1       0.492   8.491  20.576  0.00  0.00    +0.000 N 
ATOM     19  H   UNL     1      -0.286   8.260  21.189  0.00  0.00    +0.000 HD
BRANCH  18  20
ATOM     20  C   UNL     1       1.744   7.908  21.018  0.00  0.00    +0.000 C 
BRANCH  20  21
ATOM     21  C   UNL     1       1.886   6.554  20.354  0.00  0.00    +0.000 A 
ATOM     22  C   UNL     1       1.049   5.492  20.709  0.00  0.00    +0.000 A 
ATOM     23  C   UNL     1       1.212   4.245  20.107  0.00  0.00    +0.000 A 
ATOM     24  C   UNL     1       2.199   4.051  19.136  0.00  0.00    +0.000 A 
ATOM     25  C   UNL     1       3.034   5.100  18.752  0.00  0.00    +0.000 A 
ATOM     26  C   UNL     1       2.886   6.340  19.382  0.00  0.00    +0.000 A 
BRANCH  25  27
ATOM     27  N   UNL     1       4.048   4.972  17.774  0.00  0.00    +0.000 N 
ATOM     28  C   UNL     1       5.334   4.495  17.983  0.00  0.00    +0.000 C 
ATOM     29  O   UNL     1       5.767   4.021  19.031  0.00  0.00    +0.000 OA
ATOM     30  H   UNL     1       3.766   5.192  16.827  0.00  0.00    +0.000 HD
BRANCH  28  31
ATOM     31  C   UNL     1       6.228   4.580  16.768  0.00  0.00    +0.000 C 
BRANCH  31  32
ATOM     32  C   UNL     1       5.776   5.659  15.895  0.00  0.00    +0.000 C 
ATOM     33  N   UNL     1       5.382   6.529  15.230  0.00  0.00    +0.000 NA
ENDBRANCH  31  32
ENDBRANCH  28  31
ENDBRANCH  25  27
ENDBRANCH  20  21
ENDBRANCH  18  20
ENDBRANCH   4  18
TORSDOF 10
ENDMDL
