MODEL 1
REMARK VINA RESULT:      -6.5      0.000      0.000
REMARK  Name = 
REMARK  3 active torsions:
REMARK  status: ('A' for Active; 'I' for Inactive)
REMARK    1  A    between atoms: C_1  and  C_2
REMARK    2  A    between atoms: C_11  and  C_12
REMARK    3  A    between atoms: C_12  and  N_13
REMARK                            x       y       z     vdW  Elec       q    Type
REMARK                         _______ _______ _______ _____ _____    ______ ____
ROOT
ATOM      1  C   UNL     1       0.588   2.125  18.899  0.00  0.00    +0.000 C 
ATOM      2  C   UNL     1       1.715   2.948  18.362  0.00  0.00    +0.000 A 
ATOM      3  C   UNL     1       2.855   2.369  17.825  0.00  0.00    +0.000 A 
ATOM      4  N   UNL     1       3.902   3.070  17.340  0.00  0.00    +0.000 NA
ATOM      5  C   UNL     1       3.829   4.423  17.371  0.00  0.00    +0.000 A 
ATOM      6  C   UNL     1       2.722   5.103  17.895  0.00  0.00    +0.000 A 
ATOM      7  C   UNL     1       1.654   4.341  18.382  0.00  0.00    +0.000 A 
ATOM      8  C   UNL     1       2.620   6.604  17.899  0.00  0.00    +0.000 C 
ATOM      9  C   UNL     1       3.957   7.304  17.675  0.00  0.00    +0.000 C 
ATOM     10  C   UNL     1       4.717   6.635  16.536  0.00  0.00    +0.000 C 
ATOM     11  C   UNL     1       5.054   5.171  16.875  0.00  0.00    +0.000 C 
ENDROOT
BRANCH  11  12
ATOM     12  C   UNL     1       6.220   5.080  17.872  0.00  0.00    +0.000 C 
ATOM     13  S   UNL     1       7.432   6.235  17.941  0.00  0.00    +0.000 S 
BRANCH  12  14
ATOM     14  N   UNL     1       6.221   4.078  18.801  0.00  0.00    +0.000 N 
ATOM     15  H   UNL     1       7.073   3.814  19.280  0.00  0.00    +0.000 HD
ATOM     16  H   UNL     1       5.355   3.908  19.305  0.00  0.00    +0.000 HD
ENDBRANCH  12  14
ENDBRANCH  11  12
TORSDOF 2
ENDMDL
MODEL 2
REMARK VINA RESULT:      -6.3      2.704      4.436
REMARK  Name = 
REMARK  3 active torsions:
REMARK  status: ('A' for Active; 'I' for Inactive)
REMARK    1  A    between atoms: C_1  and  C_2
REMARK    2  A    between atoms: C_11  and  C_12
REMARK    3  A    between atoms: C_12  and  N_13
REMARK                            x       y       z     vdW  Elec       q    Type
REMARK                         _______ _______ _______ _____ _____    ______ ____
ROOT
ATOM      1  C   UNL     1       6.321   3.297  12.131  0.00  0.00    +0.000 C 
ATOM      2  C   UNL     1       6.309   3.985  13.457  0.00  0.00    +0.000 A 
ATOM      3  C   UNL     1       7.316   4.860  13.839  0.00  0.00    +0.000 A 
ATOM      4  N   UNL     1       7.355   5.495  15.030  0.00  0.00    +0.000 NA
ATOM      5  C   UNL     1       6.341   5.271  15.902  0.00  0.00    +0.000 A 
ATOM      6  C   UNL     1       5.280   4.403  15.613  0.00  0.00    +0.000 A 
ATOM      7  C   UNL     1       5.272   3.769  14.365  0.00  0.00    +0.000 A 
ATOM      8  C   UNL     1       4.135   4.179  16.562  0.00  0.00    +0.000 C 
ATOM      9  C   UNL     1       4.429   4.636  17.988  0.00  0.00    +0.000 C 
ATOM     10  C   UNL     1       5.098   6.005  17.974  0.00  0.00    +0.000 C 
ATOM     11  C   UNL     1       6.457   5.954  17.253  0.00  0.00    +0.000 C 
ENDROOT
BRANCH  11  12
ATOM     12  C   UNL     1       7.534   5.300  18.132  0.00  0.00    +0.000 C 
ATOM     13  S   UNL     1       7.877   5.839  19.681  0.00  0.00    +0.000 S 
BRANCH  12  14
ATOM     14  N   UNL     1       8.170   4.178  17.678  0.00  0.00    +0.000 N 
ATOM     15  H   UNL     1       8.063   3.291  18.154  0.00  0.00    +0.000 HD
ATOM     16  H   UNL     1       8.379   4.130  16.685  0.00  0.00    +0.000 HD
ENDBRANCH  12  14
ENDBRANCH  11  12
TORSDOF 2
ENDMDL
MODEL 3
REMARK VINA RESULT:      -6.3      1.552      1.556
REMARK  Name = 
REMARK  3 active torsions:
REMARK  status: ('A' for Active; 'I' for Inactive)
REMARK    1  A    between atoms: C_1  and  C_2
REMARK    2  A    between atoms: C_11  and  C_12
REMARK    3  A    between atoms: C_12  and  N_13
REMARK                            x       y       z     vdW  Elec       q    Type
REMARK                         _______ _______ _______ _____ _____    ______ ____
ROOT
ATOM      1  C   UNL     1       1.664   2.768  21.562  0.00  0.00    +0.000 C 
ATOM      2  C   UNL     1       2.534   3.394  20.520  0.00  0.00    +0.000 A 
ATOM      3  C   UNL     1       3.701   2.788  20.077  0.00  0.00    +0.000 A 
ATOM      4  N   UNL     1       4.524   3.320  19.148  0.00  0.00    +0.000 NA
ATOM      5  C   UNL     1       4.182   4.516  18.608  0.00  0.00    +0.000 A 
ATOM      6  C   UNL     1       3.026   5.209  18.990  0.00  0.00    +0.000 A 
ATOM      7  C   UNL     1       2.196   4.621  19.951  0.00  0.00    +0.000 A 
ATOM      8  C   UNL     1       2.624   6.519  18.369  0.00  0.00    +0.000 C 
ATOM      9  C   UNL     1       3.759   7.207  17.615  0.00  0.00    +0.000 C 
ATOM     10  C   UNL     1       4.506   6.198  16.753  0.00  0.00    +0.000 C 
ATOM     11  C   UNL     1       5.167   5.107  17.616  0.00  0.00    +0.000 C 
ENDROOT
BRANCH  11  12
ATOM     12  C   UNL     1       6.432   5.634  18.312  0.00  0.00    +0.000 C 
ATOM     13  S   UNL     1       7.400   6.821  17.634  0.00  0.00    +0.000 S 
BRANCH  12  14
ATOM     14  N   UNL     1       6.728   5.193  19.572  0.00  0.00    +0.000 N 
ATOM     15  H   UNL     1       7.007   5.841  20.298  0.00  0.00    +0.000 HD
ATOM     16  H   UNL     1       6.275   4.339  19.885  0.00  0.00    +0.000 HD
ENDBRANCH  12  14
ENDBRANCH  11  12
TORSDOF 2
ENDMDL
MODEL 4
REMARK VINA RESULT:      -6.2      1.674      1.685
REMARK  Name = 
REMARK  3 active torsions:
REMARK  status: ('A' for Active; 'I' for Inactive)
REMARK    1  A    between atoms: C_1  and  C_2
REMARK    2  A    between atoms: C_11  and  C_12
REMARK    3  A    between atoms: C_12  and  N_13
REMARK                            x       y       z     vdW  Elec       q    Type
REMARK                         _______ _______ _______ _____ _____    ______ ____
ROOT
ATOM      1  C   UNL     1       1.883   2.939  21.555  0.00  0.00    +0.000 C 
ATOM      2  C   UNL     1       2.756   3.363  20.418  0.00  0.00    +0.000 A 
ATOM      3  C   UNL     1       3.745   2.537  19.904  0.00  0.00    +0.000 A 
ATOM      4  N   UNL     1       4.564   2.881  18.888  0.00  0.00    +0.000 NA
ATOM      5  C   UNL     1       4.403   4.105  18.329  0.00  0.00    +0.000 A 
ATOM      6  C   UNL     1       3.436   5.014  18.778  0.00  0.00    +0.000 A 
ATOM      7  C   UNL     1       2.601   4.618  19.829  0.00  0.00    +0.000 A 
ATOM      8  C   UNL     1       3.229   6.359  18.139  0.00  0.00    +0.000 C 
ATOM      9  C   UNL     1       4.399   6.802  17.264  0.00  0.00    +0.000 C 
ATOM     10  C   UNL     1       4.864   5.648  16.384  0.00  0.00    +0.000 C 
ATOM     11  C   UNL     1       5.387   4.475  17.233  0.00  0.00    +0.000 C 
ENDROOT
BRANCH  11  12
ATOM     12  C   UNL     1       6.785   4.771  17.798  0.00  0.00    +0.000 C 
ATOM     13  S   UNL     1       7.013   5.574  19.251  0.00  0.00    +0.000 S 
BRANCH  12  14
ATOM     14  N   UNL     1       7.882   4.281  17.146  0.00  0.00    +0.000 N 
ATOM     15  H   UNL     1       8.813   4.428  17.513  0.00  0.00    +0.000 HD
ATOM     16  H   UNL     1       7.752   3.449  16.576  0.00  0.00    +0.000 HD
ENDBRANCH  12  14
ENDBRANCH  11  12
TORSDOF 2
ENDMDL
MODEL 5
REMARK VINA RESULT:      -6.1      2.721      4.866
REMARK  Name = 
REMARK  3 active torsions:
REMARK  status: ('A' for Active; 'I' for Inactive)
REMARK    1  A    between atoms: C_1  and  C_2
REMARK    2  A    between atoms: C_11  and  C_12
REMARK    3  A    between atoms: C_12  and  N_13
REMARK                            x       y       z     vdW  Elec       q    Type
REMARK                         _______ _______ _______ _____ _____    ______ ____
ROOT
ATOM      1  C   UNL     1       6.002   5.973  16.055  0.00  0.00    +0.000 C 
ATOM      2  C   UNL     1       4.821   5.446  16.804  0.00  0.00    +0.000 A 
ATOM      3  C   UNL     1       3.933   6.285  17.461  0.00  0.00    +0.000 A 
ATOM      4  N   UNL     1       2.861   5.854  18.160  0.00  0.00    +0.000 NA
ATOM      5  C   UNL     1       2.634   4.519  18.213  0.00  0.00    +0.000 A 
ATOM      6  C   UNL     1       3.474   3.588  17.587  0.00  0.00    +0.000 A 
ATOM      7  C   UNL     1       4.570   4.075  16.867  0.00  0.00    +0.000 A 
ATOM      8  C   UNL     1       3.206   2.109  17.614  0.00  0.00    +0.000 C 
ATOM      9  C   UNL     1       2.213   1.690  18.694  0.00  0.00    +0.000 C 
ATOM     10  C   UNL     1       1.021   2.640  18.710  0.00  0.00    +0.000 C 
ATOM     11  C   UNL     1       1.456   4.074  19.062  0.00  0.00    +0.000 C 
ENDROOT
BRANCH  11  12
ATOM     12  C   UNL     1       1.748   4.219  20.564  0.00  0.00    +0.000 C 
ATOM     13  S   UNL     1       1.533   2.957  21.644  0.00  0.00    +0.000 S 
BRANCH  12  14
ATOM     14  N   UNL     1       2.294   5.384  21.024  0.00  0.00    +0.000 N 
ATOM     15  H   UNL     1       1.786   6.257  20.960  0.00  0.00    +0.000 HD
ATOM     16  H   UNL     1       2.971   5.315  21.779  0.00  0.00    +0.000 HD
ENDBRANCH  12  14
ENDBRANCH  11  12
TORSDOF 2
ENDMDL
MODEL 6
REMARK VINA RESULT:      -6.0      2.570      4.424
REMARK  Name = 
REMARK  3 active torsions:
REMARK  status: ('A' for Active; 'I' for Inactive)
REMARK    1  A    between atoms: C_1  and  C_2
REMARK    2  A    between atoms: C_11  and  C_12
REMARK    3  A    between atoms: C_12  and  N_13
REMARK                            x       y       z     vdW  Elec       q    Type
REMARK                         _______ _______ _______ _____ _____    ______ ____
ROOT
ATOM      1  C   UNL     1       2.730   8.300  17.821  0.00  0.00    +0.000 C 
ATOM      2  C   UNL     1       2.974   6.941  18.393  0.00  0.00    +0.000 A 
ATOM      3  C   UNL     1       4.113   6.210  18.089  0.00  0.00    +0.000 A 
ATOM      4  N   UNL     1       4.371   4.976  18.571  0.00  0.00    +0.000 NA
ATOM      5  C   UNL     1       3.464   4.421  19.413  0.00  0.00    +0.000 A 
ATOM      6  C   UNL     1       2.281   5.076  19.779  0.00  0.00    +0.000 A 
ATOM      7  C   UNL     1       2.054   6.357  19.263  0.00  0.00    +0.000 A 
ATOM      8  C   UNL     1       1.289   4.480  20.739  0.00  0.00    +0.000 C 
ATOM      9  C   UNL     1       1.471   2.979  20.947  0.00  0.00    +0.000 C 
ATOM     10  C   UNL     1       2.946   2.648  21.135  0.00  0.00    +0.000 C 
ATOM     11  C   UNL     1       3.762   3.008  19.880  0.00  0.00    +0.000 C 
ENDROOT
BRANCH  11  12
ATOM     12  C   UNL     1       3.548   1.979  18.759  0.00  0.00    +0.000 C 
ATOM     13  S   UNL     1       2.481   2.242  17.494  0.00  0.00    +0.000 S 
BRANCH  12  14
ATOM     14  N   UNL     1       4.322   0.852  18.735  0.00  0.00    +0.000 N 
ATOM     15  H   UNL     1       4.392   0.252  19.547  0.00  0.00    +0.000 HD
ATOM     16  H   UNL     1       4.463   0.404  17.834  0.00  0.00    +0.000 HD
ENDBRANCH  12  14
ENDBRANCH  11  12
TORSDOF 2
ENDMDL
MODEL 7
REMARK VINA RESULT:      -6.0      2.449      4.572
REMARK  Name = 
REMARK  3 active torsions:
REMARK  status: ('A' for Active; 'I' for Inactive)
REMARK    1  A    between atoms: C_1  and  C_2
REMARK    2  A    between atoms: C_11  and  C_12
REMARK    3  A    between atoms: C_12  and  N_13
REMARK                            x       y       z     vdW  Elec       q    Type
REMARK                         _______ _______ _______ _____ _____    ______ ____
ROOT
ATOM      1  C   UNL     1       7.694   7.318  17.264  0.00  0.00    +0.000 C 
ATOM      2  C   UNL     1       6.624   6.534  17.952  0.00  0.00    +0.000 A 
ATOM      3  C   UNL     1       6.906   5.658  18.989  0.00  0.00    +0.000 A 
ATOM      4  N   UNL     1       5.975   4.920  19.631  0.00  0.00    +0.000 NA
ATOM      5  C   UNL     1       4.683   5.052  19.243  0.00  0.00    +0.000 A 
ATOM      6  C   UNL     1       4.295   5.908  18.203  0.00  0.00    +0.000 A 
ATOM      7  C   UNL     1       5.289   6.660  17.568  0.00  0.00    +0.000 A 
ATOM      8  C   UNL     1       2.859   6.084  17.793  0.00  0.00    +0.000 C 
ATOM      9  C   UNL     1       1.940   4.979  18.305  0.00  0.00    +0.000 C 
ATOM     10  C   UNL     1       2.241   4.680  19.769  0.00  0.00    +0.000 C 
ATOM     11  C   UNL     1       3.678   4.157  19.947  0.00  0.00    +0.000 C 
ENDROOT
BRANCH  11  12
ATOM     12  C   UNL     1       3.802   2.694  19.494  0.00  0.00    +0.000 C 
ATOM     13  S   UNL     1       2.550   1.881  18.735  0.00  0.00    +0.000 S 
BRANCH  12  14
ATOM     14  N   UNL     1       5.006   2.059  19.625  0.00  0.00    +0.000 N 
ATOM     15  H   UNL     1       5.369   1.474  18.882  0.00  0.00    +0.000 HD
ATOM     16  H   UNL     1       5.697   2.490  20.232  0.00  0.00    +0.000 HD
ENDBRANCH  12  14
ENDBRANCH  11  12
TORSDOF 2
ENDMDL
MODEL 8
REMARK VINA RESULT:      -5.9      2.654      4.421
REMARK  Name = 
REMARK  3 active torsions:
REMARK  status: ('A' for Active; 'I' for Inactive)
REMARK    1  A    between atoms: C_1  and  C_2
REMARK    2  A    between atoms: C_11  and  C_12
REMARK    3  A    between atoms: C_12  and  N_13
REMARK                            x       y       z     vdW  Elec       q    Type
REMARK                         _______ _______ _______ _____ _____    ______ ____
ROOT
ATOM      1  C   UNL     1       7.069   4.532  15.602  0.00  0.00    +0.000 C 
ATOM      2  C   UNL     1       6.032   4.492  16.678  0.00  0.00    +0.000 A 
ATOM      3  C   UNL     1       6.352   4.694  18.013  0.00  0.00    +0.000 A 
ATOM      4  N   UNL     1       5.453   4.655  19.020  0.00  0.00    +0.000 NA
ATOM      5  C   UNL     1       4.157   4.415  18.704  0.00  0.00    +0.000 A 
ATOM      6  C   UNL     1       3.733   4.195  17.387  0.00  0.00    +0.000 A 
ATOM      7  C   UNL     1       4.693   4.250  16.371  0.00  0.00    +0.000 A 
ATOM      8  C   UNL     1       2.291   3.963  17.028  0.00  0.00    +0.000 C 
ATOM      9  C   UNL     1       1.421   3.584  18.223  0.00  0.00    +0.000 C 
ATOM     10  C   UNL     1       1.733   4.488  19.410  0.00  0.00    +0.000 C 
ATOM     11  C   UNL     1       3.191   4.317  19.872  0.00  0.00    +0.000 C 
ENDROOT
BRANCH  11  12
ATOM     12  C   UNL     1       3.380   3.011  20.660  0.00  0.00    +0.000 C 
ATOM     13  S   UNL     1       2.223   2.431  21.724  0.00  0.00    +0.000 S 
BRANCH  12  14
ATOM     14  N   UNL     1       4.483   2.241  20.415  0.00  0.00    +0.000 N 
ATOM     15  H   UNL     1       4.996   1.812  21.174  0.00  0.00    +0.000 HD
ATOM     16  H   UNL     1       4.530   1.766  19.518  0.00  0.00    +0.000 HD
ENDBRANCH  12  14
ENDBRANCH  11  12
TORSDOF 2
ENDMDL
MODEL 9
REMARK VINA RESULT:      -5.9      2.406      4.254
REMARK  Name = 
REMARK  3 active torsions:
REMARK  status: ('A' for Active; 'I' for Inactive)
REMARK    1  A    between atoms: C_1  and  C_2
REMARK    2  A    between atoms: C_11  and  C_12
REMARK    3  A    between atoms: C_12  and  N_13
REMARK                            x       y       z     vdW  Elec       q    Type
REMARK                         _______ _______ _______ _____ _____    ______ ____
ROOT
ATOM      1  C   UNL     1       6.717   5.001  14.441  0.00  0.00    +0.000 C 
ATOM      2  C   UNL     1       5.852   5.030  15.659  0.00  0.00    +0.000 A 
ATOM      3  C   UNL     1       5.713   3.925  16.487  0.00  0.00    +0.000 A 
ATOM      4  N   UNL     1       4.934   3.899  17.590  0.00  0.00    +0.000 NA
ATOM      5  C   UNL     1       4.254   5.027  17.913  0.00  0.00    +0.000 A 
ATOM      6  C   UNL     1       4.324   6.194  17.140  0.00  0.00    +0.000 A 
ATOM      7  C   UNL     1       5.148   6.182  16.008  0.00  0.00    +0.000 A 
ATOM      8  C   UNL     1       3.600   7.457  17.513  0.00  0.00    +0.000 C 
ATOM      9  C   UNL     1       2.490   7.241  18.537  0.00  0.00    +0.000 C 
ATOM     10  C   UNL     1       2.977   6.331  19.658  0.00  0.00    +0.000 C 
ATOM     11  C   UNL     1       3.341   4.934  19.123  0.00  0.00    +0.000 C 
ENDROOT
BRANCH  11  12
ATOM     12  C   UNL     1       2.084   4.102  18.826  0.00  0.00    +0.000 C 
ATOM     13  S   UNL     1       0.988   3.677  20.020  0.00  0.00    +0.000 S 
BRANCH  12  14
ATOM     14  N   UNL     1       1.793   3.778  17.530  0.00  0.00    +0.000 N 
ATOM     15  H   UNL     1       1.228   2.967  17.312  0.00  0.00    +0.000 HD
ATOM     16  H   UNL     1       1.767   4.536  16.854  0.00  0.00    +0.000 HD
ENDBRANCH  12  14
ENDBRANCH  11  12
TORSDOF 2
ENDMDL
