MODEL 1
REMARK VINA RESULT:      -7.7      0.000      0.000
REMARK  Name = 
REMARK  11 active torsions:
REMARK  status: ('A' for Active; 'I' for Inactive)
REMARK    1  A    between atoms: C_1  and  C_2
REMARK    2  A    between atoms: C_6  and  O_7
REMARK    3  A    between atoms: O_7  and  C_8
REMARK    4  A    between atoms: C_8  and  C_9
REMARK    5  A    between atoms: C_9  and  C_10
REMARK    6  A    between atoms: C_10  and  C_11
REMARK    7  A    between atoms: N_13  and  N_14
REMARK    8  A    between atoms: C_15  and  C_17
REMARK    9  A    between atoms: C_21  and  N_22
REMARK   10  A    between atoms: N_22  and  C_23
REMARK   11  A    between atoms: N_22  and  C_24
REMARK                            x       y       z     vdW  Elec       q    Type
REMARK                         _______ _______ _______ _____ _____    ______ ____
ROOT
ATOM      1  C   UNL     1       7.880   7.331  18.087  0.00  0.00    +0.000 C 
ATOM      2  O   UNL     1       7.711   7.596  16.899  0.00  0.00    +0.000 OA
ATOM      3  N   UNL     1       8.527   8.196  18.942  0.00  0.00    +0.000 N 
ATOM      4  H   UNL     1       8.566   8.100  19.954  0.00  0.00    +0.000 HD
ENDROOT
BRANCH   3   5
ATOM      5  N   UNL     1       9.042   9.381  18.387  0.00  0.00    +0.000 N 
ATOM      6  C   UNL     1       9.321  10.450  19.217  0.00  0.00    +0.000 C 
ATOM      7  O   UNL     1       9.214  10.394  20.438  0.00  0.00    +0.000 OA
ATOM      8  H   UNL     1       8.828   9.523  17.399  0.00  0.00    +0.000 HD
BRANCH   6   9
ATOM      9  C   UNL     1       9.753  11.709  18.534  0.00  0.00    +0.000 A 
ATOM     10  C   UNL     1      10.942  11.702  17.804  0.00  0.00    +0.000 A 
ATOM     11  C   UNL     1      11.363  12.865  17.168  0.00  0.00    +0.000 A 
ATOM     12  C   UNL     1      10.580  14.028  17.228  0.00  0.00    +0.000 A 
ATOM     13  C   UNL     1       9.357  14.068  17.918  0.00  0.00    +0.000 A 
ATOM     14  C   UNL     1       8.977  12.886  18.581  0.00  0.00    +0.000 A 
BRANCH  13  15
ATOM     15  N   UNL     1       8.563  15.203  17.938  0.00  0.00    +0.000 N 
ATOM     16  C   UNL     1       7.107  15.153  17.875  0.00  0.00    +0.000 C 
ATOM     17  C   UNL     1       9.130  16.542  18.076  0.00  0.00    +0.000 C 
ENDBRANCH  13  15
ENDBRANCH   6   9
ENDBRANCH   3   5
BRANCH   1  18
ATOM     18  C   UNL     1       7.411   6.031  18.721  0.00  0.00    +0.000 C 
BRANCH  18  19
ATOM     19  C   UNL     1       7.367   4.878  17.712  0.00  0.00    +0.000 C 
BRANCH  19  20
ATOM     20  C   UNL     1       6.017   4.156  17.719  0.00  0.00    +0.000 C 
BRANCH  20  21
ATOM     21  O   UNL     1       4.984   5.091  18.037  0.00  0.00    +0.000 OA
BRANCH  21  27
ATOM     22  C   UNL     1       2.149   2.928  21.508  0.00  0.00    +0.000 C 
ATOM     23  C   UNL     1       2.341   3.506  20.138  0.00  0.00    +0.000 A 
ATOM     24  C   UNL     1       1.290   3.547  19.217  0.00  0.00    +0.000 A 
ATOM     25  C   UNL     1       1.494   4.085  17.947  0.00  0.00    +0.000 A 
ATOM     26  C   UNL     1       2.746   4.587  17.592  0.00  0.00    +0.000 A 
ATOM     27  C   UNL     1       3.807   4.559  18.498  0.00  0.00    +0.000 A 
ATOM     28  C   UNL     1       3.598   4.014  19.769  0.00  0.00    +0.000 A 
ENDBRANCH  21  27
ENDBRANCH  20  21
ENDBRANCH  19  20
ENDBRANCH  18  19
ENDBRANCH   1  18
TORSDOF 8
ENDMDL
MODEL 2
REMARK VINA RESULT:      -7.7      5.225      7.785
REMARK  Name = 
REMARK  11 active torsions:
REMARK  status: ('A' for Active; 'I' for Inactive)
REMARK    1  A    between atoms: C_1  and  C_2
REMARK    2  A    between atoms: C_6  and  O_7
REMARK    3  A    between atoms: O_7  and  C_8
REMARK    4  A    between atoms: C_8  and  C_9
REMARK    5  A    between atoms: C_9  and  C_10
REMARK    6  A    between atoms: C_10  and  C_11
REMARK    7  A    between atoms: N_13  and  N_14
REMARK    8  A    between atoms: C_15  and  C_17
REMARK    9  A    between atoms: C_21  and  N_22
REMARK   10  A    between atoms: N_22  and  C_23
REMARK   11  A    between atoms: N_22  and  C_24
REMARK                            x       y       z     vdW  Elec       q    Type
REMARK                         _______ _______ _______ _____ _____    ______ ____
ROOT
ATOM      1  C   UNL     1       1.594   3.901  20.706  0.00  0.00    +0.000 C 
ATOM      2  O   UNL     1       0.472   4.040  20.224  0.00  0.00    +0.000 OA
ATOM      3  N   UNL     1       2.340   4.975  21.137  0.00  0.00    +0.000 N 
ATOM      4  H   UNL     1       3.203   4.912  21.674  0.00  0.00    +0.000 HD
ENDROOT
BRANCH   3   5
ATOM      5  N   UNL     1       1.790   6.255  20.951  0.00  0.00    +0.000 N 
ATOM      6  C   UNL     1       2.197   7.016  19.871  0.00  0.00    +0.000 C 
ATOM      7  O   UNL     1       2.967   6.598  19.012  0.00  0.00    +0.000 OA
ATOM      8  H   UNL     1       1.425   6.695  21.797  0.00  0.00    +0.000 HD
BRANCH   6   9
ATOM      9  C   UNL     1       1.653   8.408  19.813  0.00  0.00    +0.000 A 
ATOM     10  C   UNL     1       1.787   9.131  18.627  0.00  0.00    +0.000 A 
ATOM     11  C   UNL     1       1.294  10.429  18.555  0.00  0.00    +0.000 A 
ATOM     12  C   UNL     1       0.632  10.997  19.654  0.00  0.00    +0.000 A 
ATOM     13  C   UNL     1       0.440  10.291  20.853  0.00  0.00    +0.000 A 
ATOM     14  C   UNL     1       0.982   8.994  20.907  0.00  0.00    +0.000 A 
BRANCH  13  15
ATOM     15  N   UNL     1      -0.253  10.836  21.922  0.00  0.00    +0.000 N 
ATOM     16  C   UNL     1      -0.783  12.195  21.913  0.00  0.00    +0.000 C 
ATOM     17  C   UNL     1      -0.550  10.065  23.127  0.00  0.00    +0.000 C 
ENDBRANCH  13  15
ENDBRANCH   6   9
ENDBRANCH   3   5
BRANCH   1  18
ATOM     18  C   UNL     1       2.268   2.546  20.860  0.00  0.00    +0.000 C 
BRANCH  18  19
ATOM     19  C   UNL     1       3.796   2.650  20.794  0.00  0.00    +0.000 C 
BRANCH  19  20
ATOM     20  C   UNL     1       4.300   2.843  19.362  0.00  0.00    +0.000 C 
BRANCH  20  21
ATOM     21  O   UNL     1       5.532   3.567  19.390  0.00  0.00    +0.000 OA
BRANCH  21  27
ATOM     22  C   UNL     1       7.609   7.693  17.539  0.00  0.00    +0.000 C 
ATOM     23  C   UNL     1       6.652   6.543  17.441  0.00  0.00    +0.000 A 
ATOM     24  C   UNL     1       5.836   6.377  16.318  0.00  0.00    +0.000 A 
ATOM     25  C   UNL     1       4.949   5.303  16.251  0.00  0.00    +0.000 A 
ATOM     26  C   UNL     1       4.877   4.388  17.303  0.00  0.00    +0.000 A 
ATOM     27  C   UNL     1       5.687   4.535  18.430  0.00  0.00    +0.000 A 
ATOM     28  C   UNL     1       6.570   5.617  18.494  0.00  0.00    +0.000 A 
ENDBRANCH  21  27
ENDBRANCH  20  21
ENDBRANCH  19  20
ENDBRANCH  18  19
ENDBRANCH   1  18
TORSDOF 8
ENDMDL
MODEL 3
REMARK VINA RESULT:      -7.6      6.264      8.629
REMARK  Name = 
REMARK  11 active torsions:
REMARK  status: ('A' for Active; 'I' for Inactive)
REMARK    1  A    between atoms: C_1  and  C_2
REMARK    2  A    between atoms: C_6  and  O_7
REMARK    3  A    between atoms: O_7  and  C_8
REMARK    4  A    between atoms: C_8  and  C_9
REMARK    5  A    between atoms: C_9  and  C_10
REMARK    6  A    between atoms: C_10  and  C_11
REMARK    7  A    between atoms: N_13  and  N_14
REMARK    8  A    between atoms: C_15  and  C_17
REMARK    9  A    between atoms: C_21  and  N_22
REMARK   10  A    between atoms: N_22  and  C_23
REMARK   11  A    between atoms: N_22  and  C_24
REMARK                            x       y       z     vdW  Elec       q    Type
REMARK                         _______ _______ _______ _____ _____    ______ ____
ROOT
ATOM      1  C   UNL     1       3.555   3.305  18.445  0.00  0.00    +0.000 C 
ATOM      2  O   UNL     1       3.358   2.278  17.800  0.00  0.00    +0.000 OA
ATOM      3  N   UNL     1       4.161   4.410  17.889  0.00  0.00    +0.000 N 
ATOM      4  H   UNL     1       4.217   5.329  18.323  0.00  0.00    +0.000 HD
ENDROOT
BRANCH   3   5
ATOM      5  N   UNL     1       4.602   4.298  16.558  0.00  0.00    +0.000 N 
ATOM      6  C   UNL     1       5.957   4.345  16.289  0.00  0.00    +0.000 C 
ATOM      7  O   UNL     1       6.811   4.403  17.168  0.00  0.00    +0.000 OA
ATOM      8  H   UNL     1       3.916   4.567  15.853  0.00  0.00    +0.000 HD
BRANCH   6   9
ATOM      9  C   UNL     1       6.334   4.339  14.841  0.00  0.00    +0.000 A 
ATOM     10  C   UNL     1       7.409   5.127  14.426  0.00  0.00    +0.000 A 
ATOM     11  C   UNL     1       7.771   5.139  13.083  0.00  0.00    +0.000 A 
ATOM     12  C   UNL     1       7.085   4.338  12.157  0.00  0.00    +0.000 A 
ATOM     13  C   UNL     1       6.025   3.500  12.540  0.00  0.00    +0.000 A 
ATOM     14  C   UNL     1       5.659   3.537  13.898  0.00  0.00    +0.000 A 
BRANCH  13  15
ATOM     15  N   UNL     1       5.378   2.675  11.633  0.00  0.00    +0.000 N 
ATOM     16  C   UNL     1       5.949   1.420  11.157  0.00  0.00    +0.000 C 
ATOM     17  C   UNL     1       4.045   2.981  11.122  0.00  0.00    +0.000 C 
ENDBRANCH  13  15
ENDBRANCH   6   9
ENDBRANCH   3   5
BRANCH   1  18
ATOM     18  C   UNL     1       3.168   3.453  19.908  0.00  0.00    +0.000 C 
BRANCH  18  19
ATOM     19  C   UNL     1       1.776   4.073  20.078  0.00  0.00    +0.000 C 
BRANCH  19  20
ATOM     20  C   UNL     1       1.838   5.461  20.721  0.00  0.00    +0.000 C 
BRANCH  20  21
ATOM     21  O   UNL     1       2.649   6.318  19.916  0.00  0.00    +0.000 OA
BRANCH  21  27
ATOM     22  C   UNL     1       0.096  10.463  20.948  0.00  0.00    +0.000 C 
ATOM     23  C   UNL     1       0.874   9.597  20.002  0.00  0.00    +0.000 A 
ATOM     24  C   UNL     1       1.108   9.997  18.684  0.00  0.00    +0.000 A 
ATOM     25  C   UNL     1       1.830   9.172  17.821  0.00  0.00    +0.000 A 
ATOM     26  C   UNL     1       2.325   7.948  18.273  0.00  0.00    +0.000 A 
ATOM     27  C   UNL     1       2.105   7.534  19.588  0.00  0.00    +0.000 A 
ATOM     28  C   UNL     1       1.375   8.363  20.447  0.00  0.00    +0.000 A 
ENDBRANCH  21  27
ENDBRANCH  20  21
ENDBRANCH  19  20
ENDBRANCH  18  19
ENDBRANCH   1  18
TORSDOF 8
ENDMDL
MODEL 4
REMARK VINA RESULT:      -7.5      5.377      7.770
REMARK  Name = 
REMARK  11 active torsions:
REMARK  status: ('A' for Active; 'I' for Inactive)
REMARK    1  A    between atoms: C_1  and  C_2
REMARK    2  A    between atoms: C_6  and  O_7
REMARK    3  A    between atoms: O_7  and  C_8
REMARK    4  A    between atoms: C_8  and  C_9
REMARK    5  A    between atoms: C_9  and  C_10
REMARK    6  A    between atoms: C_10  and  C_11
REMARK    7  A    between atoms: N_13  and  N_14
REMARK    8  A    between atoms: C_15  and  C_17
REMARK    9  A    between atoms: C_21  and  N_22
REMARK   10  A    between atoms: N_22  and  C_23
REMARK   11  A    between atoms: N_22  and  C_24
REMARK                            x       y       z     vdW  Elec       q    Type
REMARK                         _______ _______ _______ _____ _____    ______ ____
ROOT
ATOM      1  C   UNL     1       2.005   4.362  20.351  0.00  0.00    +0.000 C 
ATOM      2  O   UNL     1       0.780   4.398  20.431  0.00  0.00    +0.000 OA
ATOM      3  N   UNL     1       2.771   5.507  20.373  0.00  0.00    +0.000 N 
ATOM      4  H   UNL     1       3.785   5.532  20.459  0.00  0.00    +0.000 HD
ENDROOT
BRANCH   3   5
ATOM      5  N   UNL     1       2.088   6.734  20.435  0.00  0.00    +0.000 N 
ATOM      6  C   UNL     1       2.124   7.584  19.345  0.00  0.00    +0.000 C 
ATOM      7  O   UNL     1       2.663   7.285  18.284  0.00  0.00    +0.000 OA
ATOM      8  H   UNL     1       1.933   7.095  21.377  0.00  0.00    +0.000 HD
BRANCH   6   9
ATOM      9  C   UNL     1       1.474   8.917  19.536  0.00  0.00    +0.000 A 
ATOM     10  C   UNL     1       1.397   9.786  18.447  0.00  0.00    +0.000 A 
ATOM     11  C   UNL     1       0.802  11.033  18.606  0.00  0.00    +0.000 A 
ATOM     12  C   UNL     1       0.249  11.402  19.842  0.00  0.00    +0.000 A 
ATOM     13  C   UNL     1       0.269  10.541  20.952  0.00  0.00    +0.000 A 
ATOM     14  C   UNL     1       0.910   9.302  20.770  0.00  0.00    +0.000 A 
BRANCH  13  15
ATOM     15  N   UNL     1      -0.318  10.888  22.159  0.00  0.00    +0.000 N 
ATOM     16  C   UNL     1      -0.505   9.939  23.251  0.00  0.00    +0.000 C 
ATOM     17  C   UNL     1      -0.749  12.253  22.446  0.00  0.00    +0.000 C 
ENDBRANCH  13  15
ENDBRANCH   6   9
ENDBRANCH   3   5
BRANCH   1  18
ATOM     18  C   UNL     1       2.789   3.067  20.206  0.00  0.00    +0.000 C 
BRANCH  18  19
ATOM     19  C   UNL     1       2.433   2.318  18.917  0.00  0.00    +0.000 C 
BRANCH  19  20
ATOM     20  C   UNL     1       3.332   2.723  17.746  0.00  0.00    +0.000 C 
BRANCH  20  21
ATOM     21  O   UNL     1       3.534   4.138  17.775  0.00  0.00    +0.000 OA
BRANCH  21  27
ATOM     22  C   UNL     1       7.574   7.042  17.697  0.00  0.00    +0.000 C 
ATOM     23  C   UNL     1       6.713   5.968  17.102  0.00  0.00    +0.000 A 
ATOM     24  C   UNL     1       7.070   5.336  15.907  0.00  0.00    +0.000 A 
ATOM     25  C   UNL     1       6.251   4.343  15.370  0.00  0.00    +0.000 A 
ATOM     26  C   UNL     1       5.075   3.975  16.026  0.00  0.00    +0.000 A 
ATOM     27  C   UNL     1       4.704   4.593  17.221  0.00  0.00    +0.000 A 
ATOM     28  C   UNL     1       5.527   5.591  17.752  0.00  0.00    +0.000 A 
ENDBRANCH  21  27
ENDBRANCH  20  21
ENDBRANCH  19  20
ENDBRANCH  18  19
ENDBRANCH   1  18
TORSDOF 8
ENDMDL
MODEL 5
REMARK VINA RESULT:      -7.5      5.089      7.688
REMARK  Name = 
REMARK  11 active torsions:
REMARK  status: ('A' for Active; 'I' for Inactive)
REMARK    1  A    between atoms: C_1  and  C_2
REMARK    2  A    between atoms: C_6  and  O_7
REMARK    3  A    between atoms: O_7  and  C_8
REMARK    4  A    between atoms: C_8  and  C_9
REMARK    5  A    between atoms: C_9  and  C_10
REMARK    6  A    between atoms: C_10  and  C_11
REMARK    7  A    between atoms: N_13  and  N_14
REMARK    8  A    between atoms: C_15  and  C_17
REMARK    9  A    between atoms: C_21  and  N_22
REMARK   10  A    between atoms: N_22  and  C_23
REMARK   11  A    between atoms: N_22  and  C_24
REMARK                            x       y       z     vdW  Elec       q    Type
REMARK                         _______ _______ _______ _____ _____    ______ ____
ROOT
ATOM      1  C   UNL     1       1.789   4.039  20.472  0.00  0.00    +0.000 C 
ATOM      2  O   UNL     1       0.563   4.081  20.398  0.00  0.00    +0.000 OA
ATOM      3  N   UNL     1       2.536   5.141  20.826  0.00  0.00    +0.000 N 
ATOM      4  H   UNL     1       3.530   5.129  21.045  0.00  0.00    +0.000 HD
ENDROOT
BRANCH   3   5
ATOM      5  N   UNL     1       1.841   6.343  21.048  0.00  0.00    +0.000 N 
ATOM      6  C   UNL     1       1.942   7.363  20.120  0.00  0.00    +0.000 C 
ATOM      7  O   UNL     1       2.552   7.246  19.062  0.00  0.00    +0.000 OA
ATOM      8  H   UNL     1       1.621   6.540  22.024  0.00  0.00    +0.000 HD
BRANCH   6   9
ATOM      9  C   UNL     1       1.270   8.647  20.489  0.00  0.00    +0.000 A 
ATOM     10  C   UNL     1       0.841   8.825  21.805  0.00  0.00    +0.000 A 
ATOM     11  C   UNL     1       0.209  10.010  22.165  0.00  0.00    +0.000 A 
ATOM     12  C   UNL     1       0.034  11.035  21.223  0.00  0.00    +0.000 A 
ATOM     13  C   UNL     1       0.487  10.913  19.898  0.00  0.00    +0.000 A 
ATOM     14  C   UNL     1       1.089   9.689  19.555  0.00  0.00    +0.000 A 
BRANCH  13  15
ATOM     15  N   UNL     1       0.355  11.943  18.981  0.00  0.00    +0.000 N 
ATOM     16  C   UNL     1      -0.936  12.389  18.469  0.00  0.00    +0.000 C 
ATOM     17  C   UNL     1       1.507  12.698  18.493  0.00  0.00    +0.000 C 
ENDBRANCH  13  15
ENDBRANCH   6   9
ENDBRANCH   3   5
BRANCH   1  18
ATOM     18  C   UNL     1       2.596   2.786  20.168  0.00  0.00    +0.000 C 
BRANCH  18  19
ATOM     19  C   UNL     1       3.762   3.066  19.215  0.00  0.00    +0.000 C 
BRANCH  19  20
ATOM     20  C   UNL     1       3.312   3.133  17.753  0.00  0.00    +0.000 C 
BRANCH  20  21
ATOM     21  O   UNL     1       3.431   4.478  17.285  0.00  0.00    +0.000 OA
BRANCH  21  27
ATOM     22  C   UNL     1       7.512   7.311  17.571  0.00  0.00    +0.000 C 
ATOM     23  C   UNL     1       6.721   6.201  16.945  0.00  0.00    +0.000 A 
ATOM     24  C   UNL     1       7.234   5.463  15.875  0.00  0.00    +0.000 A 
ATOM     25  C   UNL     1       6.478   4.439  15.306  0.00  0.00    +0.000 A 
ATOM     26  C   UNL     1       5.208   4.145  15.806  0.00  0.00    +0.000 A 
ATOM     27  C   UNL     1       4.681   4.868  16.877  0.00  0.00    +0.000 A 
ATOM     28  C   UNL     1       5.442   5.897  17.440  0.00  0.00    +0.000 A 
ENDBRANCH  21  27
ENDBRANCH  20  21
ENDBRANCH  19  20
ENDBRANCH  18  19
ENDBRANCH   1  18
TORSDOF 8
ENDMDL
MODEL 6
REMARK VINA RESULT:      -7.4      6.048      7.959
REMARK  Name = 
REMARK  11 active torsions:
REMARK  status: ('A' for Active; 'I' for Inactive)
REMARK    1  A    between atoms: C_1  and  C_2
REMARK    2  A    between atoms: C_6  and  O_7
REMARK    3  A    between atoms: O_7  and  C_8
REMARK    4  A    between atoms: C_8  and  C_9
REMARK    5  A    between atoms: C_9  and  C_10
REMARK    6  A    between atoms: C_10  and  C_11
REMARK    7  A    between atoms: N_13  and  N_14
REMARK    8  A    between atoms: C_15  and  C_17
REMARK    9  A    between atoms: C_21  and  N_22
REMARK   10  A    between atoms: N_22  and  C_23
REMARK   11  A    between atoms: N_22  and  C_24
REMARK                            x       y       z     vdW  Elec       q    Type
REMARK                         _______ _______ _______ _____ _____    ______ ____
ROOT
ATOM      1  C   UNL     1       2.160   3.907  20.225  0.00  0.00    +0.000 C 
ATOM      2  O   UNL     1       0.933   3.919  20.168  0.00  0.00    +0.000 OA
ATOM      3  N   UNL     1       2.893   5.060  20.397  0.00  0.00    +0.000 N 
ATOM      4  H   UNL     1       3.891   5.097  20.598  0.00  0.00    +0.000 HD
ENDROOT
BRANCH   3   5
ATOM      5  N   UNL     1       2.181   6.271  20.449  0.00  0.00    +0.000 N 
ATOM      6  C   UNL     1       2.313   7.179  19.415  0.00  0.00    +0.000 C 
ATOM      7  O   UNL     1       2.968   6.947  18.403  0.00  0.00    +0.000 OA
ATOM      8  H   UNL     1       1.919   6.578  21.387  0.00  0.00    +0.000 HD
BRANCH   6   9
ATOM      9  C   UNL     1       1.617   8.489  19.604  0.00  0.00    +0.000 A 
ATOM     10  C   UNL     1       1.514   9.356  18.515  0.00  0.00    +0.000 A 
ATOM     11  C   UNL     1       0.877  10.582  18.673  0.00  0.00    +0.000 A 
ATOM     12  C   UNL     1       0.308  10.931  19.907  0.00  0.00    +0.000 A 
ATOM     13  C   UNL     1       0.353  10.070  21.017  0.00  0.00    +0.000 A 
ATOM     14  C   UNL     1       1.037   8.854  20.836  0.00  0.00    +0.000 A 
BRANCH  13  15
ATOM     15  N   UNL     1      -0.249  10.396  22.222  0.00  0.00    +0.000 N 
ATOM     16  C   UNL     1      -0.878  11.688  22.470  0.00  0.00    +0.000 C 
ATOM     17  C   UNL     1      -0.341   9.442  23.324  0.00  0.00    +0.000 C 
ENDBRANCH  13  15
ENDBRANCH   6   9
ENDBRANCH   3   5
BRANCH   1  18
ATOM     18  C   UNL     1       2.983   2.635  20.097  0.00  0.00    +0.000 C 
BRANCH  18  19
ATOM     19  C   UNL     1       2.951   2.065  18.675  0.00  0.00    +0.000 C 
BRANCH  19  20
ATOM     20  C   UNL     1       3.094   3.157  17.612  0.00  0.00    +0.000 C 
BRANCH  20  21
ATOM     21  O   UNL     1       4.153   4.041  17.984  0.00  0.00    +0.000 OA
BRANCH  21  27
ATOM     22  C   UNL     1       5.981   3.728  13.365  0.00  0.00    +0.000 C 
ATOM     23  C   UNL     1       6.077   4.184  14.791  0.00  0.00    +0.000 A 
ATOM     24  C   UNL     1       7.178   4.917  15.243  0.00  0.00    +0.000 A 
ATOM     25  C   UNL     1       7.247   5.326  16.575  0.00  0.00    +0.000 A 
ATOM     26  C   UNL     1       6.215   5.008  17.459  0.00  0.00    +0.000 A 
ATOM     27  C   UNL     1       5.105   4.280  17.025  0.00  0.00    +0.000 A 
ATOM     28  C   UNL     1       5.044   3.869  15.690  0.00  0.00    +0.000 A 
ENDBRANCH  21  27
ENDBRANCH  20  21
ENDBRANCH  19  20
ENDBRANCH  18  19
ENDBRANCH   1  18
TORSDOF 8
ENDMDL
MODEL 7
REMARK VINA RESULT:      -7.3      6.280      8.447
REMARK  Name = 
REMARK  11 active torsions:
REMARK  status: ('A' for Active; 'I' for Inactive)
REMARK    1  A    between atoms: C_1  and  C_2
REMARK    2  A    between atoms: C_6  and  O_7
REMARK    3  A    between atoms: O_7  and  C_8
REMARK    4  A    between atoms: C_8  and  C_9
REMARK    5  A    between atoms: C_9  and  C_10
REMARK    6  A    between atoms: C_10  and  C_11
REMARK    7  A    between atoms: N_13  and  N_14
REMARK    8  A    between atoms: C_15  and  C_17
REMARK    9  A    between atoms: C_21  and  N_22
REMARK   10  A    between atoms: N_22  and  C_23
REMARK   11  A    between atoms: N_22  and  C_24
REMARK                            x       y       z     vdW  Elec       q    Type
REMARK                         _______ _______ _______ _____ _____    ______ ____
ROOT
ATOM      1  C   UNL     1       1.754   3.288  18.258  0.00  0.00    +0.000 C 
ATOM      2  O   UNL     1       1.319   3.979  17.340  0.00  0.00    +0.000 OA
ATOM      3  N   UNL     1       3.050   2.822  18.269  0.00  0.00    +0.000 N 
ATOM      4  H   UNL     1       3.507   2.376  19.062  0.00  0.00    +0.000 HD
ENDROOT
BRANCH   3   5
ATOM      5  N   UNL     1       3.849   3.123  17.151  0.00  0.00    +0.000 N 
ATOM      6  C   UNL     1       5.048   3.786  17.336  0.00  0.00    +0.000 C 
ATOM      7  O   UNL     1       5.494   4.062  18.445  0.00  0.00    +0.000 OA
ATOM      8  H   UNL     1       3.347   3.182  16.265  0.00  0.00    +0.000 HD
BRANCH   6   9
ATOM      9  C   UNL     1       5.778   4.172  16.089  0.00  0.00    +0.000 A 
ATOM     10  C   UNL     1       6.811   5.106  16.179  0.00  0.00    +0.000 A 
ATOM     11  C   UNL     1       7.497   5.483  15.030  0.00  0.00    +0.000 A 
ATOM     12  C   UNL     1       7.180   4.902  13.793  0.00  0.00    +0.000 A 
ATOM     13  C   UNL     1       6.175   3.928  13.664  0.00  0.00    +0.000 A 
ATOM     14  C   UNL     1       5.474   3.595  14.838  0.00  0.00    +0.000 A 
BRANCH  13  15
ATOM     15  N   UNL     1       5.893   3.321  12.450  0.00  0.00    +0.000 N 
ATOM     16  C   UNL     1       6.901   2.623  11.661  0.00  0.00    +0.000 C 
ATOM     17  C   UNL     1       4.544   3.294  11.893  0.00  0.00    +0.000 C 
ENDBRANCH  13  15
ENDBRANCH   6   9
ENDBRANCH   3   5
BRANCH   1  18
ATOM     18  C   UNL     1       0.911   2.870  19.452  0.00  0.00    +0.000 C 
BRANCH  18  19
ATOM     19  C   UNL     1       0.898   3.936  20.553  0.00  0.00    +0.000 C 
BRANCH  19  20
ATOM     20  C   UNL     1       2.244   4.654  20.677  0.00  0.00    +0.000 C 
BRANCH  20  21
ATOM     21  O   UNL     1       2.017   6.034  20.973  0.00  0.00    +0.000 OA
BRANCH  21  27
ATOM     22  C   UNL     1       1.045  10.287  18.580  0.00  0.00    +0.000 C 
ATOM     23  C   UNL     1       1.748   8.967  18.685  0.00  0.00    +0.000 A 
ATOM     24  C   UNL     1       2.631   8.537  17.690  0.00  0.00    +0.000 A 
ATOM     25  C   UNL     1       3.269   7.302  17.807  0.00  0.00    +0.000 A 
ATOM     26  C   UNL     1       3.032   6.495  18.920  0.00  0.00    +0.000 A 
ATOM     27  C   UNL     1       2.158   6.909  19.927  0.00  0.00    +0.000 A 
ATOM     28  C   UNL     1       1.517   8.145  19.801  0.00  0.00    +0.000 A 
ENDBRANCH  21  27
ENDBRANCH  20  21
ENDBRANCH  19  20
ENDBRANCH  18  19
ENDBRANCH   1  18
TORSDOF 8
ENDMDL
MODEL 8
REMARK VINA RESULT:      -7.3      0.999      1.260
REMARK  Name = 
REMARK  11 active torsions:
REMARK  status: ('A' for Active; 'I' for Inactive)
REMARK    1  A    between atoms: C_1  and  C_2
REMARK    2  A    between atoms: C_6  and  O_7
REMARK    3  A    between atoms: O_7  and  C_8
REMARK    4  A    between atoms: C_8  and  C_9
REMARK    5  A    between atoms: C_9  and  C_10
REMARK    6  A    between atoms: C_10  and  C_11
REMARK    7  A    between atoms: N_13  and  N_14
REMARK    8  A    between atoms: C_15  and  C_17
REMARK    9  A    between atoms: C_21  and  N_22
REMARK   10  A    between atoms: N_22  and  C_23
REMARK   11  A    between atoms: N_22  and  C_24
REMARK                            x       y       z     vdW  Elec       q    Type
REMARK                         _______ _______ _______ _____ _____    ______ ____
ROOT
ATOM      1  C   UNL     1       7.993   7.528  18.148  0.00  0.00    +0.000 C 
ATOM      2  O   UNL     1       7.735   7.855  16.992  0.00  0.00    +0.000 OA
ATOM      3  N   UNL     1       8.662   8.369  19.011  0.00  0.00    +0.000 N 
ATOM      4  H   UNL     1       8.772   8.215  20.011  0.00  0.00    +0.000 HD
ENDROOT
BRANCH   3   5
ATOM      5  N   UNL     1       9.091   9.606  18.498  0.00  0.00    +0.000 N 
ATOM      6  C   UNL     1       9.395  10.632  19.372  0.00  0.00    +0.000 C 
ATOM      7  O   UNL     1       9.383  10.495  20.592  0.00  0.00    +0.000 OA
ATOM      8  H   UNL     1       8.798   9.800  17.540  0.00  0.00    +0.000 HD
BRANCH   6   9
ATOM      9  C   UNL     1       9.729  11.947  18.744  0.00  0.00    +0.000 A 
ATOM     10  C   UNL     1      10.643  11.973  17.689  0.00  0.00    +0.000 A 
ATOM     11  C   UNL     1      10.971  13.187  17.096  0.00  0.00    +0.000 A 
ATOM     12  C   UNL     1      10.361  14.375  17.528  0.00  0.00    +0.000 A 
ATOM     13  C   UNL     1       9.406  14.388  18.559  0.00  0.00    +0.000 A 
ATOM     14  C   UNL     1       9.123  13.150  19.163  0.00  0.00    +0.000 A 
BRANCH  13  15
ATOM     15  N   UNL     1       8.770  15.554  18.954  0.00  0.00    +0.000 N 
ATOM     16  C   UNL     1       8.075  15.685  20.229  0.00  0.00    +0.000 C 
ATOM     17  C   UNL     1       8.794  16.764  18.136  0.00  0.00    +0.000 C 
ENDBRANCH  13  15
ENDBRANCH   6   9
ENDBRANCH   3   5
BRANCH   1  18
ATOM     18  C   UNL     1       7.620   6.174  18.730  0.00  0.00    +0.000 C 
BRANCH  18  19
ATOM     19  C   UNL     1       7.398   5.118  17.642  0.00  0.00    +0.000 C 
BRANCH  19  20
ATOM     20  C   UNL     1       5.923   4.991  17.252  0.00  0.00    +0.000 C 
BRANCH  20  21
ATOM     21  O   UNL     1       5.365   3.841  17.892  0.00  0.00    +0.000 OA
BRANCH  21  27
ATOM     22  C   UNL     1       0.676   2.490  18.868  0.00  0.00    +0.000 C 
ATOM     23  C   UNL     1       1.834   3.429  19.022  0.00  0.00    +0.000 A 
ATOM     24  C   UNL     1       1.734   4.575  19.816  0.00  0.00    +0.000 A 
ATOM     25  C   UNL     1       2.823   5.437  19.941  0.00  0.00    +0.000 A 
ATOM     26  C   UNL     1       4.018   5.156  19.277  0.00  0.00    +0.000 A 
ATOM     27  C   UNL     1       4.139   4.014  18.483  0.00  0.00    +0.000 A 
ATOM     28  C   UNL     1       3.041   3.156  18.358  0.00  0.00    +0.000 A 
ENDBRANCH  21  27
ENDBRANCH  20  21
ENDBRANCH  19  20
ENDBRANCH  18  19
ENDBRANCH   1  18
TORSDOF 8
ENDMDL
MODEL 9
REMARK VINA RESULT:      -7.3      5.439      7.653
REMARK  Name = 
REMARK  11 active torsions:
REMARK  status: ('A' for Active; 'I' for Inactive)
REMARK    1  A    between atoms: C_1  and  C_2
REMARK    2  A    between atoms: C_6  and  O_7
REMARK    3  A    between atoms: O_7  and  C_8
REMARK    4  A    between atoms: C_8  and  C_9
REMARK    5  A    between atoms: C_9  and  C_10
REMARK    6  A    between atoms: C_10  and  C_11
REMARK    7  A    between atoms: N_13  and  N_14
REMARK    8  A    between atoms: C_15  and  C_17
REMARK    9  A    between atoms: C_21  and  N_22
REMARK   10  A    between atoms: N_22  and  C_23
REMARK   11  A    between atoms: N_22  and  C_24
REMARK                            x       y       z     vdW  Elec       q    Type
REMARK                         _______ _______ _______ _____ _____    ______ ____
ROOT
ATOM      1  C   UNL     1       2.352   3.894  20.728  0.00  0.00    +0.000 C 
ATOM      2  O   UNL     1       1.268   3.775  21.296  0.00  0.00    +0.000 OA
ATOM      3  N   UNL     1       2.890   5.128  20.435  0.00  0.00    +0.000 N 
ATOM      4  H   UNL     1       3.839   5.290  20.104  0.00  0.00    +0.000 HD
ENDROOT
BRANCH   3   5
ATOM      5  N   UNL     1       2.120   6.258  20.763  0.00  0.00    +0.000 N 
ATOM      6  C   UNL     1       2.102   7.337  19.899  0.00  0.00    +0.000 C 
ATOM      7  O   UNL     1       2.670   7.331  18.811  0.00  0.00    +0.000 OA
ATOM      8  H   UNL     1       1.931   6.377  21.758  0.00  0.00    +0.000 HD
BRANCH   6   9
ATOM      9  C   UNL     1       1.356   8.542  20.377  0.00  0.00    +0.000 A 
ATOM     10  C   UNL     1       1.113   8.680  21.744  0.00  0.00    +0.000 A 
ATOM     11  C   UNL     1       0.415   9.791  22.207  0.00  0.00    +0.000 A 
ATOM     12  C   UNL     1      -0.011  10.784  21.312  0.00  0.00    +0.000 A 
ATOM     13  C   UNL     1       0.248  10.704  19.934  0.00  0.00    +0.000 A 
ATOM     14  C   UNL     1       0.924   9.551  19.492  0.00  0.00    +0.000 A 
BRANCH  13  15
ATOM     15  N   UNL     1      -0.132  11.707  19.057  0.00  0.00    +0.000 N 
ATOM     16  C   UNL     1       0.725  12.841  18.729  0.00  0.00    +0.000 C 
ATOM     17  C   UNL     1      -1.410  11.675  18.352  0.00  0.00    +0.000 C 
ENDBRANCH  13  15
ENDBRANCH   6   9
ENDBRANCH   3   5
BRANCH   1  18
ATOM     18  C   UNL     1       3.189   2.705  20.284  0.00  0.00    +0.000 C 
BRANCH  18  19
ATOM     19  C   UNL     1       2.873   2.280  18.846  0.00  0.00    +0.000 C 
BRANCH  19  20
ATOM     20  C   UNL     1       4.055   2.510  17.902  0.00  0.00    +0.000 C 
BRANCH  20  21
ATOM     21  O   UNL     1       3.857   3.731  17.187  0.00  0.00    +0.000 OA
BRANCH  21  27
ATOM     22  C   UNL     1       7.870   5.661  19.408  0.00  0.00    +0.000 C 
ATOM     23  C   UNL     1       6.789   5.709  18.369  0.00  0.00    +0.000 A 
ATOM     24  C   UNL     1       6.706   6.769  17.461  0.00  0.00    +0.000 A 
ATOM     25  C   UNL     1       5.690   6.794  16.507  0.00  0.00    +0.000 A 
ATOM     26  C   UNL     1       4.755   5.759  16.452  0.00  0.00    +0.000 A 
ATOM     27  C   UNL     1       4.824   4.690  17.347  0.00  0.00    +0.000 A 
ATOM     28  C   UNL     1       5.843   4.673  18.305  0.00  0.00    +0.000 A 
ENDBRANCH  21  27
ENDBRANCH  20  21
ENDBRANCH  19  20
ENDBRANCH  18  19
ENDBRANCH   1  18
TORSDOF 8
ENDMDL
