MODEL 1
REMARK VINA RESULT:      -9.0      0.000      0.000
REMARK  Name = 
REMARK  6 active torsions:
REMARK  status: ('A' for Active; 'I' for Inactive)
REMARK    1  A    between atoms: C_1  and  C_2
REMARK    2  A    between atoms: C_4  and  C_5
REMARK    3  A    between atoms: C_10  and  N_11
REMARK    4  A    between atoms: N_14  and  C_15
REMARK    5  A    between atoms: C_15  and  C_16
REMARK    6  A    between atoms: C_20  and  C_21
REMARK                            x       y       z     vdW  Elec       q    Type
REMARK                         _______ _______ _______ _____ _____    ______ ____
ROOT
ATOM      1  C   UNL     1       0.749  10.007  19.720  0.00  0.00    +0.000 A 
ATOM      2  N   UNL     1       0.697  10.728  18.587  0.00  0.00    +0.000 NA
ATOM      3  N   UNL     1       1.420  10.016  17.704  0.00  0.00    +0.000 N 
ATOM      4  C   UNL     1       1.923   8.848  18.197  0.00  0.00    +0.000 A 
ATOM      5  C   UNL     1       2.707   7.832  17.632  0.00  0.00    +0.000 A 
ATOM      6  C   UNL     1       3.009   6.767  18.480  0.00  0.00    +0.000 A 
ATOM      7  N   UNL     1       2.571   6.702  19.748  0.00  0.00    +0.000 NA
ATOM      8  C   UNL     1       1.804   7.679  20.272  0.00  0.00    +0.000 A 
ATOM      9  C   UNL     1       1.477   8.798  19.511  0.00  0.00    +0.000 A 
ATOM     10  H   UNL     1       1.519  10.390  16.763  0.00  0.00    +0.000 HD
ENDROOT
BRANCH   1  14
ATOM     11  C   UNL     1      -0.945  13.679  22.664  0.00  0.00    +0.000 C 
ATOM     12  C   UNL     1      -0.701  12.226  22.385  0.00  0.00    +0.000 A 
ATOM     13  C   UNL     1      -0.152  11.819  21.174  0.00  0.00    +0.000 A 
ATOM     14  C   UNL     1       0.109  10.461  20.958  0.00  0.00    +0.000 A 
ATOM     15  C   UNL     1      -0.239   9.551  21.954  0.00  0.00    +0.000 A 
ATOM     16  C   UNL     1      -0.796  10.041  23.124  0.00  0.00    +0.000 A 
ATOM     17  N   UNL     1      -1.022  11.351  23.364  0.00  0.00    +0.000 NA
ENDBRANCH   1  14
BRANCH   6  18
ATOM     18  N   UNL     1       3.785   5.709  17.979  0.00  0.00    +0.000 N 
ATOM     19  C   UNL     1       5.014   5.877  17.380  0.00  0.00    +0.000 C 
ATOM     20  O   UNL     1       5.585   6.934  17.142  0.00  0.00    +0.000 OA
ATOM     21  N   UNL     1       5.607   4.674  17.073  0.00  0.00    +0.000 N 
ATOM     22  H   UNL     1       3.467   4.770  18.143  0.00  0.00    +0.000 HD
ATOM     23  H   UNL     1       5.026   3.865  16.935  0.00  0.00    +0.000 HD
BRANCH  21  24
ATOM     24  C   UNL     1       6.918   4.655  16.448  0.00  0.00    +0.000 C 
BRANCH  24  25
ATOM     25  C   UNL     1       6.872   4.569  14.937  0.00  0.00    +0.000 A 
ATOM     26  C   UNL     1       6.044   3.643  14.306  0.00  0.00    +0.000 A 
ATOM     27  C   UNL     1       6.108   3.513  12.923  0.00  0.00    +0.000 A 
ATOM     28  C   UNL     1       6.974   4.326  12.203  0.00  0.00    +0.000 A 
ATOM     29  C   UNL     1       7.739   5.263  12.890  0.00  0.00    +0.000 A 
ATOM     30  C   UNL     1       8.644   6.200  12.150  0.00  0.00    +0.000 C 
ATOM     31  N   UNL     1       7.701   5.392  14.240  0.00  0.00    +0.000 NA
ENDBRANCH  24  25
ENDBRANCH  21  24
ENDBRANCH   6  18
TORSDOF 4
ENDMDL
MODEL 2
REMARK VINA RESULT:      -8.8      3.190     10.659
REMARK  Name = 
REMARK  6 active torsions:
REMARK  status: ('A' for Active; 'I' for Inactive)
REMARK    1  A    between atoms: C_1  and  C_2
REMARK    2  A    between atoms: C_4  and  C_5
REMARK    3  A    between atoms: C_10  and  N_11
REMARK    4  A    between atoms: N_14  and  C_15
REMARK    5  A    between atoms: C_15  and  C_16
REMARK    6  A    between atoms: C_20  and  C_21
REMARK                            x       y       z     vdW  Elec       q    Type
REMARK                         _______ _______ _______ _____ _____    ______ ____
ROOT
ATOM      1  C   UNL     1       4.053   5.913  18.608  0.00  0.00    +0.000 A 
ATOM      2  N   UNL     1       3.640   5.234  19.692  0.00  0.00    +0.000 NA
ATOM      3  N   UNL     1       2.668   6.001  20.218  0.00  0.00    +0.000 N 
ATOM      4  C   UNL     1       2.406   7.141  19.515  0.00  0.00    +0.000 A 
ATOM      5  C   UNL     1       1.495   8.190  19.703  0.00  0.00    +0.000 A 
ATOM      6  C   UNL     1       1.526   9.191  18.732  0.00  0.00    +0.000 A 
ATOM      7  N   UNL     1       2.357   9.154  17.677  0.00  0.00    +0.000 NA
ATOM      8  C   UNL     1       3.215   8.129  17.502  0.00  0.00    +0.000 A 
ATOM      9  C   UNL     1       3.279   7.100  18.436  0.00  0.00    +0.000 A 
ATOM     10  H   UNL     1       2.212   5.672  21.065  0.00  0.00    +0.000 HD
ENDROOT
BRANCH   1  14
ATOM     11  C   UNL     1       5.736   4.132  14.248  0.00  0.00    +0.000 C 
ATOM     12  C   UNL     1       5.963   4.563  15.666  0.00  0.00    +0.000 A 
ATOM     13  C   UNL     1       4.919   5.079  16.426  0.00  0.00    +0.000 A 
ATOM     14  C   UNL     1       5.147   5.430  17.761  0.00  0.00    +0.000 A 
ATOM     15  C   UNL     1       6.437   5.296  18.272  0.00  0.00    +0.000 A 
ATOM     16  C   UNL     1       7.422   4.789  17.441  0.00  0.00    +0.000 A 
ATOM     17  N   UNL     1       7.211   4.411  16.161  0.00  0.00    +0.000 NA
ENDBRANCH   1  14
BRANCH   6  18
ATOM     18  N   UNL     1       0.636  10.270  18.853  0.00  0.00    +0.000 N 
ATOM     19  C   UNL     1      -0.589  10.327  18.226  0.00  0.00    +0.000 C 
ATOM     20  O   UNL     1      -1.063   9.509  17.448  0.00  0.00    +0.000 OA
ATOM     21  N   UNL     1      -1.305  11.444  18.593  0.00  0.00    +0.000 N 
ATOM     22  H   UNL     1       0.868  11.005  19.499  0.00  0.00    +0.000 HD
ATOM     23  H   UNL     1      -0.810  12.255  18.921  0.00  0.00    +0.000 HD
BRANCH  21  24
ATOM     24  C   UNL     1      -2.631  11.663  18.042  0.00  0.00    +0.000 C 
BRANCH  24  25
ATOM     25  C   UNL     1      -3.671  12.022  19.081  0.00  0.00    +0.000 A 
ATOM     26  C   UNL     1      -3.293  12.602  20.290  0.00  0.00    +0.000 A 
ATOM     27  C   UNL     1      -4.259  12.817  21.267  0.00  0.00    +0.000 A 
ATOM     28  C   UNL     1      -5.580  12.474  21.005  0.00  0.00    +0.000 A 
ATOM     29  C   UNL     1      -5.897  11.941  19.759  0.00  0.00    +0.000 A 
ATOM     30  C   UNL     1      -7.317  11.610  19.411  0.00  0.00    +0.000 C 
ATOM     31  N   UNL     1      -4.966  11.711  18.801  0.00  0.00    +0.000 NA
ENDBRANCH  24  25
ENDBRANCH  21  24
ENDBRANCH   6  18
TORSDOF 4
ENDMDL
MODEL 3
REMARK VINA RESULT:      -8.7      0.639      1.326
REMARK  Name = 
REMARK  6 active torsions:
REMARK  status: ('A' for Active; 'I' for Inactive)
REMARK    1  A    between atoms: C_1  and  C_2
REMARK    2  A    between atoms: C_4  and  C_5
REMARK    3  A    between atoms: C_10  and  N_11
REMARK    4  A    between atoms: N_14  and  C_15
REMARK    5  A    between atoms: C_15  and  C_16
REMARK    6  A    between atoms: C_20  and  C_21
REMARK                            x       y       z     vdW  Elec       q    Type
REMARK                         _______ _______ _______ _____ _____    ______ ____
ROOT
ATOM      1  C   UNL     1       0.888   9.939  19.676  0.00  0.00    +0.000 A 
ATOM      2  N   UNL     1       0.889  10.786  18.632  0.00  0.00    +0.000 NA
ATOM      3  N   UNL     1       1.591  10.144  17.681  0.00  0.00    +0.000 N 
ATOM      4  C   UNL     1       2.031   8.905  18.043  0.00  0.00    +0.000 A 
ATOM      5  C   UNL     1       2.775   7.922  17.375  0.00  0.00    +0.000 A 
ATOM      6  C   UNL     1       3.013   6.754  18.099  0.00  0.00    +0.000 A 
ATOM      7  N   UNL     1       2.551   6.568  19.347  0.00  0.00    +0.000 NA
ATOM      8  C   UNL     1       1.823   7.515  19.971  0.00  0.00    +0.000 A 
ATOM      9  C   UNL     1       1.562   8.728  19.338  0.00  0.00    +0.000 A 
ATOM     10  H   UNL     1       1.723  10.617  16.790  0.00  0.00    +0.000 HD
ENDROOT
BRANCH   1  14
ATOM     11  C   UNL     1      -1.097  13.305  22.798  0.00  0.00    +0.000 C 
ATOM     12  C   UNL     1      -0.699  11.899  22.464  0.00  0.00    +0.000 A 
ATOM     13  C   UNL     1      -0.156  11.592  21.221  0.00  0.00    +0.000 A 
ATOM     14  C   UNL     1       0.251  10.281  20.951  0.00  0.00    +0.000 A 
ATOM     15  C   UNL     1       0.050   9.309  21.929  0.00  0.00    +0.000 A 
ATOM     16  C   UNL     1      -0.512   9.697  23.134  0.00  0.00    +0.000 A 
ATOM     17  N   UNL     1      -0.877  10.965  23.424  0.00  0.00    +0.000 NA
ENDBRANCH   1  14
BRANCH   6  18
ATOM     18  N   UNL     1       3.746   5.724  17.489  0.00  0.00    +0.000 N 
ATOM     19  C   UNL     1       5.050   5.856  17.069  0.00  0.00    +0.000 C 
ATOM     20  O   UNL     1       5.742   6.867  17.103  0.00  0.00    +0.000 OA
ATOM     21  N   UNL     1       5.565   4.669  16.600  0.00  0.00    +0.000 N 
ATOM     22  H   UNL     1       3.324   4.813  17.433  0.00  0.00    +0.000 HD
ATOM     23  H   UNL     1       4.935   3.970  16.247  0.00  0.00    +0.000 HD
BRANCH  21  24
ATOM     24  C   UNL     1       6.938   4.615  16.128  0.00  0.00    +0.000 C 
BRANCH  24  25
ATOM     25  C   UNL     1       7.062   4.559  14.620  0.00  0.00    +0.000 A 
ATOM     26  C   UNL     1       7.921   5.426  13.948  0.00  0.00    +0.000 A 
ATOM     27  C   UNL     1       7.929   5.424  12.558  0.00  0.00    +0.000 A 
ATOM     28  C   UNL     1       7.101   4.542  11.874  0.00  0.00    +0.000 A 
ATOM     29  C   UNL     1       6.302   3.670  12.607  0.00  0.00    +0.000 A 
ATOM     30  C   UNL     1       5.437   2.662  11.912  0.00  0.00    +0.000 C 
ATOM     31  N   UNL     1       6.270   3.669  13.963  0.00  0.00    +0.000 NA
ENDBRANCH  24  25
ENDBRANCH  21  24
ENDBRANCH   6  18
TORSDOF 4
ENDMDL
MODEL 4
REMARK VINA RESULT:      -8.6      2.978     10.579
REMARK  Name = 
REMARK  6 active torsions:
REMARK  status: ('A' for Active; 'I' for Inactive)
REMARK    1  A    between atoms: C_1  and  C_2
REMARK    2  A    between atoms: C_4  and  C_5
REMARK    3  A    between atoms: C_10  and  N_11
REMARK    4  A    between atoms: N_14  and  C_15
REMARK    5  A    between atoms: C_15  and  C_16
REMARK    6  A    between atoms: C_20  and  C_21
REMARK                            x       y       z     vdW  Elec       q    Type
REMARK                         _______ _______ _______ _____ _____    ______ ____
ROOT
ATOM      1  C   UNL     1       4.030   5.963  18.629  0.00  0.00    +0.000 A 
ATOM      2  N   UNL     1       3.592   5.281  19.701  0.00  0.00    +0.000 NA
ATOM      3  N   UNL     1       2.605   6.045  20.203  0.00  0.00    +0.000 N 
ATOM      4  C   UNL     1       2.358   7.186  19.497  0.00  0.00    +0.000 A 
ATOM      5  C   UNL     1       1.441   8.233  19.664  0.00  0.00    +0.000 A 
ATOM      6  C   UNL     1       1.493   9.236  18.696  0.00  0.00    +0.000 A 
ATOM      7  N   UNL     1       2.350   9.202  17.662  0.00  0.00    +0.000 NA
ATOM      8  C   UNL     1       3.215   8.180  17.506  0.00  0.00    +0.000 A 
ATOM      9  C   UNL     1       3.258   7.148  18.440  0.00  0.00    +0.000 A 
ATOM     10  H   UNL     1       2.129   5.713  21.039  0.00  0.00    +0.000 HD
ENDROOT
BRANCH   1  14
ATOM     11  C   UNL     1       5.829   4.218  14.300  0.00  0.00    +0.000 C 
ATOM     12  C   UNL     1       6.017   4.634  15.728  0.00  0.00    +0.000 A 
ATOM     13  C   UNL     1       4.954   5.147  16.464  0.00  0.00    +0.000 A 
ATOM     14  C   UNL     1       5.145   5.484  17.808  0.00  0.00    +0.000 A 
ATOM     15  C   UNL     1       6.419   5.339  18.354  0.00  0.00    +0.000 A 
ATOM     16  C   UNL     1       7.426   4.836  17.546  0.00  0.00    +0.000 A 
ATOM     17  N   UNL     1       7.250   4.472  16.257  0.00  0.00    +0.000 NA
ENDBRANCH   1  14
BRANCH   6  18
ATOM     18  N   UNL     1       0.599  10.313  18.796  0.00  0.00    +0.000 N 
ATOM     19  C   UNL     1      -0.623  10.356  18.161  0.00  0.00    +0.000 C 
ATOM     20  O   UNL     1      -1.088   9.525  17.391  0.00  0.00    +0.000 OA
ATOM     21  N   UNL     1      -1.345  11.476  18.508  0.00  0.00    +0.000 N 
ATOM     22  H   UNL     1       0.823  11.057  19.434  0.00  0.00    +0.000 HD
ATOM     23  H   UNL     1      -0.855  12.293  18.828  0.00  0.00    +0.000 HD
BRANCH  21  24
ATOM     24  C   UNL     1      -2.669  11.681  17.945  0.00  0.00    +0.000 C 
BRANCH  24  25
ATOM     25  C   UNL     1      -3.734  11.967  18.983  0.00  0.00    +0.000 A 
ATOM     26  C   UNL     1      -5.083  11.810  18.673  0.00  0.00    +0.000 A 
ATOM     27  C   UNL     1      -6.039  12.187  19.610  0.00  0.00    +0.000 A 
ATOM     28  C   UNL     1      -5.626  12.685  20.840  0.00  0.00    +0.000 A 
ATOM     29  C   UNL     1      -4.263  12.772  21.103  0.00  0.00    +0.000 A 
ATOM     30  C   UNL     1      -3.772  13.248  22.436  0.00  0.00    +0.000 C 
ATOM     31  N   UNL     1      -3.317  12.424  20.194  0.00  0.00    +0.000 NA
ENDBRANCH  24  25
ENDBRANCH  21  24
ENDBRANCH   6  18
TORSDOF 4
ENDMDL
MODEL 5
REMARK VINA RESULT:      -8.6      3.050      9.768
REMARK  Name = 
REMARK  6 active torsions:
REMARK  status: ('A' for Active; 'I' for Inactive)
REMARK    1  A    between atoms: C_1  and  C_2
REMARK    2  A    between atoms: C_4  and  C_5
REMARK    3  A    between atoms: C_10  and  N_11
REMARK    4  A    between atoms: N_14  and  C_15
REMARK    5  A    between atoms: C_15  and  C_16
REMARK    6  A    between atoms: C_20  and  C_21
REMARK                            x       y       z     vdW  Elec       q    Type
REMARK                         _______ _______ _______ _____ _____    ______ ____
ROOT
ATOM      1  C   UNL     1       4.190   5.041  18.758  0.00  0.00    +0.000 A 
ATOM      2  N   UNL     1       3.845   4.091  19.644  0.00  0.00    +0.000 NA
ATOM      3  N   UNL     1       2.866   4.654  20.374  0.00  0.00    +0.000 N 
ATOM      4  C   UNL     1       2.535   5.922  19.993  0.00  0.00    +0.000 A 
ATOM      5  C   UNL     1       1.594   6.847  20.468  0.00  0.00    +0.000 A 
ATOM      6  C   UNL     1       1.550   8.062  19.784  0.00  0.00    +0.000 A 
ATOM      7  N   UNL     1       2.341   8.331  18.732  0.00  0.00    +0.000 NA
ATOM      8  C   UNL     1       3.229   7.425  18.277  0.00  0.00    +0.000 A 
ATOM      9  C   UNL     1       3.367   6.196  18.916  0.00  0.00    +0.000 A 
ATOM     10  H   UNL     1       2.455   4.100  21.122  0.00  0.00    +0.000 HD
ENDROOT
BRANCH   1  14
ATOM     11  C   UNL     1       5.744   4.102  14.097  0.00  0.00    +0.000 C 
ATOM     12  C   UNL     1       6.023   4.378  15.544  0.00  0.00    +0.000 A 
ATOM     13  C   UNL     1       4.983   4.631  16.432  0.00  0.00    +0.000 A 
ATOM     14  C   UNL     1       5.268   4.840  17.785  0.00  0.00    +0.000 A 
ATOM     15  C   UNL     1       6.601   4.836  18.192  0.00  0.00    +0.000 A 
ATOM     16  C   UNL     1       7.576   4.592  17.239  0.00  0.00    +0.000 A 
ATOM     17  N   UNL     1       7.317   4.353  15.935  0.00  0.00    +0.000 NA
ENDBRANCH   1  14
BRANCH   6  18
ATOM     18  N   UNL     1       0.626   9.033  20.201  0.00  0.00    +0.000 N 
ATOM     19  C   UNL     1       0.289  10.140  19.454  0.00  0.00    +0.000 C 
ATOM     20  O   UNL     1       0.759  10.477  18.374  0.00  0.00    +0.000 OA
ATOM     21  N   UNL     1      -0.713  10.876  20.045  0.00  0.00    +0.000 N 
ATOM     22  H   UNL     1       0.119   8.869  21.053  0.00  0.00    +0.000 HD
ATOM     23  H   UNL     1      -0.840  10.816  21.040  0.00  0.00    +0.000 HD
BRANCH  21  24
ATOM     24  C   UNL     1      -1.211  12.072  19.389  0.00  0.00    +0.000 C 
BRANCH  24  25
ATOM     25  C   UNL     1      -2.446  11.837  18.546  0.00  0.00    +0.000 A 
ATOM     26  C   UNL     1      -3.717  12.016  19.088  0.00  0.00    +0.000 A 
ATOM     27  C   UNL     1      -4.829  11.685  18.321  0.00  0.00    +0.000 A 
ATOM     28  C   UNL     1      -4.648  11.209  17.029  0.00  0.00    +0.000 A 
ATOM     29  C   UNL     1      -3.353  11.098  16.533  0.00  0.00    +0.000 A 
ATOM     30  C   UNL     1      -3.112  10.645  15.125  0.00  0.00    +0.000 C 
ATOM     31  N   UNL     1      -2.257  11.402  17.271  0.00  0.00    +0.000 NA
ENDBRANCH  24  25
ENDBRANCH  21  24
ENDBRANCH   6  18
TORSDOF 4
ENDMDL
MODEL 6
REMARK VINA RESULT:      -8.5      2.409     10.759
REMARK  Name = 
REMARK  6 active torsions:
REMARK  status: ('A' for Active; 'I' for Inactive)
REMARK    1  A    between atoms: C_1  and  C_2
REMARK    2  A    between atoms: C_4  and  C_5
REMARK    3  A    between atoms: C_10  and  N_11
REMARK    4  A    between atoms: N_14  and  C_15
REMARK    5  A    between atoms: C_15  and  C_16
REMARK    6  A    between atoms: C_20  and  C_21
REMARK                            x       y       z     vdW  Elec       q    Type
REMARK                         _______ _______ _______ _____ _____    ______ ____
ROOT
ATOM      1  C   UNL     1       4.082   5.873  18.697  0.00  0.00    +0.000 A 
ATOM      2  N   UNL     1       3.660   5.210  19.788  0.00  0.00    +0.000 NA
ATOM      3  N   UNL     1       2.653   5.961  20.267  0.00  0.00    +0.000 N 
ATOM      4  C   UNL     1       2.376   7.074  19.528  0.00  0.00    +0.000 A 
ATOM      5  C   UNL     1       1.431   8.100  19.664  0.00  0.00    +0.000 A 
ATOM      6  C   UNL     1       1.458   9.077  18.668  0.00  0.00    +0.000 A 
ATOM      7  N   UNL     1       2.318   9.036  17.636  0.00  0.00    +0.000 NA
ATOM      8  C   UNL     1       3.210   8.034  17.510  0.00  0.00    +0.000 A 
ATOM      9  C   UNL     1       3.278   7.031  18.473  0.00  0.00    +0.000 A 
ATOM     10  H   UNL     1       2.184   5.641  21.111  0.00  0.00    +0.000 HD
ENDROOT
BRANCH   1  14
ATOM     11  C   UNL     1       5.942   4.098  14.406  0.00  0.00    +0.000 C 
ATOM     12  C   UNL     1       6.113   4.537  15.830  0.00  0.00    +0.000 A 
ATOM     13  C   UNL     1       5.036   5.042  16.550  0.00  0.00    +0.000 A 
ATOM     14  C   UNL     1       5.211   5.401  17.891  0.00  0.00    +0.000 A 
ATOM     15  C   UNL     1       6.483   5.284  18.449  0.00  0.00    +0.000 A 
ATOM     16  C   UNL     1       7.504   4.787  17.656  0.00  0.00    +0.000 A 
ATOM     17  N   UNL     1       7.344   4.402  16.370  0.00  0.00    +0.000 NA
ENDBRANCH   1  14
BRANCH   6  18
ATOM     18  N   UNL     1       0.535  10.132  18.736  0.00  0.00    +0.000 N 
ATOM     19  C   UNL     1       0.321  10.891  19.865  0.00  0.00    +0.000 C 
ATOM     20  O   UNL     1       0.837  10.745  20.966  0.00  0.00    +0.000 OA
ATOM     21  N   UNL     1      -0.560  11.923  19.634  0.00  0.00    +0.000 N 
ATOM     22  H   UNL     1       0.063  10.403  17.891  0.00  0.00    +0.000 HD
ATOM     23  H   UNL     1      -1.227  11.837  18.886  0.00  0.00    +0.000 HD
BRANCH  21  24
ATOM     24  C   UNL     1      -0.893  12.841  20.709  0.00  0.00    +0.000 C 
BRANCH  24  25
ATOM     25  C   UNL     1      -2.335  12.750  21.163  0.00  0.00    +0.000 A 
ATOM     26  C   UNL     1      -3.373  12.791  20.235  0.00  0.00    +0.000 A 
ATOM     27  C   UNL     1      -4.686  12.818  20.693  0.00  0.00    +0.000 A 
ATOM     28  C   UNL     1      -4.931  12.776  22.059  0.00  0.00    +0.000 A 
ATOM     29  C   UNL     1      -3.850  12.689  22.930  0.00  0.00    +0.000 A 
ATOM     30  C   UNL     1      -4.068  12.583  24.409  0.00  0.00    +0.000 C 
ATOM     31  N   UNL     1      -2.563  12.677  22.502  0.00  0.00    +0.000 NA
ENDBRANCH  24  25
ENDBRANCH  21  24
ENDBRANCH   6  18
TORSDOF 4
ENDMDL
MODEL 7
REMARK VINA RESULT:      -8.4      2.229     11.058
REMARK  Name = 
REMARK  6 active torsions:
REMARK  status: ('A' for Active; 'I' for Inactive)
REMARK    1  A    between atoms: C_1  and  C_2
REMARK    2  A    between atoms: C_4  and  C_5
REMARK    3  A    between atoms: C_10  and  N_11
REMARK    4  A    between atoms: N_14  and  C_15
REMARK    5  A    between atoms: C_15  and  C_16
REMARK    6  A    between atoms: C_20  and  C_21
REMARK                            x       y       z     vdW  Elec       q    Type
REMARK                         _______ _______ _______ _____ _____    ______ ____
ROOT
ATOM      1  C   UNL     1       3.986   6.174  18.553  0.00  0.00    +0.000 A 
ATOM      2  N   UNL     1       3.778   5.277  19.533  0.00  0.00    +0.000 NA
ATOM      3  N   UNL     1       2.802   5.820  20.282  0.00  0.00    +0.000 N 
ATOM      4  C   UNL     1       2.342   7.021  19.827  0.00  0.00    +0.000 A 
ATOM      5  C   UNL     1       1.358   7.905  20.292  0.00  0.00    +0.000 A 
ATOM      6  C   UNL     1       1.169   9.051  19.520  0.00  0.00    +0.000 A 
ATOM      7  N   UNL     1       1.867   9.293  18.398  0.00  0.00    +0.000 NA
ATOM      8  C   UNL     1       2.799   8.426  17.955  0.00  0.00    +0.000 A 
ATOM      9  C   UNL     1       3.079   7.269  18.677  0.00  0.00    +0.000 A 
ATOM     10  H   UNL     1       2.487   5.300  21.097  0.00  0.00    +0.000 HD
ENDROOT
BRANCH   1  14
ATOM     11  C   UNL     1       5.516   4.168  14.234  0.00  0.00    +0.000 C 
ATOM     12  C   UNL     1       5.761   5.007  15.452  0.00  0.00    +0.000 A 
ATOM     13  C   UNL     1       4.746   5.230  16.376  0.00  0.00    +0.000 A 
ATOM     14  C   UNL     1       5.015   5.978  17.528  0.00  0.00    +0.000 A 
ATOM     15  C   UNL     1       6.289   6.520  17.685  0.00  0.00    +0.000 A 
ATOM     16  C   UNL     1       7.236   6.263  16.709  0.00  0.00    +0.000 A 
ATOM     17  N   UNL     1       7.004   5.513  15.609  0.00  0.00    +0.000 NA
ENDBRANCH   1  14
BRANCH   6  18
ATOM     18  N   UNL     1       0.194   9.978  19.922  0.00  0.00    +0.000 N 
ATOM     19  C   UNL     1       0.449  11.048  20.750  0.00  0.00    +0.000 C 
ATOM     20  O   UNL     1       1.509  11.327  21.297  0.00  0.00    +0.000 OA
ATOM     21  N   UNL     1      -0.655  11.857  20.904  0.00  0.00    +0.000 N 
ATOM     22  H   UNL     1      -0.723   9.906  19.515  0.00  0.00    +0.000 HD
ATOM     23  H   UNL     1      -1.570  11.464  20.767  0.00  0.00    +0.000 HD
BRANCH  21  24
ATOM     24  C   UNL     1      -0.566  13.046  21.733  0.00  0.00    +0.000 C 
BRANCH  24  25
ATOM     25  C   UNL     1      -1.643  13.130  22.793  0.00  0.00    +0.000 A 
ATOM     26  C   UNL     1      -2.586  12.113  22.928  0.00  0.00    +0.000 A 
ATOM     27  C   UNL     1      -3.626  12.273  23.836  0.00  0.00    +0.000 A 
ATOM     28  C   UNL     1      -3.687  13.429  24.605  0.00  0.00    +0.000 A 
ATOM     29  C   UNL     1      -2.687  14.385  24.454  0.00  0.00    +0.000 A 
ATOM     30  C   UNL     1      -2.679  15.620  25.303  0.00  0.00    +0.000 C 
ATOM     31  N   UNL     1      -1.674  14.252  23.562  0.00  0.00    +0.000 NA
ENDBRANCH  24  25
ENDBRANCH  21  24
ENDBRANCH   6  18
TORSDOF 4
ENDMDL
MODEL 8
REMARK VINA RESULT:      -8.4      2.358     10.242
REMARK  Name = 
REMARK  6 active torsions:
REMARK  status: ('A' for Active; 'I' for Inactive)
REMARK    1  A    between atoms: C_1  and  C_2
REMARK    2  A    between atoms: C_4  and  C_5
REMARK    3  A    between atoms: C_10  and  N_11
REMARK    4  A    between atoms: N_14  and  C_15
REMARK    5  A    between atoms: C_15  and  C_16
REMARK    6  A    between atoms: C_20  and  C_21
REMARK                            x       y       z     vdW  Elec       q    Type
REMARK                         _______ _______ _______ _____ _____    ______ ____
ROOT
ATOM      1  C   UNL     1       4.341   4.089  18.631  0.00  0.00    +0.000 A 
ATOM      2  N   UNL     1       4.032   2.875  19.118  0.00  0.00    +0.000 NA
ATOM      3  N   UNL     1       3.010   3.103  19.962  0.00  0.00    +0.000 N 
ATOM      4  C   UNL     1       2.616   4.408  20.033  0.00  0.00    +0.000 A 
ATOM      5  C   UNL     1       1.617   5.065  20.765  0.00  0.00    +0.000 A 
ATOM      6  C   UNL     1       1.519   6.439  20.545  0.00  0.00    +0.000 A 
ATOM      7  N   UNL     1       2.314   7.094  19.681  0.00  0.00    +0.000 NA
ATOM      8  C   UNL     1       3.259   6.445  18.973  0.00  0.00    +0.000 A 
ATOM      9  C   UNL     1       3.452   5.077  19.150  0.00  0.00    +0.000 A 
ATOM     10  H   UNL     1       2.617   2.305  20.455  0.00  0.00    +0.000 HD
ENDROOT
BRANCH   1  14
ATOM     11  C   UNL     1       6.205   3.928  13.992  0.00  0.00    +0.000 C 
ATOM     12  C   UNL     1       6.354   4.204  15.458  0.00  0.00    +0.000 A 
ATOM     13  C   UNL     1       5.269   4.069  16.319  0.00  0.00    +0.000 A 
ATOM     14  C   UNL     1       5.446   4.288  17.689  0.00  0.00    +0.000 A 
ATOM     15  C   UNL     1       6.703   4.685  18.142  0.00  0.00    +0.000 A 
ATOM     16  C   UNL     1       7.724   4.811  17.215  0.00  0.00    +0.000 A 
ATOM     17  N   UNL     1       7.580   4.569  15.893  0.00  0.00    +0.000 NA
ENDBRANCH   1  14
BRANCH   6  18
ATOM     18  N   UNL     1       0.536   7.162  21.238  0.00  0.00    +0.000 N 
ATOM     19  C   UNL     1       0.755   8.389  21.822  0.00  0.00    +0.000 C 
ATOM     20  O   UNL     1       1.813   9.004  21.881  0.00  0.00    +0.000 OA
ATOM     21  N   UNL     1      -0.399   8.925  22.348  0.00  0.00    +0.000 N 
ATOM     22  H   UNL     1      -0.404   6.803  21.237  0.00  0.00    +0.000 HD
ATOM     23  H   UNL     1      -1.146   8.307  22.614  0.00  0.00    +0.000 HD
BRANCH  21  24
ATOM     24  C   UNL     1      -0.361  10.227  22.991  0.00  0.00    +0.000 C 
BRANCH  24  25
ATOM     25  C   UNL     1      -1.140  11.294  22.251  0.00  0.00    +0.000 A 
ATOM     26  C   UNL     1      -2.191  11.963  22.876  0.00  0.00    +0.000 A 
ATOM     27  C   UNL     1      -2.956  12.857  22.135  0.00  0.00    +0.000 A 
ATOM     28  C   UNL     1      -2.639  13.081  20.801  0.00  0.00    +0.000 A 
ATOM     29  C   UNL     1      -1.548  12.415  20.252  0.00  0.00    +0.000 A 
ATOM     30  C   UNL     1      -1.134  12.669  18.834  0.00  0.00    +0.000 C 
ATOM     31  N   UNL     1      -0.800  11.528  20.955  0.00  0.00    +0.000 NA
ENDBRANCH  24  25
ENDBRANCH  21  24
ENDBRANCH   6  18
TORSDOF 4
ENDMDL
MODEL 9
REMARK VINA RESULT:      -8.4      1.567      2.239
REMARK  Name = 
REMARK  6 active torsions:
REMARK  status: ('A' for Active; 'I' for Inactive)
REMARK    1  A    between atoms: C_1  and  C_2
REMARK    2  A    between atoms: C_4  and  C_5
REMARK    3  A    between atoms: C_10  and  N_11
REMARK    4  A    between atoms: N_14  and  C_15
REMARK    5  A    between atoms: C_15  and  C_16
REMARK    6  A    between atoms: C_20  and  C_21
REMARK                            x       y       z     vdW  Elec       q    Type
REMARK                         _______ _______ _______ _____ _____    ______ ____
ROOT
ATOM      1  C   UNL     1       0.847   9.769  20.310  0.00  0.00    +0.000 A 
ATOM      2  N   UNL     1       0.772   9.257  21.550  0.00  0.00    +0.000 NA
ATOM      3  N   UNL     1       1.375   8.058  21.455  0.00  0.00    +0.000 N 
ATOM      4  C   UNL     1       1.864   7.769  20.215  0.00  0.00    +0.000 A 
ATOM      5  C   UNL     1       2.546   6.661  19.692  0.00  0.00    +0.000 A 
ATOM      6  C   UNL     1       2.897   6.755  18.345  0.00  0.00    +0.000 A 
ATOM      7  N   UNL     1       2.619   7.835  17.596  0.00  0.00    +0.000 NA
ATOM      8  C   UNL     1       1.977   8.899  18.118  0.00  0.00    +0.000 A 
ATOM      9  C   UNL     1       1.558   8.884  19.446  0.00  0.00    +0.000 A 
ATOM     10  H   UNL     1       1.426   7.487  22.295  0.00  0.00    +0.000 HD
ENDROOT
BRANCH   1  14
ATOM     11  C   UNL     1      -3.067  12.877  20.114  0.00  0.00    +0.000 C 
ATOM     12  C   UNL     1      -1.621  12.569  19.865  0.00  0.00    +0.000 A 
ATOM     13  C   UNL     1      -1.078  11.350  20.257  0.00  0.00    +0.000 A 
ATOM     14  C   UNL     1       0.263  11.070  19.971  0.00  0.00    +0.000 A 
ATOM     15  C   UNL     1       1.027  12.051  19.342  0.00  0.00    +0.000 A 
ATOM     16  C   UNL     1       0.411  13.243  19.000  0.00  0.00    +0.000 A 
ATOM     17  N   UNL     1      -0.890  13.517  19.237  0.00  0.00    +0.000 NA
ENDBRANCH   1  14
BRANCH   6  18
ATOM     18  N   UNL     1       3.589   5.685  17.756  0.00  0.00    +0.000 N 
ATOM     19  C   UNL     1       4.871   5.780  17.262  0.00  0.00    +0.000 C 
ATOM     20  O   UNL     1       5.571   6.783  17.205  0.00  0.00    +0.000 OA
ATOM     21  N   UNL     1       5.351   4.563  16.833  0.00  0.00    +0.000 N 
ATOM     22  H   UNL     1       3.157   4.777  17.771  0.00  0.00    +0.000 HD
ATOM     23  H   UNL     1       4.697   3.853  16.552  0.00  0.00    +0.000 HD
BRANCH  21  24
ATOM     24  C   UNL     1       6.696   4.468  16.295  0.00  0.00    +0.000 C 
BRANCH  24  25
ATOM     25  C   UNL     1       6.748   4.461  14.782  0.00  0.00    +0.000 A 
ATOM     26  C   UNL     1       5.950   3.583  14.051  0.00  0.00    +0.000 A 
ATOM     27  C   UNL     1       6.102   3.524  12.670  0.00  0.00    +0.000 A 
ATOM     28  C   UNL     1       7.026   4.357  12.051  0.00  0.00    +0.000 A 
ATOM     29  C   UNL     1       7.759   5.242  12.835  0.00  0.00    +0.000 A 
ATOM     30  C   UNL     1       8.724   6.200  12.205  0.00  0.00    +0.000 C 
ATOM     31  N   UNL     1       7.634   5.303  14.184  0.00  0.00    +0.000 NA
ENDBRANCH  24  25
ENDBRANCH  21  24
ENDBRANCH   6  18
TORSDOF 4
ENDMDL
