MODEL 1
REMARK VINA RESULT:      -7.8      0.000      0.000
REMARK  Name = 
REMARK  11 active torsions:
REMARK  status: ('A' for Active; 'I' for Inactive)
REMARK    1  A    between atoms: C_1  and  C_2
REMARK    2  A    between atoms: C_2  and  C_3
REMARK    3  A    between atoms: C_7  and  C_8
REMARK    4  A    between atoms: N_10  and  C_11
REMARK    5  A    between atoms: N_10  and  C_13
REMARK    6  A    between atoms: C_11  and  C_12
REMARK    7  A    between atoms: C_13  and  C_14
REMARK    8  A    between atoms: N_19  and  C_20
REMARK    9  A    between atoms: C_21  and  C_22
REMARK   10  A    between atoms: C_24  and  C_25
REMARK   11  A    between atoms: C_27  and  C_28
REMARK                            x       y       z     vdW  Elec       q    Type
REMARK                         _______ _______ _______ _____ _____    ______ ____
ROOT
ATOM      1  C   UNL     1       2.278   5.833  19.990  0.00  0.00    +0.000 A 
ATOM      2  N   UNL     1       1.670   6.918  20.629  0.00  0.00    +0.000 NA
ATOM      3  C   UNL     1       1.754   7.903  19.784  0.00  0.00    +0.000 A 
ATOM      4  N   UNL     1       2.485   7.512  18.681  0.00  0.00    +0.000 N 
ATOM      5  C   UNL     1       2.789   6.185  18.712  0.00  0.00    +0.000 A 
ATOM      6  C   UNL     1       2.521   8.581  17.710  0.00  0.00    +0.000 C 
ATOM      7  C   UNL     1       2.029   9.775  18.527  0.00  0.00    +0.000 C 
ATOM      8  N   UNL     1       1.333   9.193  19.678  0.00  0.00    +0.000 N 
ENDROOT
BRANCH   8   9
ATOM      9  C   UNL     1       0.346   9.932  20.369  0.00  0.00    +0.000 A 
ATOM     10  C   UNL     1      -0.742  10.583  19.718  0.00  0.00    +0.000 A 
ATOM     11  C   UNL     1      -0.949  10.676  18.225  0.00  0.00    +0.000 C 
ATOM     12  C   UNL     1      -1.696  11.337  20.459  0.00  0.00    +0.000 A 
ATOM     13  C   UNL     1      -1.613  11.495  21.836  0.00  0.00    +0.000 A 
ATOM     14  C   UNL     1      -2.608  12.301  22.613  0.00  0.00    +0.000 C 
ATOM     15  C   UNL     1      -0.553  10.885  22.488  0.00  0.00    +0.000 A 
ATOM     16  C   UNL     1       0.412  10.113  21.794  0.00  0.00    +0.000 A 
ATOM     17  C   UNL     1       1.481   9.522  22.688  0.00  0.00    +0.000 C 
ENDBRANCH   8   9
BRANCH   5  18
ATOM     18  C   UNL     1       3.265   5.261  17.680  0.00  0.00    +0.000 C 
ATOM     19  O   UNL     1       2.521   4.335  17.345  0.00  0.00    +0.000 OA
ATOM     20  N   UNL     1       4.536   5.330  17.061  0.00  0.00    +0.000 N 
BRANCH  20  21
ATOM     21  C   UNL     1       5.411   6.496  17.009  0.00  0.00    +0.000 C 
ATOM     22  C   UNL     1       6.658   6.297  17.871  0.00  0.00    +0.000 C 
ENDBRANCH  20  21
BRANCH  20  23
ATOM     23  C   UNL     1       4.911   4.216  16.157  0.00  0.00    +0.000 C 
BRANCH  23  24
ATOM     24  C   UNL     1       5.444   4.706  14.832  0.00  0.00    +0.000 C 
ATOM     25  C   UNL     1       6.907   4.490  14.510  0.00  0.00    +0.000 C 
ATOM     26  C   UNL     1       5.857   3.765  13.719  0.00  0.00    +0.000 C 
ENDBRANCH  23  24
ENDBRANCH  20  23
ENDBRANCH   5  18
BRANCH   1  28
ATOM     27  C   UNL     1       1.116   3.612  20.586  0.00  0.00    +0.000 C 
ATOM     28  C   UNL     1       2.306   4.539  20.755  0.00  0.00    +0.000 C 
ENDBRANCH   1  28
TORSDOF 6
ENDMDL
MODEL 2
REMARK VINA RESULT:      -7.7      0.090      1.663
REMARK  Name = 
REMARK  11 active torsions:
REMARK  status: ('A' for Active; 'I' for Inactive)
REMARK    1  A    between atoms: C_1  and  C_2
REMARK    2  A    between atoms: C_2  and  C_3
REMARK    3  A    between atoms: C_7  and  C_8
REMARK    4  A    between atoms: N_10  and  C_11
REMARK    5  A    between atoms: N_10  and  C_13
REMARK    6  A    between atoms: C_11  and  C_12
REMARK    7  A    between atoms: C_13  and  C_14
REMARK    8  A    between atoms: N_19  and  C_20
REMARK    9  A    between atoms: C_21  and  C_22
REMARK   10  A    between atoms: C_24  and  C_25
REMARK   11  A    between atoms: C_27  and  C_28
REMARK                            x       y       z     vdW  Elec       q    Type
REMARK                         _______ _______ _______ _____ _____    ______ ____
ROOT
ATOM      1  C   UNL     1       2.284   5.878  19.963  0.00  0.00    +0.000 A 
ATOM      2  N   UNL     1       1.699   6.972  20.608  0.00  0.00    +0.000 NA
ATOM      3  C   UNL     1       1.783   7.954  19.759  0.00  0.00    +0.000 A 
ATOM      4  N   UNL     1       2.492   7.551  18.646  0.00  0.00    +0.000 N 
ATOM      5  C   UNL     1       2.781   6.221  18.677  0.00  0.00    +0.000 A 
ATOM      6  C   UNL     1       2.527   8.617  17.672  0.00  0.00    +0.000 C 
ATOM      7  C   UNL     1       2.062   9.820  18.493  0.00  0.00    +0.000 C 
ATOM      8  N   UNL     1       1.376   9.249  19.656  0.00  0.00    +0.000 N 
ENDROOT
BRANCH   8   9
ATOM      9  C   UNL     1       0.408  10.002  20.359  0.00  0.00    +0.000 A 
ATOM     10  C   UNL     1       0.431  10.178  21.772  0.00  0.00    +0.000 A 
ATOM     11  C   UNL     1       1.398   9.521  22.729  0.00  0.00    +0.000 C 
ATOM     12  C   UNL     1      -0.583  10.926  22.436  0.00  0.00    +0.000 A 
ATOM     13  C   UNL     1      -1.647  11.504  21.755  0.00  0.00    +0.000 A 
ATOM     14  C   UNL     1      -2.722  12.278  22.455  0.00  0.00    +0.000 C 
ATOM     15  C   UNL     1      -1.699  11.331  20.381  0.00  0.00    +0.000 A 
ATOM     16  C   UNL     1      -0.704  10.606  19.677  0.00  0.00    +0.000 A 
ATOM     17  C   UNL     1      -0.937  10.542  18.183  0.00  0.00    +0.000 C 
ENDBRANCH   8   9
BRANCH   5  18
ATOM     18  C   UNL     1       3.231   5.288  17.640  0.00  0.00    +0.000 C 
ATOM     19  O   UNL     1       2.483   4.355  17.338  0.00  0.00    +0.000 OA
ATOM     20  N   UNL     1       4.482   5.358  16.982  0.00  0.00    +0.000 N 
BRANCH  20  21
ATOM     21  C   UNL     1       5.348   6.528  16.892  0.00  0.00    +0.000 C 
ATOM     22  C   UNL     1       6.549   6.408  17.830  0.00  0.00    +0.000 C 
ENDBRANCH  20  21
BRANCH  20  23
ATOM     23  C   UNL     1       4.836   4.237  16.079  0.00  0.00    +0.000 C 
BRANCH  23  24
ATOM     24  C   UNL     1       5.449   4.713  14.784  0.00  0.00    +0.000 C 
ATOM     25  C   UNL     1       6.932   4.514  14.562  0.00  0.00    +0.000 C 
ATOM     26  C   UNL     1       5.947   3.761  13.716  0.00  0.00    +0.000 C 
ENDBRANCH  23  24
ENDBRANCH  20  23
ENDBRANCH   5  18
BRANCH   1  28
ATOM     27  C   UNL     1       1.105   3.673  20.581  0.00  0.00    +0.000 C 
ATOM     28  C   UNL     1       2.308   4.587  20.730  0.00  0.00    +0.000 C 
ENDBRANCH   1  28
TORSDOF 6
ENDMDL
MODEL 3
REMARK VINA RESULT:      -7.2      1.014      1.970
REMARK  Name = 
REMARK  11 active torsions:
REMARK  status: ('A' for Active; 'I' for Inactive)
REMARK    1  A    between atoms: C_1  and  C_2
REMARK    2  A    between atoms: C_2  and  C_3
REMARK    3  A    between atoms: C_7  and  C_8
REMARK    4  A    between atoms: N_10  and  C_11
REMARK    5  A    between atoms: N_10  and  C_13
REMARK    6  A    between atoms: C_11  and  C_12
REMARK    7  A    between atoms: C_13  and  C_14
REMARK    8  A    between atoms: N_19  and  C_20
REMARK    9  A    between atoms: C_21  and  C_22
REMARK   10  A    between atoms: C_24  and  C_25
REMARK   11  A    between atoms: C_27  and  C_28
REMARK                            x       y       z     vdW  Elec       q    Type
REMARK                         _______ _______ _______ _____ _____    ______ ____
ROOT
ATOM      1  C   UNL     1       2.126   6.394  19.996  0.00  0.00    +0.000 A 
ATOM      2  N   UNL     1       1.390   7.536  20.324  0.00  0.00    +0.000 NA
ATOM      3  C   UNL     1       1.618   8.380  19.361  0.00  0.00    +0.000 A 
ATOM      4  N   UNL     1       2.554   7.854  18.492  0.00  0.00    +0.000 N 
ATOM      5  C   UNL     1       2.868   6.565  18.796  0.00  0.00    +0.000 A 
ATOM      6  C   UNL     1       2.758   8.758  17.384  0.00  0.00    +0.000 C 
ATOM      7  C   UNL     1       2.099  10.042  17.888  0.00  0.00    +0.000 C 
ATOM      8  N   UNL     1       1.204   9.615  18.969  0.00  0.00    +0.000 N 
ENDROOT
BRANCH   8   9
ATOM      9  C   UNL     1       0.091  10.407  19.333  0.00  0.00    +0.000 A 
ATOM     10  C   UNL     1       0.036  11.173  20.533  0.00  0.00    +0.000 A 
ATOM     11  C   UNL     1       1.078  11.177  21.626  0.00  0.00    +0.000 C 
ATOM     12  C   UNL     1      -1.121  11.935  20.866  0.00  0.00    +0.000 A 
ATOM     13  C   UNL     1      -2.252  11.959  20.060  0.00  0.00    +0.000 A 
ATOM     14  C   UNL     1      -3.474  12.749  20.417  0.00  0.00    +0.000 C 
ATOM     15  C   UNL     1      -2.227  11.208  18.896  0.00  0.00    +0.000 A 
ATOM     16  C   UNL     1      -1.093  10.446  18.518  0.00  0.00    +0.000 A 
ATOM     17  C   UNL     1      -1.261   9.707  17.208  0.00  0.00    +0.000 C 
ENDBRANCH   8   9
BRANCH   5  18
ATOM     18  C   UNL     1       3.548   5.514  18.035  0.00  0.00    +0.000 C 
ATOM     19  O   UNL     1       2.859   4.616  17.545  0.00  0.00    +0.000 OA
ATOM     20  N   UNL     1       4.949   5.431  17.852  0.00  0.00    +0.000 N 
BRANCH  20  21
ATOM     21  C   UNL     1       5.908   6.519  18.004  0.00  0.00    +0.000 C 
ATOM     22  C   UNL     1       7.336   5.993  18.145  0.00  0.00    +0.000 C 
ENDBRANCH  20  21
BRANCH  20  23
ATOM     23  C   UNL     1       5.476   4.211  17.195  0.00  0.00    +0.000 C 
BRANCH  23  24
ATOM     24  C   UNL     1       5.198   4.193  15.710  0.00  0.00    +0.000 C 
ATOM     25  C   UNL     1       5.725   5.325  14.856  0.00  0.00    +0.000 C 
ATOM     26  C   UNL     1       6.279   3.940  14.680  0.00  0.00    +0.000 C 
ENDBRANCH  23  24
ENDBRANCH  20  23
ENDBRANCH   5  18
BRANCH   1  28
ATOM     27  C   UNL     1       1.093   4.106  20.573  0.00  0.00    +0.000 C 
ATOM     28  C   UNL     1       2.028   5.240  20.953  0.00  0.00    +0.000 C 
ENDBRANCH   1  28
TORSDOF 6
ENDMDL
MODEL 4
REMARK VINA RESULT:      -7.0      2.772      8.065
REMARK  Name = 
REMARK  11 active torsions:
REMARK  status: ('A' for Active; 'I' for Inactive)
REMARK    1  A    between atoms: C_1  and  C_2
REMARK    2  A    between atoms: C_2  and  C_3
REMARK    3  A    between atoms: C_7  and  C_8
REMARK    4  A    between atoms: N_10  and  C_11
REMARK    5  A    between atoms: N_10  and  C_13
REMARK    6  A    between atoms: C_11  and  C_12
REMARK    7  A    between atoms: C_13  and  C_14
REMARK    8  A    between atoms: N_19  and  C_20
REMARK    9  A    between atoms: C_21  and  C_22
REMARK   10  A    between atoms: C_24  and  C_25
REMARK   11  A    between atoms: C_27  and  C_28
REMARK                            x       y       z     vdW  Elec       q    Type
REMARK                         _______ _______ _______ _____ _____    ______ ____
ROOT
ATOM      1  C   UNL     1       0.806   9.152  21.596  0.00  0.00    +0.000 A 
ATOM      2  N   UNL     1       1.203   7.837  21.333  0.00  0.00    +0.000 NA
ATOM      3  C   UNL     1       1.615   7.844  20.100  0.00  0.00    +0.000 A 
ATOM      4  N   UNL     1       1.394   9.087  19.540  0.00  0.00    +0.000 N 
ATOM      5  C   UNL     1       0.947   9.989  20.457  0.00  0.00    +0.000 A 
ATOM      6  C   UNL     1       1.913   9.119  18.193  0.00  0.00    +0.000 C 
ATOM      7  C   UNL     1       2.143   7.637  17.900  0.00  0.00    +0.000 C 
ATOM      8  N   UNL     1       2.194   6.988  19.214  0.00  0.00    +0.000 N 
ENDROOT
BRANCH   8   9
ATOM      9  C   UNL     1       2.865   5.756  19.381  0.00  0.00    +0.000 A 
ATOM     10  C   UNL     1       4.214   5.540  18.975  0.00  0.00    +0.000 A 
ATOM     11  C   UNL     1       5.080   6.525  18.229  0.00  0.00    +0.000 C 
ATOM     12  C   UNL     1       4.836   4.269  19.143  0.00  0.00    +0.000 A 
ATOM     13  C   UNL     1       4.168   3.179  19.687  0.00  0.00    +0.000 A 
ATOM     14  C   UNL     1       4.819   1.840  19.849  0.00  0.00    +0.000 C 
ATOM     15  C   UNL     1       2.850   3.362  20.072  0.00  0.00    +0.000 A 
ATOM     16  C   UNL     1       2.194   4.612  19.937  0.00  0.00    +0.000 A 
ATOM     17  C   UNL     1       0.763   4.608  20.427  0.00  0.00    +0.000 C 
ENDBRANCH   8   9
BRANCH   5  18
ATOM     18  C   UNL     1       0.858  11.451  20.434  0.00  0.00    +0.000 C 
ATOM     19  O   UNL     1       1.695  12.092  21.074  0.00  0.00    +0.000 OA
ATOM     20  N   UNL     1      -0.145  12.186  19.758  0.00  0.00    +0.000 N 
BRANCH  20  21
ATOM     21  C   UNL     1      -0.989  11.702  18.672  0.00  0.00    +0.000 C 
ATOM     22  C   UNL     1      -2.472  11.790  19.032  0.00  0.00    +0.000 C 
ENDBRANCH  20  21
BRANCH  20  23
ATOM     23  C   UNL     1      -0.176  13.652  19.979  0.00  0.00    +0.000 C 
BRANCH  23  24
ATOM     24  C   UNL     1       0.308  14.425  18.776  0.00  0.00    +0.000 C 
ATOM     25  C   UNL     1      -0.088  15.878  18.634  0.00  0.00    +0.000 C 
ATOM     26  C   UNL     1       1.351  15.519  18.873  0.00  0.00    +0.000 C 
ENDBRANCH  23  24
ENDBRANCH  20  23
ENDBRANCH   5  18
BRANCH   1  28
ATOM     27  C   UNL     1      -0.935  10.316  23.096  0.00  0.00    +0.000 C 
ATOM     28  C   UNL     1       0.292   9.429  22.980  0.00  0.00    +0.000 C 
ENDBRANCH   1  28
TORSDOF 6
ENDMDL
MODEL 5
REMARK VINA RESULT:      -7.0      1.411      2.037
REMARK  Name = 
REMARK  11 active torsions:
REMARK  status: ('A' for Active; 'I' for Inactive)
REMARK    1  A    between atoms: C_1  and  C_2
REMARK    2  A    between atoms: C_2  and  C_3
REMARK    3  A    between atoms: C_7  and  C_8
REMARK    4  A    between atoms: N_10  and  C_11
REMARK    5  A    between atoms: N_10  and  C_13
REMARK    6  A    between atoms: C_11  and  C_12
REMARK    7  A    between atoms: C_13  and  C_14
REMARK    8  A    between atoms: N_19  and  C_20
REMARK    9  A    between atoms: C_21  and  C_22
REMARK   10  A    between atoms: C_24  and  C_25
REMARK   11  A    between atoms: C_27  and  C_28
REMARK                            x       y       z     vdW  Elec       q    Type
REMARK                         _______ _______ _______ _____ _____    ______ ____
ROOT
ATOM      1  C   UNL     1       2.131   6.494  20.114  0.00  0.00    +0.000 A 
ATOM      2  N   UNL     1       1.251   7.559  20.332  0.00  0.00    +0.000 NA
ATOM      3  C   UNL     1       1.519   8.421  19.396  0.00  0.00    +0.000 A 
ATOM      4  N   UNL     1       2.605   7.990  18.660  0.00  0.00    +0.000 N 
ATOM      5  C   UNL     1       3.000   6.737  19.017  0.00  0.00    +0.000 A 
ATOM      6  C   UNL     1       2.861   8.911  17.577  0.00  0.00    +0.000 C 
ATOM      7  C   UNL     1       2.022  10.123  17.978  0.00  0.00    +0.000 C 
ATOM      8  N   UNL     1       1.041   9.611  18.940  0.00  0.00    +0.000 N 
ENDROOT
BRANCH   8   9
ATOM      9  C   UNL     1      -0.181  10.290  19.149  0.00  0.00    +0.000 A 
ATOM     10  C   UNL     1      -1.280  10.215  18.246  0.00  0.00    +0.000 A 
ATOM     11  C   UNL     1      -1.280   9.510  16.911  0.00  0.00    +0.000 C 
ATOM     12  C   UNL     1      -2.482  10.940  18.492  0.00  0.00    +0.000 A 
ATOM     13  C   UNL     1      -2.642  11.763  19.599  0.00  0.00    +0.000 A 
ATOM     14  C   UNL     1      -3.901  12.536  19.849  0.00  0.00    +0.000 C 
ATOM     15  C   UNL     1      -1.579  11.864  20.482  0.00  0.00    +0.000 A 
ATOM     16  C   UNL     1      -0.369  11.150  20.286  0.00  0.00    +0.000 A 
ATOM     17  C   UNL     1       0.663  11.387  21.367  0.00  0.00    +0.000 C 
ENDBRANCH   8   9
BRANCH   5  18
ATOM     18  C   UNL     1       3.871   5.758  18.362  0.00  0.00    +0.000 C 
ATOM     19  O   UNL     1       5.088   5.855  18.541  0.00  0.00    +0.000 OA
ATOM     20  N   UNL     1       3.421   4.725  17.505  0.00  0.00    +0.000 N 
BRANCH  20  21
ATOM     21  C   UNL     1       2.067   4.189  17.435  0.00  0.00    +0.000 C 
ATOM     22  C   UNL     1       2.049   2.680  17.677  0.00  0.00    +0.000 C 
ENDBRANCH  20  21
BRANCH  20  23
ATOM     23  C   UNL     1       4.455   3.930  16.801  0.00  0.00    +0.000 C 
BRANCH  23  24
ATOM     24  C   UNL     1       5.156   4.724  15.725  0.00  0.00    +0.000 C 
ATOM     25  C   UNL     1       6.628   4.475  15.477  0.00  0.00    +0.000 C 
ATOM     26  C   UNL     1       5.623   4.104  14.425  0.00  0.00    +0.000 C 
ENDBRANCH  23  24
ENDBRANCH  20  23
ENDBRANCH   5  18
BRANCH   1  28
ATOM     27  C   UNL     1       1.074   4.214  20.680  0.00  0.00    +0.000 C 
ATOM     28  C   UNL     1       2.023   5.335  21.064  0.00  0.00    +0.000 C 
ENDBRANCH   1  28
TORSDOF 6
ENDMDL
MODEL 6
REMARK VINA RESULT:      -6.9      1.216      2.402
REMARK  Name = 
REMARK  11 active torsions:
REMARK  status: ('A' for Active; 'I' for Inactive)
REMARK    1  A    between atoms: C_1  and  C_2
REMARK    2  A    between atoms: C_2  and  C_3
REMARK    3  A    between atoms: C_7  and  C_8
REMARK    4  A    between atoms: N_10  and  C_11
REMARK    5  A    between atoms: N_10  and  C_13
REMARK    6  A    between atoms: C_11  and  C_12
REMARK    7  A    between atoms: C_13  and  C_14
REMARK    8  A    between atoms: N_19  and  C_20
REMARK    9  A    between atoms: C_21  and  C_22
REMARK   10  A    between atoms: C_24  and  C_25
REMARK   11  A    between atoms: C_27  and  C_28
REMARK                            x       y       z     vdW  Elec       q    Type
REMARK                         _______ _______ _______ _____ _____    ______ ____
ROOT
ATOM      1  C   UNL     1       1.936   6.154  20.347  0.00  0.00    +0.000 A 
ATOM      2  N   UNL     1       1.399   7.291  20.959  0.00  0.00    +0.000 NA
ATOM      3  C   UNL     1       1.443   8.221  20.051  0.00  0.00    +0.000 A 
ATOM      4  N   UNL     1       2.085   7.745  18.925  0.00  0.00    +0.000 N 
ATOM      5  C   UNL     1       2.362   6.415  19.018  0.00  0.00    +0.000 A 
ATOM      6  C   UNL     1       2.074   8.753  17.890  0.00  0.00    +0.000 C 
ATOM      7  C   UNL     1       1.668  10.006  18.664  0.00  0.00    +0.000 C 
ATOM      8  N   UNL     1       1.043   9.512  19.895  0.00  0.00    +0.000 N 
ENDROOT
BRANCH   8   9
ATOM      9  C   UNL     1       0.124  10.317  20.606  0.00  0.00    +0.000 A 
ATOM     10  C   UNL     1       0.076  10.377  22.029  0.00  0.00    +0.000 A 
ATOM     11  C   UNL     1       0.898   9.537  22.976  0.00  0.00    +0.000 C 
ATOM     12  C   UNL     1      -0.888  11.186  22.697  0.00  0.00    +0.000 A 
ATOM     13  C   UNL     1      -1.833  11.938  22.011  0.00  0.00    +0.000 A 
ATOM     14  C   UNL     1      -2.856  12.777  22.715  0.00  0.00    +0.000 C 
ATOM     15  C   UNL     1      -1.816  11.881  20.627  0.00  0.00    +0.000 A 
ATOM     16  C   UNL     1      -0.866  11.101  19.919  0.00  0.00    +0.000 A 
ATOM     17  C   UNL     1      -1.008  11.183  18.415  0.00  0.00    +0.000 C 
ENDBRANCH   8   9
BRANCH   5  18
ATOM     18  C   UNL     1       2.743   5.419  18.014  0.00  0.00    +0.000 C 
ATOM     19  O   UNL     1       1.842   4.814  17.427  0.00  0.00    +0.000 OA
ATOM     20  N   UNL     1       4.076   5.070  17.691  0.00  0.00    +0.000 N 
BRANCH  20  21
ATOM     21  C   UNL     1       5.268   5.867  17.958  0.00  0.00    +0.000 C 
ATOM     22  C   UNL     1       5.987   5.394  19.222  0.00  0.00    +0.000 C 
ENDBRANCH  20  21
BRANCH  20  23
ATOM     23  C   UNL     1       4.273   3.925  16.770  0.00  0.00    +0.000 C 
BRANCH  23  24
ATOM     24  C   UNL     1       4.462   2.621  17.507  0.00  0.00    +0.000 C 
ATOM     25  C   UNL     1       4.046   2.537  18.959  0.00  0.00    +0.000 C 
ATOM     26  C   UNL     1       3.301   1.743  17.925  0.00  0.00    +0.000 C 
ENDBRANCH  23  24
ENDBRANCH  20  23
ENDBRANCH   5  18
BRANCH   1  28
ATOM     27  C   UNL     1       1.124   3.743  20.749  0.00  0.00    +0.000 C 
ATOM     28  C   UNL     1       1.991   4.909  21.187  0.00  0.00    +0.000 C 
ENDBRANCH   1  28
TORSDOF 6
ENDMDL
MODEL 7
REMARK VINA RESULT:      -6.9      1.202      1.745
REMARK  Name = 
REMARK  11 active torsions:
REMARK  status: ('A' for Active; 'I' for Inactive)
REMARK    1  A    between atoms: C_1  and  C_2
REMARK    2  A    between atoms: C_2  and  C_3
REMARK    3  A    between atoms: C_7  and  C_8
REMARK    4  A    between atoms: N_10  and  C_11
REMARK    5  A    between atoms: N_10  and  C_13
REMARK    6  A    between atoms: C_11  and  C_12
REMARK    7  A    between atoms: C_13  and  C_14
REMARK    8  A    between atoms: N_19  and  C_20
REMARK    9  A    between atoms: C_21  and  C_22
REMARK   10  A    between atoms: C_24  and  C_25
REMARK   11  A    between atoms: C_27  and  C_28
REMARK                            x       y       z     vdW  Elec       q    Type
REMARK                         _______ _______ _______ _____ _____    ______ ____
ROOT
ATOM      1  C   UNL     1       1.915   6.119  20.341  0.00  0.00    +0.000 A 
ATOM      2  N   UNL     1       1.352   7.244  20.951  0.00  0.00    +0.000 NA
ATOM      3  C   UNL     1       1.403   8.182  20.052  0.00  0.00    +0.000 A 
ATOM      4  N   UNL     1       2.073   7.723  18.935  0.00  0.00    +0.000 N 
ATOM      5  C   UNL     1       2.365   6.396  19.022  0.00  0.00    +0.000 A 
ATOM      6  C   UNL     1       2.071   8.739  17.909  0.00  0.00    +0.000 C 
ATOM      7  C   UNL     1       1.634   9.981  18.684  0.00  0.00    +0.000 C 
ATOM      8  N   UNL     1       0.991   9.470  19.899  0.00  0.00    +0.000 N 
ENDROOT
BRANCH   8   9
ATOM      9  C   UNL     1       0.048  10.257  20.598  0.00  0.00    +0.000 A 
ATOM     10  C   UNL     1      -0.919  11.078  19.948  0.00  0.00    +0.000 A 
ATOM     11  C   UNL     1      -1.019  11.316  18.461  0.00  0.00    +0.000 C 
ATOM     12  C   UNL     1      -1.832  11.872  20.700  0.00  0.00    +0.000 A 
ATOM     13  C   UNL     1      -1.819  11.906  22.089  0.00  0.00    +0.000 A 
ATOM     14  C   UNL     1      -2.769  12.753  22.879  0.00  0.00    +0.000 C 
ATOM     15  C   UNL     1      -0.876  11.129  22.741  0.00  0.00    +0.000 A 
ATOM     16  C   UNL     1       0.042  10.311  22.035  0.00  0.00    +0.000 A 
ATOM     17  C   UNL     1       0.982   9.532  22.929  0.00  0.00    +0.000 C 
ENDBRANCH   8   9
BRANCH   5  18
ATOM     18  C   UNL     1       2.778   5.413  18.018  0.00  0.00    +0.000 C 
ATOM     19  O   UNL     1       1.897   4.843  17.369  0.00  0.00    +0.000 OA
ATOM     20  N   UNL     1       4.119   5.040  17.760  0.00  0.00    +0.000 N 
BRANCH  20  21
ATOM     21  C   UNL     1       5.312   5.802  18.110  0.00  0.00    +0.000 C 
ATOM     22  C   UNL     1       5.584   6.913  17.096  0.00  0.00    +0.000 C 
ENDBRANCH  20  21
BRANCH  20  23
ATOM     23  C   UNL     1       4.341   3.911  16.825  0.00  0.00    +0.000 C 
BRANCH  23  24
ATOM     24  C   UNL     1       4.496   2.592  17.543  0.00  0.00    +0.000 C 
ATOM     25  C   UNL     1       4.126   2.511  19.008  0.00  0.00    +0.000 C 
ATOM     26  C   UNL     1       3.312   1.762  17.994  0.00  0.00    +0.000 C 
ENDBRANCH  23  24
ENDBRANCH  20  23
ENDBRANCH   5  18
BRANCH   1  28
ATOM     27  C   UNL     1       1.131   3.691  20.701  0.00  0.00    +0.000 C 
ATOM     28  C   UNL     1       1.969   4.867  21.171  0.00  0.00    +0.000 C 
ENDBRANCH   1  28
TORSDOF 6
ENDMDL
MODEL 8
REMARK VINA RESULT:      -6.8      1.412      2.551
REMARK  Name = 
REMARK  11 active torsions:
REMARK  status: ('A' for Active; 'I' for Inactive)
REMARK    1  A    between atoms: C_1  and  C_2
REMARK    2  A    between atoms: C_2  and  C_3
REMARK    3  A    between atoms: C_7  and  C_8
REMARK    4  A    between atoms: N_10  and  C_11
REMARK    5  A    between atoms: N_10  and  C_13
REMARK    6  A    between atoms: C_11  and  C_12
REMARK    7  A    between atoms: C_13  and  C_14
REMARK    8  A    between atoms: N_19  and  C_20
REMARK    9  A    between atoms: C_21  and  C_22
REMARK   10  A    between atoms: C_24  and  C_25
REMARK   11  A    between atoms: C_27  and  C_28
REMARK                            x       y       z     vdW  Elec       q    Type
REMARK                         _______ _______ _______ _____ _____    ______ ____
ROOT
ATOM      1  C   UNL     1       2.164   6.512  20.068  0.00  0.00    +0.000 A 
ATOM      2  N   UNL     1       1.291   7.585  20.279  0.00  0.00    +0.000 NA
ATOM      3  C   UNL     1       1.582   8.449  19.351  0.00  0.00    +0.000 A 
ATOM      4  N   UNL     1       2.674   8.010  18.630  0.00  0.00    +0.000 N 
ATOM      5  C   UNL     1       3.052   6.752  18.986  0.00  0.00    +0.000 A 
ATOM      6  C   UNL     1       2.956   8.933  17.555  0.00  0.00    +0.000 C 
ATOM      7  C   UNL     1       2.124  10.153  17.949  0.00  0.00    +0.000 C 
ATOM      8  N   UNL     1       1.123   9.645  18.894  0.00  0.00    +0.000 N 
ENDROOT
BRANCH   8   9
ATOM      9  C   UNL     1      -0.095  10.336  19.089  0.00  0.00    +0.000 A 
ATOM     10  C   UNL     1      -0.356  11.153  20.226  0.00  0.00    +0.000 A 
ATOM     11  C   UNL     1       0.552  11.321  21.420  0.00  0.00    +0.000 C 
ATOM     12  C   UNL     1      -1.611  11.808  20.387  0.00  0.00    +0.000 A 
ATOM     13  C   UNL     1      -2.643  11.675  19.466  0.00  0.00    +0.000 A 
ATOM     14  C   UNL     1      -3.968  12.352  19.643  0.00  0.00    +0.000 C 
ATOM     15  C   UNL     1      -2.417  10.871  18.361  0.00  0.00    +0.000 A 
ATOM     16  C   UNL     1      -1.179  10.212  18.152  0.00  0.00    +0.000 A 
ATOM     17  C   UNL     1      -1.129   9.392  16.881  0.00  0.00    +0.000 C 
ENDBRANCH   8   9
BRANCH   5  18
ATOM     18  C   UNL     1       3.922   5.767  18.339  0.00  0.00    +0.000 C 
ATOM     19  O   UNL     1       5.138   5.857  18.528  0.00  0.00    +0.000 OA
ATOM     20  N   UNL     1       3.473   4.736  17.480  0.00  0.00    +0.000 N 
BRANCH  20  21
ATOM     21  C   UNL     1       2.116   4.207  17.399  0.00  0.00    +0.000 C 
ATOM     22  C   UNL     1       2.086   2.700  17.652  0.00  0.00    +0.000 C 
ENDBRANCH  20  21
BRANCH  20  23
ATOM     23  C   UNL     1       4.508   3.934  16.784  0.00  0.00    +0.000 C 
BRANCH  23  24
ATOM     24  C   UNL     1       5.137   4.681  15.633  0.00  0.00    +0.000 C 
ATOM     25  C   UNL     1       6.645   4.736  15.536  0.00  0.00    +0.000 C 
ATOM     26  C   UNL     1       5.861   3.981  14.502  0.00  0.00    +0.000 C 
ENDBRANCH  23  24
ENDBRANCH  20  23
ENDBRANCH   5  18
BRANCH   1  28
ATOM     27  C   UNL     1       1.006   4.287  20.655  0.00  0.00    +0.000 C 
ATOM     28  C   UNL     1       2.030   5.350  21.011  0.00  0.00    +0.000 C 
ENDBRANCH   1  28
TORSDOF 6
ENDMDL
MODEL 9
REMARK VINA RESULT:      -6.8      1.015      1.202
REMARK  Name = 
REMARK  11 active torsions:
REMARK  status: ('A' for Active; 'I' for Inactive)
REMARK    1  A    between atoms: C_1  and  C_2
REMARK    2  A    between atoms: C_2  and  C_3
REMARK    3  A    between atoms: C_7  and  C_8
REMARK    4  A    between atoms: N_10  and  C_11
REMARK    5  A    between atoms: N_10  and  C_13
REMARK    6  A    between atoms: C_11  and  C_12
REMARK    7  A    between atoms: C_13  and  C_14
REMARK    8  A    between atoms: N_19  and  C_20
REMARK    9  A    between atoms: C_21  and  C_22
REMARK   10  A    between atoms: C_24  and  C_25
REMARK   11  A    between atoms: C_27  and  C_28
REMARK                            x       y       z     vdW  Elec       q    Type
REMARK                         _______ _______ _______ _____ _____    ______ ____
ROOT
ATOM      1  C   UNL     1       2.132   6.285  19.991  0.00  0.00    +0.000 A 
ATOM      2  N   UNL     1       1.390   7.417  20.344  0.00  0.00    +0.000 NA
ATOM      3  C   UNL     1       1.603   8.276  19.391  0.00  0.00    +0.000 A 
ATOM      4  N   UNL     1       2.535   7.771  18.506  0.00  0.00    +0.000 N 
ATOM      5  C   UNL     1       2.861   6.479  18.788  0.00  0.00    +0.000 A 
ATOM      6  C   UNL     1       2.723   8.692  17.410  0.00  0.00    +0.000 C 
ATOM      7  C   UNL     1       2.059   9.963  17.939  0.00  0.00    +0.000 C 
ATOM      8  N   UNL     1       1.177   9.514  19.021  0.00  0.00    +0.000 N 
ENDROOT
BRANCH   8   9
ATOM      9  C   UNL     1       0.062  10.292  19.407  0.00  0.00    +0.000 A 
ATOM     10  C   UNL     1      -1.123  10.401  18.624  0.00  0.00    +0.000 A 
ATOM     11  C   UNL     1      -1.330   9.811  17.249  0.00  0.00    +0.000 C 
ATOM     12  C   UNL     1      -2.211  11.219  19.046  0.00  0.00    +0.000 A 
ATOM     13  C   UNL     1      -2.171  11.960  20.220  0.00  0.00    +0.000 A 
ATOM     14  C   UNL     1      -3.308  12.832  20.657  0.00  0.00    +0.000 C 
ATOM     15  C   UNL     1      -1.021  11.883  20.989  0.00  0.00    +0.000 A 
ATOM     16  C   UNL     1       0.080  11.071  20.616  0.00  0.00    +0.000 A 
ATOM     17  C   UNL     1       1.232  11.115  21.594  0.00  0.00    +0.000 C 
ENDBRANCH   8   9
BRANCH   5  18
ATOM     18  C   UNL     1       3.542   5.444  18.005  0.00  0.00    +0.000 C 
ATOM     19  O   UNL     1       2.850   4.692  17.314  0.00  0.00    +0.000 OA
ATOM     20  N   UNL     1       4.939   5.218  18.013  0.00  0.00    +0.000 N 
BRANCH  20  21
ATOM     21  C   UNL     1       5.966   6.163  18.433  0.00  0.00    +0.000 C 
ATOM     22  C   UNL     1       6.161   7.275  17.402  0.00  0.00    +0.000 C 
ENDBRANCH  20  21
BRANCH  20  23
ATOM     23  C   UNL     1       5.436   4.023  17.289  0.00  0.00    +0.000 C 
BRANCH  23  24
ATOM     24  C   UNL     1       6.221   4.387  16.052  0.00  0.00    +0.000 C 
ATOM     25  C   UNL     1       6.059   3.538  14.809  0.00  0.00    +0.000 C 
ATOM     26  C   UNL     1       5.570   4.958  14.809  0.00  0.00    +0.000 C 
ENDBRANCH  23  24
ENDBRANCH  20  23
ENDBRANCH   5  18
BRANCH   1  28
ATOM     27  C   UNL     1       1.121   3.980  20.543  0.00  0.00    +0.000 C 
ATOM     28  C   UNL     1       2.051   5.116  20.932  0.00  0.00    +0.000 C 
ENDBRANCH   1  28
TORSDOF 6
ENDMDL
