MODEL 1
REMARK VINA RESULT:      -8.1      0.000      0.000
REMARK  Name = 
REMARK  5 active torsions:
REMARK  status: ('A' for Active; 'I' for Inactive)
REMARK    1  A    between atoms: C_1  and  O_2
REMARK    2  A    between atoms: O_2  and  C_3
REMARK    3  A    between atoms: C_5  and  C_6
REMARK    4  A    between atoms: C_6  and  C_7
REMARK    5  A    between atoms: C_13  and  N_14
REMARK                            x       y       z     vdW  Elec       q    Type
REMARK                         _______ _______ _______ _____ _____    ______ ____
ROOT
ATOM      1  C   UNL     1       4.428   3.364  17.115  0.00  0.00    +0.000 C 
ENDROOT
BRANCH   1   4
ATOM      2  C   UNL     1       2.722   5.089  20.066  0.00  0.00    +0.000 A 
ATOM      3  C   UNL     1       3.352   4.118  19.270  0.00  0.00    +0.000 A 
ATOM      4  C   UNL     1       3.747   4.410  17.961  0.00  0.00    +0.000 A 
ATOM      5  C   UNL     1       3.501   5.690  17.456  0.00  0.00    +0.000 A 
ATOM      6  C   UNL     1       2.864   6.665  18.243  0.00  0.00    +0.000 A 
ATOM      7  C   UNL     1       2.617   7.946  17.728  0.00  0.00    +0.000 A 
ATOM      8  C   UNL     1       1.976   8.896  18.510  0.00  0.00    +0.000 A 
ATOM      9  C   UNL     1       1.603   8.534  19.787  0.00  0.00    +0.000 A 
ATOM     10  N   UNL     1       1.834   7.316  20.319  0.00  0.00    +0.000 NA
ATOM     11  C   UNL     1       2.455   6.375  19.565  0.00  0.00    +0.000 A 
BRANCH   2  13
ATOM     12  C   UNL     1       2.043   3.473  21.687  0.00  0.00    +0.000 C 
ATOM     13  O   UNL     1       2.290   4.832  21.350  0.00  0.00    +0.000 OA
ENDBRANCH   2  13
ENDBRANCH   1   4
BRANCH   1  14
ATOM     14  C   UNL     1       5.504   3.871  16.202  0.00  0.00    +0.000 A 
ATOM     15  C   UNL     1       5.312   3.920  14.836  0.00  0.00    +0.000 A 
ATOM     16  N   UNL     1       6.184   4.464  13.968  0.00  0.00    +0.000 NA
ATOM     17  C   UNL     1       7.298   4.968  14.497  0.00  0.00    +0.000 A 
ATOM     18  N   UNL     1       8.167   5.621  13.649  0.00  0.00    +0.000 N 
ATOM     19  N   UNL     1       7.631   4.891  15.788  0.00  0.00    +0.000 NA
ATOM     20  C   UNL     1       6.731   4.347  16.622  0.00  0.00    +0.000 A 
ATOM     21  H   UNL     1       8.044   5.288  12.703  0.00  0.00    +0.000 HD
ATOM     22  H   UNL     1       9.101   5.618  14.033  0.00  0.00    +0.000 HD
BRANCH  20  23
ATOM     23  N   UNL     1       7.133   4.292  17.958  0.00  0.00    +0.000 N 
ATOM     24  H   UNL     1       8.104   4.592  17.979  0.00  0.00    +0.000 HD
ATOM     25  H   UNL     1       6.559   4.880  18.551  0.00  0.00    +0.000 HD
ENDBRANCH  20  23
ENDBRANCH   1  14
TORSDOF 4
ENDMDL
MODEL 2
REMARK VINA RESULT:      -7.7      2.357      6.567
REMARK  Name = 
REMARK  5 active torsions:
REMARK  status: ('A' for Active; 'I' for Inactive)
REMARK    1  A    between atoms: C_1  and  O_2
REMARK    2  A    between atoms: O_2  and  C_3
REMARK    3  A    between atoms: C_5  and  C_6
REMARK    4  A    between atoms: C_6  and  C_7
REMARK    5  A    between atoms: C_13  and  N_14
REMARK                            x       y       z     vdW  Elec       q    Type
REMARK                         _______ _______ _______ _____ _____    ______ ____
ROOT
ATOM      1  C   UNL     1       3.833   3.562  17.460  0.00  0.00    +0.000 C 
ENDROOT
BRANCH   1   4
ATOM      2  C   UNL     1       6.852   5.478  16.117  0.00  0.00    +0.000 A 
ATOM      3  C   UNL     1       5.850   5.001  16.976  0.00  0.00    +0.000 A 
ATOM      4  C   UNL     1       4.903   4.074  16.529  0.00  0.00    +0.000 A 
ATOM      5  C   UNL     1       4.971   3.632  15.205  0.00  0.00    +0.000 A 
ATOM      6  C   UNL     1       5.967   4.111  14.335  0.00  0.00    +0.000 A 
ATOM      7  C   UNL     1       6.027   3.665  13.007  0.00  0.00    +0.000 A 
ATOM      8  C   UNL     1       7.006   4.155  12.155  0.00  0.00    +0.000 A 
ATOM      9  C   UNL     1       7.898   5.077  12.661  0.00  0.00    +0.000 A 
ATOM     10  N   UNL     1       7.877   5.520  13.936  0.00  0.00    +0.000 NA
ATOM     11  C   UNL     1       6.923   5.053  14.779  0.00  0.00    +0.000 A 
BRANCH   2  13
ATOM     12  C   UNL     1       7.375   7.360  17.489  0.00  0.00    +0.000 C 
ATOM     13  O   UNL     1       7.785   6.415  16.510  0.00  0.00    +0.000 OA
ENDBRANCH   2  13
ENDBRANCH   1   4
BRANCH   1  14
ATOM     14  C   UNL     1       3.320   4.553  18.462  0.00  0.00    +0.000 A 
ATOM     15  C   UNL     1       3.055   5.858  18.099  0.00  0.00    +0.000 A 
ATOM     16  N   UNL     1       2.491   6.770  18.911  0.00  0.00    +0.000 NA
ATOM     17  C   UNL     1       2.193   6.353  20.141  0.00  0.00    +0.000 A 
ATOM     18  N   UNL     1       1.524   7.231  20.967  0.00  0.00    +0.000 N 
ATOM     19  N   UNL     1       2.491   5.146  20.628  0.00  0.00    +0.000 NA
ATOM     20  C   UNL     1       3.047   4.263  19.785  0.00  0.00    +0.000 A 
ATOM     21  H   UNL     1       1.702   8.182  20.677  0.00  0.00    +0.000 HD
ATOM     22  H   UNL     1       1.684   6.994  21.934  0.00  0.00    +0.000 HD
BRANCH  20  23
ATOM     23  N   UNL     1       3.337   3.020  20.349  0.00  0.00    +0.000 N 
ATOM     24  H   UNL     1       3.268   2.339  19.597  0.00  0.00    +0.000 HD
ATOM     25  H   UNL     1       4.258   3.000  20.772  0.00  0.00    +0.000 HD
ENDBRANCH  20  23
ENDBRANCH   1  14
TORSDOF 4
ENDMDL
MODEL 3
REMARK VINA RESULT:      -7.6      2.485      6.688
REMARK  Name = 
REMARK  5 active torsions:
REMARK  status: ('A' for Active; 'I' for Inactive)
REMARK    1  A    between atoms: C_1  and  O_2
REMARK    2  A    between atoms: O_2  and  C_3
REMARK    3  A    between atoms: C_5  and  C_6
REMARK    4  A    between atoms: C_6  and  C_7
REMARK    5  A    between atoms: C_13  and  N_14
REMARK                            x       y       z     vdW  Elec       q    Type
REMARK                         _______ _______ _______ _____ _____    ______ ____
ROOT
ATOM      1  C   UNL     1       3.294   6.089  18.851  0.00  0.00    +0.000 C 
ENDROOT
BRANCH   1   4
ATOM      2  C   UNL     1       6.663   6.413  17.078  0.00  0.00    +0.000 A 
ATOM      3  C   UNL     1       5.622   6.578  18.007  0.00  0.00    +0.000 A 
ATOM      4  C   UNL     1       4.404   5.910  17.846  0.00  0.00    +0.000 A 
ATOM      5  C   UNL     1       4.239   5.075  16.738  0.00  0.00    +0.000 A 
ATOM      6  C   UNL     1       5.272   4.910  15.799  0.00  0.00    +0.000 A 
ATOM      7  C   UNL     1       5.098   4.073  14.688  0.00  0.00    +0.000 A 
ATOM      8  C   UNL     1       6.120   3.928  13.761  0.00  0.00    +0.000 A 
ATOM      9  C   UNL     1       7.289   4.627  13.977  0.00  0.00    +0.000 A 
ATOM     10  N   UNL     1       7.496   5.433  15.040  0.00  0.00    +0.000 NA
ATOM     11  C   UNL     1       6.504   5.587  15.951  0.00  0.00    +0.000 A 
BRANCH   2  13
ATOM     12  C   UNL     1       7.822   8.423  17.639  0.00  0.00    +0.000 C 
ATOM     13  O   UNL     1       7.866   7.077  17.184  0.00  0.00    +0.000 OA
ENDBRANCH   2  13
ENDBRANCH   1   4
BRANCH   1  14
ATOM     14  C   UNL     1       2.576   7.405  18.793  0.00  0.00    +0.000 A 
ATOM     15  C   UNL     1       2.567   8.158  17.637  0.00  0.00    +0.000 A 
ATOM     16  N   UNL     1       1.855   9.288  17.476  0.00  0.00    +0.000 NA
ATOM     17  C   UNL     1       1.133   9.679  18.525  0.00  0.00    +0.000 A 
ATOM     18  N   UNL     1       0.315  10.777  18.363  0.00  0.00    +0.000 N 
ATOM     19  N   UNL     1       1.141   9.082  19.720  0.00  0.00    +0.000 NA
ATOM     20  C   UNL     1       1.859   7.955  19.838  0.00  0.00    +0.000 A 
ATOM     21  H   UNL     1       0.665  11.362  17.618  0.00  0.00    +0.000 HD
ATOM     22  H   UNL     1       0.126  11.210  19.255  0.00  0.00    +0.000 HD
BRANCH  20  23
ATOM     23  N   UNL     1       1.831   7.376  21.108  0.00  0.00    +0.000 N 
ATOM     24  H   UNL     1       2.719   7.602  21.547  0.00  0.00    +0.000 HD
ATOM     25  H   UNL     1       1.055   7.717  21.664  0.00  0.00    +0.000 HD
ENDBRANCH  20  23
ENDBRANCH   1  14
TORSDOF 4
ENDMDL
MODEL 4
REMARK VINA RESULT:      -7.5      3.194      6.371
REMARK  Name = 
REMARK  5 active torsions:
REMARK  status: ('A' for Active; 'I' for Inactive)
REMARK    1  A    between atoms: C_1  and  O_2
REMARK    2  A    between atoms: O_2  and  C_3
REMARK    3  A    between atoms: C_5  and  C_6
REMARK    4  A    between atoms: C_6  and  C_7
REMARK    5  A    between atoms: C_13  and  N_14
REMARK                            x       y       z     vdW  Elec       q    Type
REMARK                         _______ _______ _______ _____ _____    ______ ____
ROOT
ATOM      1  C   UNL     1       4.539   5.085  19.371  0.00  0.00    +0.000 C 
ENDROOT
BRANCH   1   4
ATOM      2  C   UNL     1       7.104   6.358  16.842  0.00  0.00    +0.000 A 
ATOM      3  C   UNL     1       6.345   6.213  18.015  0.00  0.00    +0.000 A 
ATOM      4  C   UNL     1       5.347   5.238  18.107  0.00  0.00    +0.000 A 
ATOM      5  C   UNL     1       5.115   4.409  17.005  0.00  0.00    +0.000 A 
ATOM      6  C   UNL     1       5.865   4.552  15.825  0.00  0.00    +0.000 A 
ATOM      7  C   UNL     1       5.625   3.720  14.723  0.00  0.00    +0.000 A 
ATOM      8  C   UNL     1       6.363   3.880  13.558  0.00  0.00    +0.000 A 
ATOM      9  C   UNL     1       7.322   4.871  13.535  0.00  0.00    +0.000 A 
ATOM     10  N   UNL     1       7.588   5.683  14.579  0.00  0.00    +0.000 NA
ATOM     11  C   UNL     1       6.871   5.541  15.722  0.00  0.00    +0.000 A 
BRANCH   2  13
ATOM     12  C   UNL     1       7.989   8.456  17.559  0.00  0.00    +0.000 C 
ATOM     13  O   UNL     1       8.075   7.327  16.700  0.00  0.00    +0.000 OA
ENDBRANCH   2  13
ENDBRANCH   1   4
BRANCH   1  14
ATOM     14  C   UNL     1       3.436   4.070  19.314  0.00  0.00    +0.000 A 
ATOM     15  C   UNL     1       2.139   4.447  19.026  0.00  0.00    +0.000 A 
ATOM     16  N   UNL     1       1.123   3.584  18.848  0.00  0.00    +0.000 NA
ATOM     17  C   UNL     1       1.422   2.293  18.977  0.00  0.00    +0.000 A 
ATOM     18  N   UNL     1       0.428   1.378  18.704  0.00  0.00    +0.000 N 
ATOM     19  N   UNL     1       2.616   1.821  19.346  0.00  0.00    +0.000 NA
ATOM     20  C   UNL     1       3.605   2.713  19.508  0.00  0.00    +0.000 A 
ATOM     21  H   UNL     1      -0.479   1.803  18.831  0.00  0.00    +0.000 HD
ATOM     22  H   UNL     1       0.612   0.507  19.179  0.00  0.00    +0.000 HD
BRANCH  20  23
ATOM     23  N   UNL     1       4.829   2.163  19.894  0.00  0.00    +0.000 N 
ATOM     24  H   UNL     1       5.134   2.686  20.711  0.00  0.00    +0.000 HD
ATOM     25  H   UNL     1       4.751   1.175  20.105  0.00  0.00    +0.000 HD
ENDBRANCH  20  23
ENDBRANCH   1  14
TORSDOF 4
ENDMDL
MODEL 5
REMARK VINA RESULT:      -7.3      3.069      6.921
REMARK  Name = 
REMARK  5 active torsions:
REMARK  status: ('A' for Active; 'I' for Inactive)
REMARK    1  A    between atoms: C_1  and  O_2
REMARK    2  A    between atoms: O_2  and  C_3
REMARK    3  A    between atoms: C_5  and  C_6
REMARK    4  A    between atoms: C_6  and  C_7
REMARK    5  A    between atoms: C_13  and  N_14
REMARK                            x       y       z     vdW  Elec       q    Type
REMARK                         _______ _______ _______ _____ _____    ______ ____
ROOT
ATOM      1  C   UNL     1       2.654   7.987  18.024  0.00  0.00    +0.000 C 
ENDROOT
BRANCH   1   4
ATOM      2  C   UNL     1       4.803   4.889  18.641  0.00  0.00    +0.000 A 
ATOM      3  C   UNL     1       4.407   6.225  18.466  0.00  0.00    +0.000 A 
ATOM      4  C   UNL     1       3.072   6.550  18.205  0.00  0.00    +0.000 A 
ATOM      5  C   UNL     1       2.135   5.516  18.119  0.00  0.00    +0.000 A 
ATOM      6  C   UNL     1       2.524   4.175  18.285  0.00  0.00    +0.000 A 
ATOM      7  C   UNL     1       1.580   3.143  18.193  0.00  0.00    +0.000 A 
ATOM      8  C   UNL     1       1.978   1.822  18.345  0.00  0.00    +0.000 A 
ATOM      9  C   UNL     1       3.313   1.576  18.587  0.00  0.00    +0.000 A 
ATOM     10  N   UNL     1       4.247   2.544  18.692  0.00  0.00    +0.000 NA
ATOM     11  C   UNL     1       3.873   3.839  18.541  0.00  0.00    +0.000 A 
BRANCH   2  13
ATOM     12  C   UNL     1       7.038   4.755  17.813  0.00  0.00    +0.000 C 
ATOM     13  O   UNL     1       6.114   4.526  18.868  0.00  0.00    +0.000 OA
ENDBRANCH   2  13
ENDBRANCH   1   4
BRANCH   1  14
ATOM     14  C   UNL     1       1.786   8.549  19.111  0.00  0.00    +0.000 A 
ATOM     15  C   UNL     1       1.782   7.994  20.375  0.00  0.00    +0.000 A 
ATOM     16  N   UNL     1       1.118   8.510  21.425  0.00  0.00    +0.000 NA
ATOM     17  C   UNL     1       0.422   9.621  21.189  0.00  0.00    +0.000 A 
ATOM     18  N   UNL     1      -0.189  10.231  22.264  0.00  0.00    +0.000 N 
ATOM     19  N   UNL     1       0.279  10.189  19.989  0.00  0.00    +0.000 NA
ATOM     20  C   UNL     1       0.962   9.649  18.968  0.00  0.00    +0.000 A 
ATOM     21  H   UNL     1      -0.359   9.555  22.995  0.00  0.00    +0.000 HD
ATOM     22  H   UNL     1      -0.964  10.796  21.953  0.00  0.00    +0.000 HD
BRANCH  20  23
ATOM     23  N   UNL     1       0.773  10.283  17.739  0.00  0.00    +0.000 N 
ATOM     24  H   UNL     1       0.404   9.579  17.106  0.00  0.00    +0.000 HD
ATOM     25  H   UNL     1       0.141  11.072  17.812  0.00  0.00    +0.000 HD
ENDBRANCH  20  23
ENDBRANCH   1  14
TORSDOF 4
ENDMDL
MODEL 6
REMARK VINA RESULT:      -7.3      2.173      6.573
REMARK  Name = 
REMARK  5 active torsions:
REMARK  status: ('A' for Active; 'I' for Inactive)
REMARK    1  A    between atoms: C_1  and  O_2
REMARK    2  A    between atoms: O_2  and  C_3
REMARK    3  A    between atoms: C_5  and  C_6
REMARK    4  A    between atoms: C_6  and  C_7
REMARK    5  A    between atoms: C_13  and  N_14
REMARK                            x       y       z     vdW  Elec       q    Type
REMARK                         _______ _______ _______ _____ _____    ______ ____
ROOT
ATOM      1  C   UNL     1       3.207   4.810  18.264  0.00  0.00    +0.000 C 
ENDROOT
BRANCH   1   4
ATOM      2  C   UNL     1       6.628   5.811  16.888  0.00  0.00    +0.000 A 
ATOM      3  C   UNL     1       5.520   5.674  17.741  0.00  0.00    +0.000 A 
ATOM      4  C   UNL     1       4.389   4.956  17.339  0.00  0.00    +0.000 A 
ATOM      5  C   UNL     1       4.380   4.377  16.068  0.00  0.00    +0.000 A 
ATOM      6  C   UNL     1       5.481   4.515  15.204  0.00  0.00    +0.000 A 
ATOM      7  C   UNL     1       5.462   3.934  13.928  0.00  0.00    +0.000 A 
ATOM      8  C   UNL     1       6.549   4.089  13.080  0.00  0.00    +0.000 A 
ATOM      9  C   UNL     1       7.625   4.821  13.538  0.00  0.00    +0.000 A 
ATOM     10  N   UNL     1       7.682   5.385  14.762  0.00  0.00    +0.000 NA
ATOM     11  C   UNL     1       6.625   5.246  15.600  0.00  0.00    +0.000 A 
BRANCH   2  13
ATOM     12  C   UNL     1       7.553   7.904  17.568  0.00  0.00    +0.000 C 
ATOM     13  O   UNL     1       7.748   6.536  17.234  0.00  0.00    +0.000 OA
ENDBRANCH   2  13
ENDBRANCH   1   4
BRANCH   1  14
ATOM     14  C   UNL     1       2.696   6.085  18.865  0.00  0.00    +0.000 A 
ATOM     15  C   UNL     1       2.598   7.237  18.111  0.00  0.00    +0.000 A 
ATOM     16  N   UNL     1       2.046   8.383  18.548  0.00  0.00    +0.000 NA
ATOM     17  C   UNL     1       1.586   8.371  19.799  0.00  0.00    +0.000 A 
ATOM     18  N   UNL     1       0.927   9.497  20.246  0.00  0.00    +0.000 N 
ATOM     19  N   UNL     1       1.714   7.348  20.647  0.00  0.00    +0.000 NA
ATOM     20  C   UNL     1       2.263   6.220  20.171  0.00  0.00    +0.000 A 
ATOM     21  H   UNL     1       1.225  10.305  19.719  0.00  0.00    +0.000 HD
ATOM     22  H   UNL     1       0.964   9.548  21.253  0.00  0.00    +0.000 HD
BRANCH  20  23
ATOM     23  N   UNL     1       2.371   5.185  21.101  0.00  0.00    +0.000 N 
ATOM     24  H   UNL     1       2.665   5.614  21.975  0.00  0.00    +0.000 HD
ATOM     25  H   UNL     1       1.497   4.687  21.218  0.00  0.00    +0.000 HD
ENDBRANCH  20  23
ENDBRANCH   1  14
TORSDOF 4
ENDMDL
MODEL 7
REMARK VINA RESULT:      -7.3      2.676      3.998
REMARK  Name = 
REMARK  5 active torsions:
REMARK  status: ('A' for Active; 'I' for Inactive)
REMARK    1  A    between atoms: C_1  and  O_2
REMARK    2  A    between atoms: O_2  and  C_3
REMARK    3  A    between atoms: C_5  and  C_6
REMARK    4  A    between atoms: C_6  and  C_7
REMARK    5  A    between atoms: C_13  and  N_14
REMARK                            x       y       z     vdW  Elec       q    Type
REMARK                         _______ _______ _______ _____ _____    ______ ____
ROOT
ATOM      1  C   UNL     1       6.539   4.436  17.792  0.00  0.00    +0.000 C 
ENDROOT
BRANCH   1   4
ATOM      2  C   UNL     1       3.208   5.437  19.374  0.00  0.00    +0.000 A 
ATOM      3  C   UNL     1       4.533   5.485  18.910  0.00  0.00    +0.000 A 
ATOM      4  C   UNL     1       5.118   4.374  18.292  0.00  0.00    +0.000 A 
ATOM      5  C   UNL     1       4.357   3.211  18.146  0.00  0.00    +0.000 A 
ATOM      6  C   UNL     1       3.033   3.152  18.614  0.00  0.00    +0.000 A 
ATOM      7  C   UNL     1       2.277   1.980  18.467  0.00  0.00    +0.000 A 
ATOM      8  C   UNL     1       0.975   1.929  18.946  0.00  0.00    +0.000 A 
ATOM      9  C   UNL     1       0.469   3.058  19.556  0.00  0.00    +0.000 A 
ATOM     10  N   UNL     1       1.163   4.205  19.705  0.00  0.00    +0.000 NA
ATOM     11  C   UNL     1       2.438   4.268  19.247  0.00  0.00    +0.000 A 
BRANCH   2  13
ATOM     12  C   UNL     1       2.280   7.631  19.222  0.00  0.00    +0.000 C 
ATOM     13  O   UNL     1       2.607   6.499  20.016  0.00  0.00    +0.000 OA
ENDBRANCH   2  13
ENDBRANCH   1   4
BRANCH   1  14
ATOM     14  C   UNL     1       7.196   5.781  17.878  0.00  0.00    +0.000 A 
ATOM     15  C   UNL     1       7.032   6.717  16.877  0.00  0.00    +0.000 A 
ATOM     16  N   UNL     1       7.496   7.978  16.937  0.00  0.00    +0.000 NA
ATOM     17  C   UNL     1       8.162   8.305  18.044  0.00  0.00    +0.000 A 
ATOM     18  N   UNL     1       8.565   9.616  18.181  0.00  0.00    +0.000 N 
ATOM     19  N   UNL     1       8.461   7.456  19.030  0.00  0.00    +0.000 NA
ATOM     20  C   UNL     1       7.975   6.209  18.937  0.00  0.00    +0.000 A 
ATOM     21  H   UNL     1       8.654  10.048  17.273  0.00  0.00    +0.000 HD
ATOM     22  H   UNL     1       9.349   9.678  18.813  0.00  0.00    +0.000 HD
BRANCH  20  23
ATOM     23  N   UNL     1       8.320   5.367  19.995  0.00  0.00    +0.000 N 
ATOM     24  H   UNL     1       8.112   5.877  20.849  0.00  0.00    +0.000 HD
ATOM     25  H   UNL     1       7.812   4.490  19.964  0.00  0.00    +0.000 HD
ENDBRANCH  20  23
ENDBRANCH   1  14
TORSDOF 4
ENDMDL
MODEL 8
REMARK VINA RESULT:      -7.3      3.611      5.273
REMARK  Name = 
REMARK  5 active torsions:
REMARK  status: ('A' for Active; 'I' for Inactive)
REMARK    1  A    between atoms: C_1  and  O_2
REMARK    2  A    between atoms: O_2  and  C_3
REMARK    3  A    between atoms: C_5  and  C_6
REMARK    4  A    between atoms: C_6  and  C_7
REMARK    5  A    between atoms: C_13  and  N_14
REMARK                            x       y       z     vdW  Elec       q    Type
REMARK                         _______ _______ _______ _____ _____    ______ ____
ROOT
ATOM      1  C   UNL     1       3.002   7.116  17.963  0.00  0.00    +0.000 C 
ENDROOT
BRANCH   1   4
ATOM      2  C   UNL     1       0.392   9.793  18.745  0.00  0.00    +0.000 A 
ATOM      3  C   UNL     1       1.270   8.950  18.045  0.00  0.00    +0.000 A 
ATOM      4  C   UNL     1       2.066   8.022  18.723  0.00  0.00    +0.000 A 
ATOM      5  C   UNL     1       1.974   7.950  20.115  0.00  0.00    +0.000 A 
ATOM      6  C   UNL     1       1.104   8.795  20.825  0.00  0.00    +0.000 A 
ATOM      7  C   UNL     1       1.019   8.719  22.223  0.00  0.00    +0.000 A 
ATOM      8  C   UNL     1       0.166   9.569  22.913  0.00  0.00    +0.000 A 
ATOM      9  C   UNL     1      -0.579  10.468  22.180  0.00  0.00    +0.000 A 
ATOM     10  N   UNL     1      -0.532  10.562  20.835  0.00  0.00    +0.000 NA
ATOM     11  C   UNL     1       0.301   9.741  20.147  0.00  0.00    +0.000 A 
BRANCH   2  13
ATOM     12  C   UNL     1      -1.554  10.282  17.451  0.00  0.00    +0.000 C 
ATOM     13  O   UNL     1      -0.386  10.743  18.117  0.00  0.00    +0.000 OA
ENDBRANCH   2  13
ENDBRANCH   1   4
BRANCH   1  14
ATOM     14  C   UNL     1       2.805   5.646  18.189  0.00  0.00    +0.000 A 
ATOM     15  C   UNL     1       1.662   5.008  17.752  0.00  0.00    +0.000 A 
ATOM     16  N   UNL     1       1.466   3.679  17.819  0.00  0.00    +0.000 NA
ATOM     17  C   UNL     1       2.455   2.967  18.358  0.00  0.00    +0.000 A 
ATOM     18  N   UNL     1       2.329   1.594  18.352  0.00  0.00    +0.000 N 
ATOM     19  N   UNL     1       3.560   3.488  18.898  0.00  0.00    +0.000 NA
ATOM     20  C   UNL     1       3.722   4.816  18.805  0.00  0.00    +0.000 A 
ATOM     21  H   UNL     1       1.354   1.336  18.307  0.00  0.00    +0.000 HD
ATOM     22  H   UNL     1       2.893   1.187  19.083  0.00  0.00    +0.000 HD
BRANCH  20  23
ATOM     23  N   UNL     1       4.894   5.303  19.387  0.00  0.00    +0.000 N 
ATOM     24  H   UNL     1       4.841   5.073  20.376  0.00  0.00    +0.000 HD
ATOM     25  H   UNL     1       5.723   4.901  18.965  0.00  0.00    +0.000 HD
ENDBRANCH  20  23
ENDBRANCH   1  14
TORSDOF 4
ENDMDL
MODEL 9
REMARK VINA RESULT:      -7.2      2.744      6.586
REMARK  Name = 
REMARK  5 active torsions:
REMARK  status: ('A' for Active; 'I' for Inactive)
REMARK    1  A    between atoms: C_1  and  O_2
REMARK    2  A    between atoms: O_2  and  C_3
REMARK    3  A    between atoms: C_5  and  C_6
REMARK    4  A    between atoms: C_6  and  C_7
REMARK    5  A    between atoms: C_13  and  N_14
REMARK                            x       y       z     vdW  Elec       q    Type
REMARK                         _______ _______ _______ _____ _____    ______ ____
ROOT
ATOM      1  C   UNL     1       3.233   6.523  18.343  0.00  0.00    +0.000 C 
ENDROOT
BRANCH   1   4
ATOM      2  C   UNL     1       6.720   6.623  16.785  0.00  0.00    +0.000 A 
ATOM      3  C   UNL     1       5.626   6.886  17.626  0.00  0.00    +0.000 A 
ATOM      4  C   UNL     1       4.401   6.240  17.432  0.00  0.00    +0.000 A 
ATOM      5  C   UNL     1       4.284   5.326  16.381  0.00  0.00    +0.000 A 
ATOM      6  C   UNL     1       5.371   5.063  15.530  0.00  0.00    +0.000 A 
ATOM      7  C   UNL     1       5.245   4.147  14.475  0.00  0.00    +0.000 A 
ATOM      8  C   UNL     1       6.322   3.906  13.634  0.00  0.00    +0.000 A 
ATOM      9  C   UNL     1       7.495   4.589  13.877  0.00  0.00    +0.000 A 
ATOM     10  N   UNL     1       7.656   5.468  14.888  0.00  0.00    +0.000 NA
ATOM     11  C   UNL     1       6.611   5.718  15.715  0.00  0.00    +0.000 A 
BRANCH   2  13
ATOM     12  C   UNL     1       7.954   8.445  17.711  0.00  0.00    +0.000 C 
ATOM     13  O   UNL     1       7.934   7.262  16.923  0.00  0.00    +0.000 OA
ENDBRANCH   2  13
ENDBRANCH   1   4
BRANCH   1  14
ATOM     14  C   UNL     1       2.858   5.412  19.278  0.00  0.00    +0.000 A 
ATOM     15  C   UNL     1       3.197   4.104  18.998  0.00  0.00    +0.000 A 
ATOM     16  N   UNL     1       2.995   3.074  19.839  0.00  0.00    +0.000 NA
ATOM     17  C   UNL     1       2.418   3.372  21.003  0.00  0.00    +0.000 A 
ATOM     18  N   UNL     1       2.286   2.358  21.927  0.00  0.00    +0.000 N 
ATOM     19  N   UNL     1       1.965   4.583  21.339  0.00  0.00    +0.000 NA
ATOM     20  C   UNL     1       2.191   5.585  20.476  0.00  0.00    +0.000 A 
ATOM     21  H   UNL     1       2.277   1.463  21.461  0.00  0.00    +0.000 HD
ATOM     22  H   UNL     1       1.536   2.565  22.570  0.00  0.00    +0.000 HD
BRANCH  20  23
ATOM     23  N   UNL     1       1.694   6.825  20.879  0.00  0.00    +0.000 N 
ATOM     24  H   UNL     1       0.709   6.836  20.629  0.00  0.00    +0.000 HD
ATOM     25  H   UNL     1       1.817   6.978  21.873  0.00  0.00    +0.000 HD
ENDBRANCH  20  23
ENDBRANCH   1  14
TORSDOF 4
ENDMDL
