MODEL 1
REMARK VINA RESULT:      -7.8      0.000      0.000
REMARK  Name = 
REMARK  1 active torsions:
REMARK  status: ('A' for Active; 'I' for Inactive)
REMARK    1  A    between atoms: C_4  and  C_5
REMARK                            x       y       z     vdW  Elec       q    Type
REMARK                         _______ _______ _______ _____ _____    ______ ____
ROOT
ATOM      1  C   UNL     1       1.478   8.430  20.079  0.00  0.00    +0.000 A 
ATOM      2  C   UNL     1       1.944   8.813  18.821  0.00  0.00    +0.000 A 
ATOM      3  C   UNL     1       2.679   7.927  18.031  0.00  0.00    +0.000 A 
ATOM      4  C   UNL     1       2.973   6.644  18.486  0.00  0.00    +0.000 A 
ATOM      5  N   UNL     1       3.700   5.760  17.723  0.00  0.00    +0.000 N 
ATOM      6  C   UNL     1       4.135   4.481  18.280  0.00  0.00    +0.000 C 
ATOM      7  C   UNL     1       5.450   4.189  17.564  0.00  0.00    +0.000 C 
ATOM      8  C   UNL     1       6.671   4.804  18.228  0.00  0.00    +0.000 C 
ATOM      9  N   UNL     1       7.608   5.076  17.129  0.00  0.00    +0.000 NA
ATOM     10  C   UNL     1       6.808   5.271  15.907  0.00  0.00    +0.000 C 
ATOM     11  C   UNL     1       5.363   4.944  16.249  0.00  0.00    +0.000 C 
ATOM     12  C   UNL     1       4.518   6.175  16.591  0.00  0.00    +0.000 C 
ATOM     13  N   UNL     1       2.524   6.248  19.696  0.00  0.00    +0.000 NA
ATOM     14  C   UNL     1       1.804   7.125  20.446  0.00  0.00    +0.000 A 
ATOM     15  H   UNL     1       8.211   4.264  17.000  0.00  0.00    +0.000 HD
ENDROOT
BRANCH   1  19
ATOM     16  C   UNL     1      -0.838  11.063  22.583  0.00  0.00    +0.000 A 
ATOM     17  C   UNL     1      -0.405   9.836  23.071  0.00  0.00    +0.000 A 
ATOM     18  C   UNL     1       0.362   8.993  22.262  0.00  0.00    +0.000 A 
ATOM     19  C   UNL     1       0.702   9.345  20.941  0.00  0.00    +0.000 A 
ATOM     20  C   UNL     1       0.250  10.594  20.475  0.00  0.00    +0.000 A 
ATOM     21  C   UNL     1      -0.508  11.445  21.287  0.00  0.00    +0.000 A 
ENDBRANCH   1  19
TORSDOF 1
ENDMDL
MODEL 2
REMARK VINA RESULT:      -7.8      0.094      1.073
REMARK  Name = 
REMARK  1 active torsions:
REMARK  status: ('A' for Active; 'I' for Inactive)
REMARK    1  A    between atoms: C_4  and  C_5
REMARK                            x       y       z     vdW  Elec       q    Type
REMARK                         _______ _______ _______ _____ _____    ______ ____
ROOT
ATOM      1  C   UNL     1       1.454   8.439  20.073  0.00  0.00    +0.000 A 
ATOM      2  C   UNL     1       1.916   8.812  18.810  0.00  0.00    +0.000 A 
ATOM      3  C   UNL     1       2.659   7.925  18.030  0.00  0.00    +0.000 A 
ATOM      4  C   UNL     1       2.966   6.650  18.499  0.00  0.00    +0.000 A 
ATOM      5  N   UNL     1       3.700   5.764  17.746  0.00  0.00    +0.000 N 
ATOM      6  C   UNL     1       4.148   4.496  18.317  0.00  0.00    +0.000 C 
ATOM      7  C   UNL     1       5.466   4.208  17.603  0.00  0.00    +0.000 C 
ATOM      8  C   UNL     1       6.681   4.844  18.260  0.00  0.00    +0.000 C 
ATOM      9  N   UNL     1       7.614   5.112  17.156  0.00  0.00    +0.000 NA
ATOM     10  C   UNL     1       6.811   5.284  15.933  0.00  0.00    +0.000 C 
ATOM     11  C   UNL     1       5.370   4.948  16.280  0.00  0.00    +0.000 C 
ATOM     12  C   UNL     1       4.514   6.174  16.609  0.00  0.00    +0.000 C 
ATOM     13  N   UNL     1       2.522   6.263  19.714  0.00  0.00    +0.000 NA
ATOM     14  C   UNL     1       1.793   7.142  20.455  0.00  0.00    +0.000 A 
ATOM     15  H   UNL     1       8.226   4.304  17.036  0.00  0.00    +0.000 HD
ENDROOT
BRANCH   1  19
ATOM     16  C   UNL     1      -0.777  11.145  22.577  0.00  0.00    +0.000 A 
ATOM     17  C   UNL     1      -0.309  11.564  21.338  0.00  0.00    +0.000 A 
ATOM     18  C   UNL     1       0.399  10.678  20.520  0.00  0.00    +0.000 A 
ATOM     19  C   UNL     1       0.670   9.356  20.926  0.00  0.00    +0.000 A 
ATOM     20  C   UNL     1       0.183   8.960  22.185  0.00  0.00    +0.000 A 
ATOM     21  C   UNL     1      -0.535   9.841  23.000  0.00  0.00    +0.000 A 
ENDBRANCH   1  19
TORSDOF 1
ENDMDL
MODEL 3
REMARK VINA RESULT:      -7.5      2.276      3.431
REMARK  Name = 
REMARK  1 active torsions:
REMARK  status: ('A' for Active; 'I' for Inactive)
REMARK    1  A    between atoms: C_4  and  C_5
REMARK                            x       y       z     vdW  Elec       q    Type
REMARK                         _______ _______ _______ _____ _____    ______ ____
ROOT
ATOM      1  C   UNL     1       1.378   9.324  18.824  0.00  0.00    +0.000 A 
ATOM      2  C   UNL     1       1.382   8.515  19.961  0.00  0.00    +0.000 A 
ATOM      3  C   UNL     1       2.076   7.304  19.974  0.00  0.00    +0.000 A 
ATOM      4  C   UNL     1       2.770   6.870  18.848  0.00  0.00    +0.000 A 
ATOM      5  N   UNL     1       3.455   5.678  18.840  0.00  0.00    +0.000 N 
ATOM      6  C   UNL     1       4.041   5.164  17.604  0.00  0.00    +0.000 C 
ATOM      7  C   UNL     1       3.973   3.648  17.759  0.00  0.00    +0.000 C 
ATOM      8  C   UNL     1       2.659   3.034  17.300  0.00  0.00    +0.000 C 
ATOM      9  N   UNL     1       2.474   1.850  18.151  0.00  0.00    +0.000 NA
ATOM     10  C   UNL     1       3.185   2.101  19.416  0.00  0.00    +0.000 C 
ATOM     11  C   UNL     1       3.956   3.402  19.258  0.00  0.00    +0.000 C 
ATOM     12  C   UNL     1       3.223   4.623  19.820  0.00  0.00    +0.000 C 
ATOM     13  N   UNL     1       2.789   7.641  17.739  0.00  0.00    +0.000 NA
ATOM     14  C   UNL     1       2.111   8.821  17.751  0.00  0.00    +0.000 A 
ATOM     15  H   UNL     1       2.896   1.043  17.692  0.00  0.00    +0.000 HD
ENDROOT
BRANCH   1  19
ATOM     16  C   UNL     1      -0.751  13.065  18.622  0.00  0.00    +0.000 A 
ATOM     17  C   UNL     1      -1.440  11.863  18.525  0.00  0.00    +0.000 A 
ATOM     18  C   UNL     1      -0.748  10.651  18.610  0.00  0.00    +0.000 A 
ATOM     19  C   UNL     1       0.650  10.609  18.777  0.00  0.00    +0.000 A 
ATOM     20  C   UNL     1       1.321  11.843  18.872  0.00  0.00    +0.000 A 
ATOM     21  C   UNL     1       0.629  13.057  18.799  0.00  0.00    +0.000 A 
ENDBRANCH   1  19
TORSDOF 1
ENDMDL
MODEL 4
REMARK VINA RESULT:      -7.4      2.209      3.387
REMARK  Name = 
REMARK  1 active torsions:
REMARK  status: ('A' for Active; 'I' for Inactive)
REMARK    1  A    between atoms: C_4  and  C_5
REMARK                            x       y       z     vdW  Elec       q    Type
REMARK                         _______ _______ _______ _____ _____    ______ ____
ROOT
ATOM      1  C   UNL     1       1.344   9.338  18.877  0.00  0.00    +0.000 A 
ATOM      2  C   UNL     1       1.392   8.509  19.999  0.00  0.00    +0.000 A 
ATOM      3  C   UNL     1       2.104   7.309  19.970  0.00  0.00    +0.000 A 
ATOM      4  C   UNL     1       2.773   6.906  18.817  0.00  0.00    +0.000 A 
ATOM      5  N   UNL     1       3.476   5.725  18.769  0.00  0.00    +0.000 N 
ATOM      6  C   UNL     1       4.034   5.242  17.509  0.00  0.00    +0.000 C 
ATOM      7  C   UNL     1       3.993   3.723  17.638  0.00  0.00    +0.000 C 
ATOM      8  C   UNL     1       2.677   3.097  17.204  0.00  0.00    +0.000 C 
ATOM      9  N   UNL     1       2.533   1.895  18.038  0.00  0.00    +0.000 NA
ATOM     10  C   UNL     1       3.276   2.135  19.287  0.00  0.00    +0.000 C 
ATOM     11  C   UNL     1       4.022   3.450  19.132  0.00  0.00    +0.000 C 
ATOM     12  C   UNL     1       3.287   4.650  19.736  0.00  0.00    +0.000 C 
ATOM     13  N   UNL     1       2.749   7.696  17.723  0.00  0.00    +0.000 NA
ATOM     14  C   UNL     1       2.054   8.866  17.775  0.00  0.00    +0.000 A 
ATOM     15  H   UNL     1       2.955   1.103  17.553  0.00  0.00    +0.000 HD
ENDROOT
BRANCH   1  19
ATOM     16  C   UNL     1      -0.824  13.062  18.929  0.00  0.00    +0.000 A 
ATOM     17  C   UNL     1       0.562  13.062  18.839  0.00  0.00    +0.000 A 
ATOM     18  C   UNL     1       1.261  11.852  18.803  0.00  0.00    +0.000 A 
ATOM     19  C   UNL     1       0.595  10.612  18.873  0.00  0.00    +0.000 A 
ATOM     20  C   UNL     1      -0.809  10.644  18.965  0.00  0.00    +0.000 A 
ATOM     21  C   UNL     1      -1.511  11.854  18.988  0.00  0.00    +0.000 A 
ENDBRANCH   1  19
TORSDOF 1
ENDMDL
MODEL 5
REMARK VINA RESULT:      -7.4      1.500      1.819
REMARK  Name = 
REMARK  1 active torsions:
REMARK  status: ('A' for Active; 'I' for Inactive)
REMARK    1  A    between atoms: C_4  and  C_5
REMARK                            x       y       z     vdW  Elec       q    Type
REMARK                         _______ _______ _______ _____ _____    ______ ____
ROOT
ATOM      1  C   UNL     1       1.257   9.265  19.171  0.00  0.00    +0.000 A 
ATOM      2  C   UNL     1       1.804   9.075  17.901  0.00  0.00    +0.000 A 
ATOM      3  C   UNL     1       2.574   7.947  17.617  0.00  0.00    +0.000 A 
ATOM      4  C   UNL     1       2.824   6.990  18.597  0.00  0.00    +0.000 A 
ATOM      5  N   UNL     1       3.584   5.874  18.336  0.00  0.00    +0.000 N 
ATOM      6  C   UNL     1       3.969   4.967  19.415  0.00  0.00    +0.000 C 
ATOM      7  C   UNL     1       5.321   4.414  18.976  0.00  0.00    +0.000 C 
ATOM      8  C   UNL     1       6.507   5.274  19.382  0.00  0.00    +0.000 C 
ATOM      9  N   UNL     1       7.512   5.059  18.332  0.00  0.00    +0.000 NA
ATOM     10  C   UNL     1       6.791   4.696  17.100  0.00  0.00    +0.000 C 
ATOM     11  C   UNL     1       5.324   4.527  17.461  0.00  0.00    +0.000 C 
ATOM     12  C   UNL     1       4.475   5.772  17.187  0.00  0.00    +0.000 C 
ATOM     13  N   UNL     1       2.297   7.147  19.830  0.00  0.00    +0.000 NA
ATOM     14  C   UNL     1       1.543   8.252  20.084  0.00  0.00    +0.000 A 
ATOM     15  H   UNL     1       8.112   4.280  18.603  0.00  0.00    +0.000 HD
ENDROOT
BRANCH   1  19
ATOM     16  C   UNL     1      -1.110  12.748  20.085  0.00  0.00    +0.000 A 
ATOM     17  C   UNL     1      -1.644  11.723  19.315  0.00  0.00    +0.000 A 
ATOM     18  C   UNL     1      -0.880  10.586  19.036  0.00  0.00    +0.000 A 
ATOM     19  C   UNL     1       0.442  10.451  19.505  0.00  0.00    +0.000 A 
ATOM     20  C   UNL     1       0.956  11.506  20.282  0.00  0.00    +0.000 A 
ATOM     21  C   UNL     1       0.189  12.639  20.573  0.00  0.00    +0.000 A 
ENDBRANCH   1  19
TORSDOF 1
ENDMDL
MODEL 6
REMARK VINA RESULT:      -7.4      0.972      1.199
REMARK  Name = 
REMARK  1 active torsions:
REMARK  status: ('A' for Active; 'I' for Inactive)
REMARK    1  A    between atoms: C_4  and  C_5
REMARK                            x       y       z     vdW  Elec       q    Type
REMARK                         _______ _______ _______ _____ _____    ______ ____
ROOT
ATOM      1  C   UNL     1       1.140   9.103  19.627  0.00  0.00    +0.000 A 
ATOM      2  C   UNL     1       1.639   9.099  18.324  0.00  0.00    +0.000 A 
ATOM      3  C   UNL     1       2.458   8.061  17.876  0.00  0.00    +0.000 A 
ATOM      4  C   UNL     1       2.805   7.012  18.724  0.00  0.00    +0.000 A 
ATOM      5  N   UNL     1       3.614   5.983  18.302  0.00  0.00    +0.000 N 
ATOM      6  C   UNL     1       4.096   4.980  19.248  0.00  0.00    +0.000 C 
ATOM      7  C   UNL     1       5.456   4.567  18.694  0.00  0.00    +0.000 C 
ATOM      8  C   UNL     1       6.609   5.444  19.156  0.00  0.00    +0.000 C 
ATOM      9  N   UNL     1       7.577   5.416  18.050  0.00  0.00    +0.000 NA
ATOM     10  C   UNL     1       6.823   5.158  16.812  0.00  0.00    +0.000 C 
ATOM     11  C   UNL     1       5.385   4.858  17.205  0.00  0.00    +0.000 C 
ATOM     12  C   UNL     1       4.457   6.073  17.116  0.00  0.00    +0.000 C 
ATOM     13  N   UNL     1       2.325   6.990  19.986  0.00  0.00    +0.000 NA
ATOM     14  C   UNL     1       1.523   8.008  20.400  0.00  0.00    +0.000 A 
ATOM     15  H   UNL     1       8.231   4.649  18.202  0.00  0.00    +0.000 HD
ENDROOT
BRANCH   1  19
ATOM     16  C   UNL     1      -1.421  12.226  21.130  0.00  0.00    +0.000 A 
ATOM     17  C   UNL     1      -0.519  11.594  21.977  0.00  0.00    +0.000 A 
ATOM     18  C   UNL     1       0.323  10.594  21.481  0.00  0.00    +0.000 A 
ATOM     19  C   UNL     1       0.275  10.190  20.133  0.00  0.00    +0.000 A 
ATOM     20  C   UNL     1      -0.648  10.848  19.299  0.00  0.00    +0.000 A 
ATOM     21  C   UNL     1      -1.484  11.857  19.790  0.00  0.00    +0.000 A 
ENDBRANCH   1  19
TORSDOF 1
ENDMDL
MODEL 7
REMARK VINA RESULT:      -7.3      4.635      7.051
REMARK  Name = 
REMARK  1 active torsions:
REMARK  status: ('A' for Active; 'I' for Inactive)
REMARK    1  A    between atoms: C_4  and  C_5
REMARK                            x       y       z     vdW  Elec       q    Type
REMARK                         _______ _______ _______ _____ _____    ______ ____
ROOT
ATOM      1  C   UNL     1       8.514   9.071  18.470  0.00  0.00    +0.000 A 
ATOM      2  C   UNL     1       8.703   7.825  19.068  0.00  0.00    +0.000 A 
ATOM      3  C   UNL     1       7.955   6.718  18.664  0.00  0.00    +0.000 A 
ATOM      4  C   UNL     1       6.994   6.835  17.663  0.00  0.00    +0.000 A 
ATOM      5  N   UNL     1       6.244   5.757  17.256  0.00  0.00    +0.000 N 
ATOM      6  C   UNL     1       5.134   5.933  16.322  0.00  0.00    +0.000 C 
ATOM      7  C   UNL     1       4.139   4.845  16.714  0.00  0.00    +0.000 C 
ATOM      8  C   UNL     1       3.174   5.252  17.816  0.00  0.00    +0.000 C 
ATOM      9  N   UNL     1       2.869   4.006  18.535  0.00  0.00    +0.000 NA
ATOM     10  C   UNL     1       4.021   3.105  18.363  0.00  0.00    +0.000 C 
ATOM     11  C   UNL     1       4.974   3.762  17.377  0.00  0.00    +0.000 C 
ATOM     12  C   UNL     1       6.112   4.539  18.046  0.00  0.00    +0.000 C 
ATOM     13  N   UNL     1       6.800   8.029  17.063  0.00  0.00    +0.000 NA
ATOM     14  C   UNL     1       7.546   9.094  17.467  0.00  0.00    +0.000 A 
ATOM     15  H   UNL     1       2.048   3.573  18.113  0.00  0.00    +0.000 HD
ENDROOT
BRANCH   1  19
ATOM     16  C   UNL     1      10.822  12.514  19.649  0.00  0.00    +0.000 A 
ATOM     17  C   UNL     1      10.677  12.198  18.304  0.00  0.00    +0.000 A 
ATOM     18  C   UNL     1       9.912  11.091  17.924  0.00  0.00    +0.000 A 
ATOM     19  C   UNL     1       9.287  10.263  18.878  0.00  0.00    +0.000 A 
ATOM     20  C   UNL     1       9.451  10.608  20.232  0.00  0.00    +0.000 A 
ATOM     21  C   UNL     1      10.206  11.723  20.614  0.00  0.00    +0.000 A 
ENDBRANCH   1  19
TORSDOF 1
ENDMDL
MODEL 8
REMARK VINA RESULT:      -7.3      4.630      6.977
REMARK  Name = 
REMARK  1 active torsions:
REMARK  status: ('A' for Active; 'I' for Inactive)
REMARK    1  A    between atoms: C_4  and  C_5
REMARK                            x       y       z     vdW  Elec       q    Type
REMARK                         _______ _______ _______ _____ _____    ______ ____
ROOT
ATOM      1  C   UNL     1       8.531   9.054  18.460  0.00  0.00    +0.000 A 
ATOM      2  C   UNL     1       8.711   7.811  19.067  0.00  0.00    +0.000 A 
ATOM      3  C   UNL     1       7.955   6.706  18.670  0.00  0.00    +0.000 A 
ATOM      4  C   UNL     1       6.996   6.823  17.667  0.00  0.00    +0.000 A 
ATOM      5  N   UNL     1       6.239   5.747  17.267  0.00  0.00    +0.000 N 
ATOM      6  C   UNL     1       5.131   5.924  16.331  0.00  0.00    +0.000 C 
ATOM      7  C   UNL     1       4.128   4.846  16.730  0.00  0.00    +0.000 C 
ATOM      8  C   UNL     1       3.165   5.266  17.829  0.00  0.00    +0.000 C 
ATOM      9  N   UNL     1       2.851   4.028  18.556  0.00  0.00    +0.000 NA
ATOM     10  C   UNL     1       3.998   3.118  18.390  0.00  0.00    +0.000 C 
ATOM     11  C   UNL     1       4.955   3.762  17.401  0.00  0.00    +0.000 C 
ATOM     12  C   UNL     1       6.098   4.536  18.065  0.00  0.00    +0.000 C 
ATOM     13  N   UNL     1       6.810   8.015  17.059  0.00  0.00    +0.000 NA
ATOM     14  C   UNL     1       7.563   9.077  17.457  0.00  0.00    +0.000 A 
ATOM     15  H   UNL     1       2.027   3.598  18.136  0.00  0.00    +0.000 HD
ENDROOT
BRANCH   1  19
ATOM     16  C   UNL     1      10.749  12.556  19.638  0.00  0.00    +0.000 A 
ATOM     17  C   UNL     1      10.148  11.753  20.600  0.00  0.00    +0.000 A 
ATOM     18  C   UNL     1       9.445  10.608  20.215  0.00  0.00    +0.000 A 
ATOM     19  C   UNL     1       9.311  10.244  18.861  0.00  0.00    +0.000 A 
ATOM     20  C   UNL     1       9.930  11.076  17.909  0.00  0.00    +0.000 A 
ATOM     21  C   UNL     1      10.645  12.216  18.292  0.00  0.00    +0.000 A 
ENDBRANCH   1  19
TORSDOF 1
ENDMDL
MODEL 9
REMARK VINA RESULT:      -7.1      2.555      4.042
REMARK  Name = 
REMARK  1 active torsions:
REMARK  status: ('A' for Active; 'I' for Inactive)
REMARK    1  A    between atoms: C_4  and  C_5
REMARK                            x       y       z     vdW  Elec       q    Type
REMARK                         _______ _______ _______ _____ _____    ______ ____
ROOT
ATOM      1  C   UNL     1       1.301   9.816  19.058  0.00  0.00    +0.000 A 
ATOM      2  C   UNL     1       1.131   9.130  20.261  0.00  0.00    +0.000 A 
ATOM      3  C   UNL     1       1.610   7.828  20.415  0.00  0.00    +0.000 A 
ATOM      4  C   UNL     1       2.260   7.181  19.366  0.00  0.00    +0.000 A 
ATOM      5  N   UNL     1       2.735   5.897  19.498  0.00  0.00    +0.000 N 
ATOM      6  C   UNL     1       3.267   5.178  18.343  0.00  0.00    +0.000 C 
ATOM      7  C   UNL     1       2.940   3.716  18.628  0.00  0.00    +0.000 C 
ATOM      8  C   UNL     1       1.559   3.285  18.161  0.00  0.00    +0.000 C 
ATOM      9  N   UNL     1       1.148   2.234  19.103  0.00  0.00    +0.000 NA
ATOM     10  C   UNL     1       1.848   2.485  20.374  0.00  0.00    +0.000 C 
ATOM     11  C   UNL     1       2.831   3.620  20.140  0.00  0.00    +0.000 C 
ATOM     12  C   UNL     1       2.296   4.993  20.555  0.00  0.00    +0.000 C 
ATOM     13  N   UNL     1       2.445   7.828  18.196  0.00  0.00    +0.000 NA
ATOM     14  C   UNL     1       1.975   9.100  18.071  0.00  0.00    +0.000 A 
ATOM     15  H   UNL     1       1.444   1.329  18.738  0.00  0.00    +0.000 HD
ENDROOT
BRANCH   1  19
ATOM     16  C   UNL     1      -0.165  13.818  18.421  0.00  0.00    +0.000 A 
ATOM     17  C   UNL     1      -1.049  12.747  18.452  0.00  0.00    +0.000 A 
ATOM     18  C   UNL     1      -0.572  11.452  18.678  0.00  0.00    +0.000 A 
ATOM     19  C   UNL     1       0.801  11.193  18.862  0.00  0.00    +0.000 A 
ATOM     20  C   UNL     1       1.672  12.297  18.825  0.00  0.00    +0.000 A 
ATOM     21  C   UNL     1       1.196  13.596  18.612  0.00  0.00    +0.000 A 
ENDBRANCH   1  19
TORSDOF 1
ENDMDL
