MODEL 1
REMARK VINA RESULT:      -7.2      0.000      0.000
REMARK  Name = 
REMARK  13 active torsions:
REMARK  status: ('A' for Active; 'I' for Inactive)
REMARK    1  A    between atoms: C_1  and  C_2
REMARK    2  A    between atoms: C_2  and  C_3
REMARK    3  A    between atoms: C_3  and  C_4
REMARK    4  A    between atoms: C_3  and  N_5
REMARK    5  A    between atoms: N_5  and  S_6
REMARK    6  A    between atoms: S_6  and  C_9
REMARK    7  A    between atoms: C_12  and  O_13
REMARK    8  A    between atoms: O_13  and  C_14
REMARK    9  A    between atoms: C_14  and  C_15
REMARK   10  A    between atoms: N_17  and  C_18
REMARK   11  A    between atoms: C_18  and  C_19
REMARK   12  A    between atoms: C_22  and  O_23
REMARK   13  A    between atoms: O_23  and  C_24
REMARK                            x       y       z     vdW  Elec       q    Type
REMARK                         _______ _______ _______ _____ _____    ______ ____
ROOT
ATOM      1  C   UNL     1       5.559   4.700  17.408  0.00  0.00    +0.000 A 
ATOM      2  C   UNL     1       5.657   4.297  18.734  0.00  0.00    +0.000 A 
ATOM      3  C   UNL     1       4.592   3.622  19.326  0.00  0.00    +0.000 A 
ATOM      4  C   UNL     1       3.422   3.365  18.617  0.00  0.00    +0.000 A 
ATOM      5  C   UNL     1       3.309   3.821  17.291  0.00  0.00    +0.000 A 
ATOM      6  C   UNL     1       4.377   4.488  16.680  0.00  0.00    +0.000 A 
ENDROOT
BRANCH   1   7
ATOM      7  S   UNL     1       7.030   5.334  16.603  0.00  0.00    +0.000 S 
ATOM      8  O   UNL     1       8.035   4.287  16.602  0.00  0.00    +0.000 OA
ATOM      9  O   UNL     1       7.263   6.641  17.176  0.00  0.00    +0.000 OA
BRANCH   7  10
ATOM     10  N   UNL     1       6.489   5.544  15.000  0.00  0.00    +0.000 NA
ATOM     11  H   UNL     1       5.494   5.759  14.973  0.00  0.00    +0.000 HD
BRANCH  10  12
ATOM     12  C   UNL     1       6.906   4.546  13.972  0.00  0.00    +0.000 C 
ATOM     13  C   UNL     1       7.812   5.247  12.956  0.00  0.00    +0.000 C 
BRANCH  12  15
ATOM     14  C   UNL     1       6.023   3.032  12.107  0.00  0.00    +0.000 C 
ATOM     15  C   UNL     1       5.687   3.919  13.288  0.00  0.00    +0.000 C 
ENDBRANCH  12  15
ENDBRANCH  10  12
ENDBRANCH   7  10
ENDBRANCH   1   7
BRANCH   4  16
ATOM     16  O   UNL     1       2.351   2.667  19.134  0.00  0.00    +0.000 OA
BRANCH  16  17
ATOM     17  C   UNL     1       1.283   3.504  19.589  0.00  0.00    +0.000 C 
BRANCH  17  18
ATOM     18  C   UNL     1       1.681   4.522  20.643  0.00  0.00    +0.000 C 
ATOM     19  O   UNL     1       2.120   4.187  21.740  0.00  0.00    +0.000 OA
ATOM     20  N   UNL     1       1.610   5.824  20.211  0.00  0.00    +0.000 N 
ATOM     21  H   UNL     1       1.012   6.007  19.412  0.00  0.00    +0.000 HD
BRANCH  20  22
ATOM     22  C   UNL     1       1.936   6.907  21.101  0.00  0.00    +0.000 C 
BRANCH  22  23
ATOM     23  C   UNL     1       1.220   8.176  20.724  0.00  0.00    +0.000 A 
ATOM     24  C   UNL     1       1.361   8.706  19.437  0.00  0.00    +0.000 A 
ATOM     25  C   UNL     1       0.689   9.874  19.075  0.00  0.00    +0.000 A 
ATOM     26  C   UNL     1      -0.148  10.524  19.982  0.00  0.00    +0.000 A 
ATOM     27  C   UNL     1      -0.296  10.005  21.267  0.00  0.00    +0.000 A 
ATOM     28  C   UNL     1       0.379   8.835  21.634  0.00  0.00    +0.000 A 
BRANCH  26  29
ATOM     29  O   UNL     1      -0.732  11.671  19.517  0.00  0.00    +0.000 OA
ATOM     30  C   UNL     1      -1.315  11.584  18.222  0.00  0.00    +0.000 C 
ENDBRANCH  26  29
ENDBRANCH  22  23
ENDBRANCH  20  22
ENDBRANCH  17  18
ENDBRANCH  16  17
ENDBRANCH   4  16
TORSDOF 10
ENDMDL
MODEL 2
REMARK VINA RESULT:      -7.1      1.766      2.128
REMARK  Name = 
REMARK  13 active torsions:
REMARK  status: ('A' for Active; 'I' for Inactive)
REMARK    1  A    between atoms: C_1  and  C_2
REMARK    2  A    between atoms: C_2  and  C_3
REMARK    3  A    between atoms: C_3  and  C_4
REMARK    4  A    between atoms: C_3  and  N_5
REMARK    5  A    between atoms: N_5  and  S_6
REMARK    6  A    between atoms: S_6  and  C_9
REMARK    7  A    between atoms: C_12  and  O_13
REMARK    8  A    between atoms: O_13  and  C_14
REMARK    9  A    between atoms: C_14  and  C_15
REMARK   10  A    between atoms: N_17  and  C_18
REMARK   11  A    between atoms: C_18  and  C_19
REMARK   12  A    between atoms: C_22  and  O_23
REMARK   13  A    between atoms: O_23  and  C_24
REMARK                            x       y       z     vdW  Elec       q    Type
REMARK                         _______ _______ _______ _____ _____    ______ ____
ROOT
ATOM      1  C   UNL     1       5.298   4.584  16.664  0.00  0.00    +0.000 A 
ATOM      2  C   UNL     1       5.873   4.746  17.919  0.00  0.00    +0.000 A 
ATOM      3  C   UNL     1       5.423   3.971  18.984  0.00  0.00    +0.000 A 
ATOM      4  C   UNL     1       4.389   3.054  18.818  0.00  0.00    +0.000 A 
ATOM      5  C   UNL     1       3.775   2.933  17.558  0.00  0.00    +0.000 A 
ATOM      6  C   UNL     1       4.229   3.695  16.475  0.00  0.00    +0.000 A 
ENDROOT
BRANCH   1   7
ATOM      7  S   UNL     1       6.066   5.404  15.267  0.00  0.00    +0.000 S 
ATOM      8  O   UNL     1       7.505   5.273  15.397  0.00  0.00    +0.000 OA
ATOM      9  O   UNL     1       5.406   6.686  15.148  0.00  0.00    +0.000 OA
BRANCH   7  10
ATOM     10  N   UNL     1       5.564   4.424  13.966  0.00  0.00    +0.000 NA
ATOM     11  H   UNL     1       4.859   3.752  14.263  0.00  0.00    +0.000 HD
BRANCH  10  12
ATOM     12  C   UNL     1       6.606   3.833  13.077  0.00  0.00    +0.000 C 
ATOM     13  C   UNL     1       7.396   4.975  12.431  0.00  0.00    +0.000 C 
BRANCH  12  15
ATOM     14  C   UNL     1       4.526   3.238  11.711  0.00  0.00    +0.000 C 
ATOM     15  C   UNL     1       5.976   2.925  12.017  0.00  0.00    +0.000 C 
ENDBRANCH  12  15
ENDBRANCH  10  12
ENDBRANCH   7  10
ENDBRANCH   1   7
BRANCH   4  16
ATOM     16  O   UNL     1       3.926   2.231  19.823  0.00  0.00    +0.000 OA
BRANCH  16  17
ATOM     17  C   UNL     1       2.513   2.008  19.782  0.00  0.00    +0.000 C 
BRANCH  17  18
ATOM     18  C   UNL     1       1.672   3.199  20.204  0.00  0.00    +0.000 C 
ATOM     19  O   UNL     1       0.450   3.211  20.078  0.00  0.00    +0.000 OA
ATOM     20  N   UNL     1       2.387   4.190  20.832  0.00  0.00    +0.000 N 
ATOM     21  H   UNL     1       3.387   4.207  20.662  0.00  0.00    +0.000 HD
BRANCH  20  22
ATOM     22  C   UNL     1       1.733   5.393  21.274  0.00  0.00    +0.000 C 
BRANCH  22  23
ATOM     23  C   UNL     1       1.905   6.517  20.287  0.00  0.00    +0.000 A 
ATOM     24  C   UNL     1       2.605   6.305  19.095  0.00  0.00    +0.000 A 
ATOM     25  C   UNL     1       2.755   7.338  18.168  0.00  0.00    +0.000 A 
ATOM     26  C   UNL     1       2.195   8.593  18.405  0.00  0.00    +0.000 A 
ATOM     27  C   UNL     1       1.495   8.816  19.590  0.00  0.00    +0.000 A 
ATOM     28  C   UNL     1       1.345   7.782  20.522  0.00  0.00    +0.000 A 
BRANCH  26  29
ATOM     29  O   UNL     1       2.432   9.528  17.434  0.00  0.00    +0.000 OA
ATOM     30  C   UNL     1       2.209  10.881  17.815  0.00  0.00    +0.000 C 
ENDBRANCH  26  29
ENDBRANCH  22  23
ENDBRANCH  20  22
ENDBRANCH  17  18
ENDBRANCH  16  17
ENDBRANCH   4  16
TORSDOF 10
ENDMDL
MODEL 3
REMARK VINA RESULT:      -7.1      1.187      1.716
REMARK  Name = 
REMARK  13 active torsions:
REMARK  status: ('A' for Active; 'I' for Inactive)
REMARK    1  A    between atoms: C_1  and  C_2
REMARK    2  A    between atoms: C_2  and  C_3
REMARK    3  A    between atoms: C_3  and  C_4
REMARK    4  A    between atoms: C_3  and  N_5
REMARK    5  A    between atoms: N_5  and  S_6
REMARK    6  A    between atoms: S_6  and  C_9
REMARK    7  A    between atoms: C_12  and  O_13
REMARK    8  A    between atoms: O_13  and  C_14
REMARK    9  A    between atoms: C_14  and  C_15
REMARK   10  A    between atoms: N_17  and  C_18
REMARK   11  A    between atoms: C_18  and  C_19
REMARK   12  A    between atoms: C_22  and  O_23
REMARK   13  A    between atoms: O_23  and  C_24
REMARK                            x       y       z     vdW  Elec       q    Type
REMARK                         _______ _______ _______ _____ _____    ______ ____
ROOT
ATOM      1  C   UNL     1       5.389   5.062  17.681  0.00  0.00    +0.000 A 
ATOM      2  C   UNL     1       5.682   4.315  18.816  0.00  0.00    +0.000 A 
ATOM      3  C   UNL     1       4.763   3.375  19.274  0.00  0.00    +0.000 A 
ATOM      4  C   UNL     1       3.544   3.188  18.628  0.00  0.00    +0.000 A 
ATOM      5  C   UNL     1       3.231   3.984  17.511  0.00  0.00    +0.000 A 
ATOM      6  C   UNL     1       4.152   4.922  17.032  0.00  0.00    +0.000 A 
ENDROOT
BRANCH   1   7
ATOM      7  S   UNL     1       6.688   6.073  16.972  0.00  0.00    +0.000 S 
ATOM      8  O   UNL     1       7.695   6.302  17.991  0.00  0.00    +0.000 OA
ATOM      9  O   UNL     1       6.017   7.152  16.279  0.00  0.00    +0.000 OA
BRANCH   7  10
ATOM     10  N   UNL     1       7.352   5.022  15.805  0.00  0.00    +0.000 NA
ATOM     11  H   UNL     1       8.364   5.122  15.754  0.00  0.00    +0.000 HD
BRANCH  10  12
ATOM     12  C   UNL     1       6.699   4.945  14.466  0.00  0.00    +0.000 C 
ATOM     13  C   UNL     1       6.077   3.555  14.310  0.00  0.00    +0.000 C 
BRANCH  12  15
ATOM     14  C   UNL     1       7.364   4.580  12.021  0.00  0.00    +0.000 C 
ATOM     15  C   UNL     1       7.704   5.231  13.346  0.00  0.00    +0.000 C 
ENDBRANCH  12  15
ENDBRANCH  10  12
ENDBRANCH   7  10
ENDBRANCH   1   7
BRANCH   4  16
ATOM     16  O   UNL     1       2.612   2.247  19.009  0.00  0.00    +0.000 OA
BRANCH  16  17
ATOM     17  C   UNL     1       1.412   2.809  19.550  0.00  0.00    +0.000 C 
BRANCH  17  18
ATOM     18  C   UNL     1       1.634   3.866  20.618  0.00  0.00    +0.000 C 
ATOM     19  O   UNL     1       1.983   3.575  21.760  0.00  0.00    +0.000 OA
ATOM     20  N   UNL     1       1.517   5.154  20.157  0.00  0.00    +0.000 N 
ATOM     21  H   UNL     1       0.991   5.286  19.300  0.00  0.00    +0.000 HD
BRANCH  20  22
ATOM     22  C   UNL     1       1.680   6.268  21.054  0.00  0.00    +0.000 C 
BRANCH  22  23
ATOM     23  C   UNL     1       1.531   7.586  20.343  0.00  0.00    +0.000 A 
ATOM     24  C   UNL     1       0.868   8.649  20.965  0.00  0.00    +0.000 A 
ATOM     25  C   UNL     1       0.740   9.879  20.318  0.00  0.00    +0.000 A 
ATOM     26  C   UNL     1       1.285  10.076  19.049  0.00  0.00    +0.000 A 
ATOM     27  C   UNL     1       1.947   9.023  18.420  0.00  0.00    +0.000 A 
ATOM     28  C   UNL     1       2.075   7.787  19.065  0.00  0.00    +0.000 A 
BRANCH  26  29
ATOM     29  O   UNL     1       1.072  11.316  18.511  0.00  0.00    +0.000 OA
ATOM     30  C   UNL     1       2.238  12.104  18.300  0.00  0.00    +0.000 C 
ENDBRANCH  26  29
ENDBRANCH  22  23
ENDBRANCH  20  22
ENDBRANCH  17  18
ENDBRANCH  16  17
ENDBRANCH   4  16
TORSDOF 10
ENDMDL
MODEL 4
REMARK VINA RESULT:      -7.1      2.012      2.848
REMARK  Name = 
REMARK  13 active torsions:
REMARK  status: ('A' for Active; 'I' for Inactive)
REMARK    1  A    between atoms: C_1  and  C_2
REMARK    2  A    between atoms: C_2  and  C_3
REMARK    3  A    between atoms: C_3  and  C_4
REMARK    4  A    between atoms: C_3  and  N_5
REMARK    5  A    between atoms: N_5  and  S_6
REMARK    6  A    between atoms: S_6  and  C_9
REMARK    7  A    between atoms: C_12  and  O_13
REMARK    8  A    between atoms: O_13  and  C_14
REMARK    9  A    between atoms: C_14  and  C_15
REMARK   10  A    between atoms: N_17  and  C_18
REMARK   11  A    between atoms: C_18  and  C_19
REMARK   12  A    between atoms: C_22  and  O_23
REMARK   13  A    between atoms: O_23  and  C_24
REMARK                            x       y       z     vdW  Elec       q    Type
REMARK                         _______ _______ _______ _____ _____    ______ ____
ROOT
ATOM      1  C   UNL     1       5.562   6.081  17.542  0.00  0.00    +0.000 A 
ATOM      2  C   UNL     1       5.256   5.187  18.561  0.00  0.00    +0.000 A 
ATOM      3  C   UNL     1       4.022   5.271  19.199  0.00  0.00    +0.000 A 
ATOM      4  C   UNL     1       3.098   6.251  18.849  0.00  0.00    +0.000 A 
ATOM      5  C   UNL     1       3.434   7.186  17.852  0.00  0.00    +0.000 A 
ATOM      6  C   UNL     1       4.666   7.104  17.193  0.00  0.00    +0.000 A 
ENDROOT
BRANCH   1   7
ATOM      7  S   UNL     1       7.043   5.789  16.573  0.00  0.00    +0.000 S 
ATOM      8  O   UNL     1       7.571   4.486  16.931  0.00  0.00    +0.000 OA
ATOM      9  O   UNL     1       7.824   7.003  16.668  0.00  0.00    +0.000 OA
BRANCH   7  10
ATOM     10  N   UNL     1       6.412   5.684  14.992  0.00  0.00    +0.000 NA
ATOM     11  H   UNL     1       5.400   5.803  14.992  0.00  0.00    +0.000 HD
BRANCH  10  12
ATOM     12  C   UNL     1       6.876   4.572  14.114  0.00  0.00    +0.000 C 
ATOM     13  C   UNL     1       7.740   5.164  12.997  0.00  0.00    +0.000 C 
BRANCH  12  15
ATOM     14  C   UNL     1       5.923   3.229  12.154  0.00  0.00    +0.000 C 
ATOM     15  C   UNL     1       5.689   3.791  13.542  0.00  0.00    +0.000 C 
ENDBRANCH  12  15
ENDBRANCH  10  12
ENDBRANCH   7  10
ENDBRANCH   1   7
BRANCH   4  16
ATOM     16  O   UNL     1       1.845   6.360  19.414  0.00  0.00    +0.000 OA
BRANCH  16  17
ATOM     17  C   UNL     1       1.868   6.718  20.800  0.00  0.00    +0.000 C 
BRANCH  17  18
ATOM     18  C   UNL     1       1.463   8.152  21.091  0.00  0.00    +0.000 C 
ATOM     19  O   UNL     1       1.443   8.605  22.233  0.00  0.00    +0.000 OA
ATOM     20  N   UNL     1       1.238   8.905  19.964  0.00  0.00    +0.000 N 
ATOM     21  H   UNL     1       1.031   8.397  19.110  0.00  0.00    +0.000 HD
BRANCH  20  22
ATOM     22  C   UNL     1       0.827  10.280  20.076  0.00  0.00    +0.000 C 
BRANCH  22  23
ATOM     23  C   UNL     1      -0.280  10.612  19.112  0.00  0.00    +0.000 A 
ATOM     24  C   UNL     1      -1.182   9.622  18.709  0.00  0.00    +0.000 A 
ATOM     25  C   UNL     1      -2.220   9.926  17.827  0.00  0.00    +0.000 A 
ATOM     26  C   UNL     1      -2.388  11.225  17.347  0.00  0.00    +0.000 A 
ATOM     27  C   UNL     1      -1.495  12.220  17.741  0.00  0.00    +0.000 A 
ATOM     28  C   UNL     1      -0.451  11.917  18.624  0.00  0.00    +0.000 A 
BRANCH  26  29
ATOM     29  O   UNL     1      -3.426  11.391  16.471  0.00  0.00    +0.000 OA
ATOM     30  C   UNL     1      -3.232  10.839  15.173  0.00  0.00    +0.000 C 
ENDBRANCH  26  29
ENDBRANCH  22  23
ENDBRANCH  20  22
ENDBRANCH  17  18
ENDBRANCH  16  17
ENDBRANCH   4  16
TORSDOF 10
ENDMDL
MODEL 5
REMARK VINA RESULT:      -7.0      5.849      8.362
REMARK  Name = 
REMARK  13 active torsions:
REMARK  status: ('A' for Active; 'I' for Inactive)
REMARK    1  A    between atoms: C_1  and  C_2
REMARK    2  A    between atoms: C_2  and  C_3
REMARK    3  A    between atoms: C_3  and  C_4
REMARK    4  A    between atoms: C_3  and  N_5
REMARK    5  A    between atoms: N_5  and  S_6
REMARK    6  A    between atoms: S_6  and  C_9
REMARK    7  A    between atoms: C_12  and  O_13
REMARK    8  A    between atoms: O_13  and  C_14
REMARK    9  A    between atoms: C_14  and  C_15
REMARK   10  A    between atoms: N_17  and  C_18
REMARK   11  A    between atoms: C_18  and  C_19
REMARK   12  A    between atoms: C_22  and  O_23
REMARK   13  A    between atoms: O_23  and  C_24
REMARK                            x       y       z     vdW  Elec       q    Type
REMARK                         _______ _______ _______ _____ _____    ______ ____
ROOT
ATOM      1  C   UNL     1       3.511   4.956  17.601  0.00  0.00    +0.000 A 
ATOM      2  C   UNL     1       4.457   4.006  17.233  0.00  0.00    +0.000 A 
ATOM      3  C   UNL     1       5.748   4.414  16.910  0.00  0.00    +0.000 A 
ATOM      4  C   UNL     1       6.101   5.761  16.925  0.00  0.00    +0.000 A 
ATOM      5  C   UNL     1       5.125   6.721  17.247  0.00  0.00    +0.000 A 
ATOM      6  C   UNL     1       3.827   6.324  17.589  0.00  0.00    +0.000 A 
ENDROOT
BRANCH   1   7
ATOM      7  S   UNL     1       1.943   4.383  18.255  0.00  0.00    +0.000 S 
ATOM      8  O   UNL     1       1.121   3.941  17.144  0.00  0.00    +0.000 OA
ATOM      9  O   UNL     1       1.511   5.398  19.192  0.00  0.00    +0.000 OA
BRANCH   7  10
ATOM     10  N   UNL     1       2.415   3.006  19.141  0.00  0.00    +0.000 NA
ATOM     11  H   UNL     1       1.614   2.414  19.354  0.00  0.00    +0.000 HD
BRANCH  10  12
ATOM     12  C   UNL     1       3.338   3.188  20.299  0.00  0.00    +0.000 C 
ATOM     13  C   UNL     1       4.361   2.049  20.286  0.00  0.00    +0.000 C 
BRANCH  12  15
ATOM     14  C   UNL     1       1.238   2.492  21.586  0.00  0.00    +0.000 C 
ATOM     15  C   UNL     1       2.564   3.224  21.620  0.00  0.00    +0.000 C 
ENDBRANCH  12  15
ENDBRANCH  10  12
ENDBRANCH   7  10
ENDBRANCH   1   7
BRANCH   4  16
ATOM     16  O   UNL     1       7.371   6.223  16.654  0.00  0.00    +0.000 OA
BRANCH  16  17
ATOM     17  C   UNL     1       7.494   7.647  16.724  0.00  0.00    +0.000 C 
BRANCH  17  18
ATOM     18  C   UNL     1       8.177   8.164  17.977  0.00  0.00    +0.000 C 
ATOM     19  O   UNL     1       8.569   7.409  18.864  0.00  0.00    +0.000 OA
ATOM     20  N   UNL     1       8.410   9.517  17.965  0.00  0.00    +0.000 N 
ATOM     21  H   UNL     1       7.840  10.072  17.334  0.00  0.00    +0.000 HD
BRANCH  20  22
ATOM     22  C   UNL     1       9.033  10.161  19.092  0.00  0.00    +0.000 C 
BRANCH  22  23
ATOM     23  C   UNL     1       9.776  11.405  18.684  0.00  0.00    +0.000 A 
ATOM     24  C   UNL     1      11.143  11.342  18.392  0.00  0.00    +0.000 A 
ATOM     25  C   UNL     1      11.836  12.488  17.999  0.00  0.00    +0.000 A 
ATOM     26  C   UNL     1      11.176  13.710  17.873  0.00  0.00    +0.000 A 
ATOM     27  C   UNL     1       9.815  13.785  18.162  0.00  0.00    +0.000 A 
ATOM     28  C   UNL     1       9.117  12.637  18.559  0.00  0.00    +0.000 A 
BRANCH  26  29
ATOM     29  O   UNL     1      11.968  14.764  17.505  0.00  0.00    +0.000 OA
ATOM     30  C   UNL     1      12.281  15.691  18.539  0.00  0.00    +0.000 C 
ENDBRANCH  26  29
ENDBRANCH  22  23
ENDBRANCH  20  22
ENDBRANCH  17  18
ENDBRANCH  16  17
ENDBRANCH   4  16
TORSDOF 10
ENDMDL
MODEL 6
REMARK VINA RESULT:      -7.0      1.767      2.291
REMARK  Name = 
REMARK  13 active torsions:
REMARK  status: ('A' for Active; 'I' for Inactive)
REMARK    1  A    between atoms: C_1  and  C_2
REMARK    2  A    between atoms: C_2  and  C_3
REMARK    3  A    between atoms: C_3  and  C_4
REMARK    4  A    between atoms: C_3  and  N_5
REMARK    5  A    between atoms: N_5  and  S_6
REMARK    6  A    between atoms: S_6  and  C_9
REMARK    7  A    between atoms: C_12  and  O_13
REMARK    8  A    between atoms: O_13  and  C_14
REMARK    9  A    between atoms: C_14  and  C_15
REMARK   10  A    between atoms: N_17  and  C_18
REMARK   11  A    between atoms: C_18  and  C_19
REMARK   12  A    between atoms: C_22  and  O_23
REMARK   13  A    between atoms: O_23  and  C_24
REMARK                            x       y       z     vdW  Elec       q    Type
REMARK                         _______ _______ _______ _____ _____    ______ ____
ROOT
ATOM      1  C   UNL     1       6.157   4.391  16.149  0.00  0.00    +0.000 A 
ATOM      2  C   UNL     1       4.921   3.803  16.388  0.00  0.00    +0.000 A 
ATOM      3  C   UNL     1       4.511   3.574  17.698  0.00  0.00    +0.000 A 
ATOM      4  C   UNL     1       5.331   3.902  18.774  0.00  0.00    +0.000 A 
ATOM      5  C   UNL     1       6.603   4.449  18.525  0.00  0.00    +0.000 A 
ATOM      6  C   UNL     1       7.021   4.698  17.213  0.00  0.00    +0.000 A 
ENDROOT
BRANCH   1   7
ATOM      7  S   UNL     1       6.545   4.905  14.476  0.00  0.00    +0.000 S 
ATOM      8  O   UNL     1       7.946   5.277  14.427  0.00  0.00    +0.000 OA
ATOM      9  O   UNL     1       5.483   5.805  14.083  0.00  0.00    +0.000 OA
BRANCH   7  10
ATOM     10  N   UNL     1       6.357   3.449  13.610  0.00  0.00    +0.000 NA
ATOM     11  H   UNL     1       7.034   2.751  13.913  0.00  0.00    +0.000 HD
BRANCH  10  12
ATOM     12  C   UNL     1       6.203   3.518  12.128  0.00  0.00    +0.000 C 
ATOM     13  C   UNL     1       4.734   3.261  11.780  0.00  0.00    +0.000 C 
BRANCH  12  15
ATOM     14  C   UNL     1       6.460   1.189  11.099  0.00  0.00    +0.000 C 
ATOM     15  C   UNL     1       7.122   2.510  11.431  0.00  0.00    +0.000 C 
ENDBRANCH  12  15
ENDBRANCH  10  12
ENDBRANCH   7  10
ENDBRANCH   1   7
BRANCH   4  16
ATOM     16  O   UNL     1       4.966   3.737  20.093  0.00  0.00    +0.000 OA
BRANCH  16  17
ATOM     17  C   UNL     1       3.717   3.061  20.266  0.00  0.00    +0.000 C 
BRANCH  17  18
ATOM     18  C   UNL     1       2.643   3.882  20.958  0.00  0.00    +0.000 C 
ATOM     19  O   UNL     1       1.982   3.436  21.893  0.00  0.00    +0.000 OA
ATOM     20  N   UNL     1       2.567   5.181  20.517  0.00  0.00    +0.000 N 
ATOM     21  H   UNL     1       2.956   5.375  19.600  0.00  0.00    +0.000 HD
BRANCH  20  22
ATOM     22  C   UNL     1       1.584   6.080  21.063  0.00  0.00    +0.000 C 
BRANCH  22  23
ATOM     23  C   UNL     1       1.566   7.398  20.336  0.00  0.00    +0.000 A 
ATOM     24  C   UNL     1       2.135   7.504  19.062  0.00  0.00    +0.000 A 
ATOM     25  C   UNL     1       2.109   8.719  18.375  0.00  0.00    +0.000 A 
ATOM     26  C   UNL     1       1.501   9.842  18.937  0.00  0.00    +0.000 A 
ATOM     27  C   UNL     1       0.931   9.746  20.206  0.00  0.00    +0.000 A 
ATOM     28  C   UNL     1       0.958   8.530  20.898  0.00  0.00    +0.000 A 
BRANCH  26  29
ATOM     29  O   UNL     1       1.562  10.978  18.177  0.00  0.00    +0.000 OA
ATOM     30  C   UNL     1       1.276  12.193  18.862  0.00  0.00    +0.000 C 
ENDBRANCH  26  29
ENDBRANCH  22  23
ENDBRANCH  20  22
ENDBRANCH  17  18
ENDBRANCH  16  17
ENDBRANCH   4  16
TORSDOF 10
ENDMDL
MODEL 7
REMARK VINA RESULT:      -6.9      6.684      9.234
REMARK  Name = 
REMARK  13 active torsions:
REMARK  status: ('A' for Active; 'I' for Inactive)
REMARK    1  A    between atoms: C_1  and  C_2
REMARK    2  A    between atoms: C_2  and  C_3
REMARK    3  A    between atoms: C_3  and  C_4
REMARK    4  A    between atoms: C_3  and  N_5
REMARK    5  A    between atoms: N_5  and  S_6
REMARK    6  A    between atoms: S_6  and  C_9
REMARK    7  A    between atoms: C_12  and  O_13
REMARK    8  A    between atoms: O_13  and  C_14
REMARK    9  A    between atoms: C_14  and  C_15
REMARK   10  A    between atoms: N_17  and  C_18
REMARK   11  A    between atoms: C_18  and  C_19
REMARK   12  A    between atoms: C_22  and  O_23
REMARK   13  A    between atoms: O_23  and  C_24
REMARK                            x       y       z     vdW  Elec       q    Type
REMARK                         _______ _______ _______ _____ _____    ______ ____
ROOT
ATOM      1  C   UNL     1       9.904  13.120  19.594  0.00  0.00    +0.000 A 
ATOM      2  C   UNL     1       9.867  12.603  18.305  0.00  0.00    +0.000 A 
ATOM      3  C   UNL     1       9.543  11.262  18.112  0.00  0.00    +0.000 A 
ATOM      4  C   UNL     1       9.277  10.426  19.193  0.00  0.00    +0.000 A 
ATOM      5  C   UNL     1       9.366  10.942  20.498  0.00  0.00    +0.000 A 
ATOM      6  C   UNL     1       9.677  12.291  20.705  0.00  0.00    +0.000 A 
ENDROOT
BRANCH   1   7
ATOM      7  S   UNL     1      10.071  14.894  19.793  0.00  0.00    +0.000 S 
ATOM      8  O   UNL     1      10.651  15.435  18.578  0.00  0.00    +0.000 OA
ATOM      9  O   UNL     1      10.663  15.092  21.098  0.00  0.00    +0.000 OA
BRANCH   7  10
ATOM     10  N   UNL     1       8.443  15.393  19.866  0.00  0.00    +0.000 NA
ATOM     11  H   UNL     1       7.856  14.674  20.284  0.00  0.00    +0.000 HD
BRANCH  10  12
ATOM     12  C   UNL     1       7.836  16.019  18.655  0.00  0.00    +0.000 C 
ATOM     13  C   UNL     1       8.059  17.532  18.728  0.00  0.00    +0.000 C 
BRANCH  12  15
ATOM     14  C   UNL     1       6.044  14.427  17.758  0.00  0.00    +0.000 C 
ATOM     15  C   UNL     1       6.346  15.683  18.550  0.00  0.00    +0.000 C 
ENDBRANCH  12  15
ENDBRANCH  10  12
ENDBRANCH   7  10
ENDBRANCH   1   7
BRANCH   4  16
ATOM     16  O   UNL     1       8.911   9.103  19.065  0.00  0.00    +0.000 OA
BRANCH  16  17
ATOM     17  C   UNL     1       8.056   8.847  17.947  0.00  0.00    +0.000 C 
BRANCH  17  18
ATOM     18  C   UNL     1       7.646   7.394  17.782  0.00  0.00    +0.000 C 
ATOM     19  O   UNL     1       7.969   6.529  18.593  0.00  0.00    +0.000 OA
ATOM     20  N   UNL     1       6.802   7.172  16.721  0.00  0.00    +0.000 N 
ATOM     21  H   UNL     1       6.802   7.870  15.985  0.00  0.00    +0.000 HD
BRANCH  20  22
ATOM     22  C   UNL     1       6.341   5.841  16.422  0.00  0.00    +0.000 C 
BRANCH  22  23
ATOM     23  C   UNL     1       5.056   5.521  17.138  0.00  0.00    +0.000 A 
ATOM     24  C   UNL     1       4.828   4.229  17.626  0.00  0.00    +0.000 A 
ATOM     25  C   UNL     1       3.646   3.928  18.304  0.00  0.00    +0.000 A 
ATOM     26  C   UNL     1       2.681   4.911  18.523  0.00  0.00    +0.000 A 
ATOM     27  C   UNL     1       2.898   6.201  18.041  0.00  0.00    +0.000 A 
ATOM     28  C   UNL     1       4.082   6.506  17.358  0.00  0.00    +0.000 A 
BRANCH  26  29
ATOM     29  O   UNL     1       1.556   4.487  19.178  0.00  0.00    +0.000 OA
ATOM     30  C   UNL     1       1.668   4.386  20.593  0.00  0.00    +0.000 C 
ENDBRANCH  26  29
ENDBRANCH  22  23
ENDBRANCH  20  22
ENDBRANCH  17  18
ENDBRANCH  16  17
ENDBRANCH   4  16
TORSDOF 10
ENDMDL
MODEL 8
REMARK VINA RESULT:      -6.8      3.303      9.083
REMARK  Name = 
REMARK  13 active torsions:
REMARK  status: ('A' for Active; 'I' for Inactive)
REMARK    1  A    between atoms: C_1  and  C_2
REMARK    2  A    between atoms: C_2  and  C_3
REMARK    3  A    between atoms: C_3  and  C_4
REMARK    4  A    between atoms: C_3  and  N_5
REMARK    5  A    between atoms: N_5  and  S_6
REMARK    6  A    between atoms: S_6  and  C_9
REMARK    7  A    between atoms: C_12  and  O_13
REMARK    8  A    between atoms: O_13  and  C_14
REMARK    9  A    between atoms: C_14  and  C_15
REMARK   10  A    between atoms: N_17  and  C_18
REMARK   11  A    between atoms: C_18  and  C_19
REMARK   12  A    between atoms: C_22  and  O_23
REMARK   13  A    between atoms: O_23  and  C_24
REMARK                            x       y       z     vdW  Elec       q    Type
REMARK                         _______ _______ _______ _____ _____    ______ ____
ROOT
ATOM      1  C   UNL     1      -0.505  10.855  19.027  0.00  0.00    +0.000 A 
ATOM      2  C   UNL     1       0.369  10.301  18.098  0.00  0.00    +0.000 A 
ATOM      3  C   UNL     1       1.243   9.293  18.496  0.00  0.00    +0.000 A 
ATOM      4  C   UNL     1       1.273   8.847  19.814  0.00  0.00    +0.000 A 
ATOM      5  C   UNL     1       0.423   9.448  20.761  0.00  0.00    +0.000 A 
ATOM      6  C   UNL     1      -0.471  10.452  20.371  0.00  0.00    +0.000 A 
ENDROOT
BRANCH   1   7
ATOM      7  S   UNL     1      -1.786  11.961  18.433  0.00  0.00    +0.000 S 
ATOM      8  O   UNL     1      -2.739  12.170  19.506  0.00  0.00    +0.000 OA
ATOM      9  O   UNL     1      -2.171  11.458  17.132  0.00  0.00    +0.000 OA
BRANCH   7  10
ATOM     10  N   UNL     1      -0.919  13.411  18.208  0.00  0.00    +0.000 NA
ATOM     11  H   UNL     1      -0.639  13.525  17.236  0.00  0.00    +0.000 HD
BRANCH  10  12
ATOM     12  C   UNL     1       0.163  13.750  19.178  0.00  0.00    +0.000 C 
ATOM     13  C   UNL     1      -0.220  15.046  19.897  0.00  0.00    +0.000 C 
BRANCH  12  15
ATOM     14  C   UNL     1       2.095  15.287  18.502  0.00  0.00    +0.000 C 
ATOM     15  C   UNL     1       1.513  13.889  18.469  0.00  0.00    +0.000 C 
ENDBRANCH  12  15
ENDBRANCH  10  12
ENDBRANCH   7  10
ENDBRANCH   1   7
BRANCH   4  16
ATOM     16  O   UNL     1       2.086   7.827  20.259  0.00  0.00    +0.000 OA
BRANCH  16  17
ATOM     17  C   UNL     1       1.372   6.740  20.857  0.00  0.00    +0.000 C 
BRANCH  17  18
ATOM     18  C   UNL     1       1.906   5.362  20.507  0.00  0.00    +0.000 C 
ATOM     19  O   UNL     1       1.187   4.367  20.501  0.00  0.00    +0.000 OA
ATOM     20  N   UNL     1       3.218   5.363  20.098  0.00  0.00    +0.000 N 
ATOM     21  H   UNL     1       3.782   6.159  20.375  0.00  0.00    +0.000 HD
BRANCH  20  22
ATOM     22  C   UNL     1       3.873   4.130  19.750  0.00  0.00    +0.000 C 
BRANCH  22  23
ATOM     23  C   UNL     1       4.894   4.326  18.662  0.00  0.00    +0.000 A 
ATOM     24  C   UNL     1       4.625   3.892  17.360  0.00  0.00    +0.000 A 
ATOM     25  C   UNL     1       5.561   4.085  16.342  0.00  0.00    +0.000 A 
ATOM     26  C   UNL     1       6.771   4.729  16.600  0.00  0.00    +0.000 A 
ATOM     27  C   UNL     1       7.049   5.166  17.894  0.00  0.00    +0.000 A 
ATOM     28  C   UNL     1       6.114   4.971  18.918  0.00  0.00    +0.000 A 
BRANCH  26  29
ATOM     29  O   UNL     1       7.613   4.836  15.527  0.00  0.00    +0.000 OA
ATOM     30  C   UNL     1       7.002   4.706  14.248  0.00  0.00    +0.000 C 
ENDBRANCH  26  29
ENDBRANCH  22  23
ENDBRANCH  20  22
ENDBRANCH  17  18
ENDBRANCH  16  17
ENDBRANCH   4  16
TORSDOF 10
ENDMDL
MODEL 9
REMARK VINA RESULT:      -6.8      6.017      7.999
REMARK  Name = 
REMARK  13 active torsions:
REMARK  status: ('A' for Active; 'I' for Inactive)
REMARK    1  A    between atoms: C_1  and  C_2
REMARK    2  A    between atoms: C_2  and  C_3
REMARK    3  A    between atoms: C_3  and  C_4
REMARK    4  A    between atoms: C_3  and  N_5
REMARK    5  A    between atoms: N_5  and  S_6
REMARK    6  A    between atoms: S_6  and  C_9
REMARK    7  A    between atoms: C_12  and  O_13
REMARK    8  A    between atoms: O_13  and  C_14
REMARK    9  A    between atoms: C_14  and  C_15
REMARK   10  A    between atoms: N_17  and  C_18
REMARK   11  A    between atoms: C_18  and  C_19
REMARK   12  A    between atoms: C_22  and  O_23
REMARK   13  A    between atoms: O_23  and  C_24
REMARK                            x       y       z     vdW  Elec       q    Type
REMARK                         _______ _______ _______ _____ _____    ______ ____
ROOT
ATOM      1  C   UNL     1       5.665   5.276  18.476  0.00  0.00    +0.000 A 
ATOM      2  C   UNL     1       5.221   6.228  17.567  0.00  0.00    +0.000 A 
ATOM      3  C   UNL     1       6.047   7.300  17.237  0.00  0.00    +0.000 A 
ATOM      4  C   UNL     1       7.302   7.445  17.822  0.00  0.00    +0.000 A 
ATOM      5  C   UNL     1       7.724   6.506  18.781  0.00  0.00    +0.000 A 
ATOM      6  C   UNL     1       6.910   5.416  19.110  0.00  0.00    +0.000 A 
ENDROOT
BRANCH   1   7
ATOM      7  S   UNL     1       4.693   3.783  18.685  0.00  0.00    +0.000 S 
ATOM      8  O   UNL     1       5.275   3.009  19.765  0.00  0.00    +0.000 OA
ATOM      9  O   UNL     1       4.500   3.248  17.355  0.00  0.00    +0.000 OA
BRANCH   7  10
ATOM     10  N   UNL     1       3.204   4.409  19.229  0.00  0.00    +0.000 NA
ATOM     11  H   UNL     1       3.269   4.727  20.194  0.00  0.00    +0.000 HD
BRANCH  10  12
ATOM     12  C   UNL     1       1.962   3.632  18.947  0.00  0.00    +0.000 C 
ATOM     13  C   UNL     1       1.309   4.204  17.685  0.00  0.00    +0.000 C 
BRANCH  12  15
ATOM     14  C   UNL     1       1.392   2.779  21.292  0.00  0.00    +0.000 C 
ATOM     15  C   UNL     1       1.000   3.680  20.138  0.00  0.00    +0.000 C 
ENDBRANCH  12  15
ENDBRANCH  10  12
ENDBRANCH   7  10
ENDBRANCH   1   7
BRANCH   4  16
ATOM     16  O   UNL     1       8.180   8.460  17.508  0.00  0.00    +0.000 OA
BRANCH  16  17
ATOM     17  C   UNL     1       8.966   8.907  18.617  0.00  0.00    +0.000 C 
BRANCH  17  18
ATOM     18  C   UNL     1       9.074  10.415  18.750  0.00  0.00    +0.000 C 
ATOM     19  O   UNL     1       8.992  11.163  17.778  0.00  0.00    +0.000 OA
ATOM     20  N   UNL     1       9.157  10.854  20.049  0.00  0.00    +0.000 N 
ATOM     21  H   UNL     1       9.469  10.179  20.739  0.00  0.00    +0.000 HD
BRANCH  20  22
ATOM     22  C   UNL     1       9.285  12.258  20.338  0.00  0.00    +0.000 C 
BRANCH  22  23
ATOM     23  C   UNL     1       8.923  12.571  21.765  0.00  0.00    +0.000 A 
ATOM     24  C   UNL     1       8.488  11.551  22.619  0.00  0.00    +0.000 A 
ATOM     25  C   UNL     1       8.165  11.830  23.948  0.00  0.00    +0.000 A 
ATOM     26  C   UNL     1       8.287  13.125  24.453  0.00  0.00    +0.000 A 
ATOM     27  C   UNL     1       8.719  14.148  23.611  0.00  0.00    +0.000 A 
ATOM     28  C   UNL     1       9.041  13.872  22.277  0.00  0.00    +0.000 A 
BRANCH  26  29
ATOM     29  O   UNL     1       7.917  13.276  25.762  0.00  0.00    +0.000 OA
ATOM     30  C   UNL     1       7.200  12.185  26.329  0.00  0.00    +0.000 C 
ENDBRANCH  26  29
ENDBRANCH  22  23
ENDBRANCH  20  22
ENDBRANCH  17  18
ENDBRANCH  16  17
ENDBRANCH   4  16
TORSDOF 10
ENDMDL
