MODEL 1
REMARK VINA RESULT:      -8.3      0.000      0.000
REMARK  Name = 
REMARK  7 active torsions:
REMARK  status: ('A' for Active; 'I' for Inactive)
REMARK    1  A    between atoms: C_1  and  C_2
REMARK    2  A    between atoms: C_5  and  C_6
REMARK    3  A    between atoms: C_6  and  C_19
REMARK    4  A    between atoms: C_7  and  C_8
REMARK    5  A    between atoms: N_10  and  C_11
REMARK    6  A    between atoms: C_11  and  C_12
REMARK    7  A    between atoms: C_12  and  C_13
REMARK                            x       y       z     vdW  Elec       q    Type
REMARK                         _______ _______ _______ _____ _____    ______ ____
ROOT
ATOM      1  C   UNL     1       3.722   6.181  18.150  0.00  0.00    +0.000 C 
ATOM      2  C   UNL     1       4.896   6.574  17.606  0.00  0.00    +0.000 C 
ENDROOT
BRANCH   1   7
ATOM      3  C   UNL     1       0.195  10.459  19.901  0.00  0.00    +0.000 C 
ATOM      4  C   UNL     1       1.063   9.321  19.442  0.00  0.00    +0.000 A 
ATOM      5  C   UNL     1       1.363   8.250  20.289  0.00  0.00    +0.000 A 
ATOM      6  C   UNL     1       2.199   7.211  19.857  0.00  0.00    +0.000 A 
ATOM      7  C   UNL     1       2.758   7.229  18.572  0.00  0.00    +0.000 A 
ATOM      8  C   UNL     1       2.450   8.301  17.720  0.00  0.00    +0.000 A 
ATOM      9  C   UNL     1       1.612   9.335  18.152  0.00  0.00    +0.000 A 
ENDBRANCH   1   7
BRANCH   1  10
ATOM     10  C   UNL     1       3.432   4.744  18.349  0.00  0.00    +0.000 A 
ATOM     11  C   UNL     1       3.899   4.090  19.491  0.00  0.00    +0.000 A 
ATOM     12  C   UNL     1       3.614   2.743  19.639  0.00  0.00    +0.000 A 
ATOM     13  N   UNL     1       2.907   2.021  18.746  0.00  0.00    +0.000 NA
ATOM     14  C   UNL     1       2.471   2.676  17.648  0.00  0.00    +0.000 A 
ATOM     15  C   UNL     1       2.696   4.022  17.409  0.00  0.00    +0.000 A 
ENDBRANCH   1  10
BRANCH   2  16
ATOM     16  C   UNL     1       5.888   5.637  17.008  0.00  0.00    +0.000 C 
ATOM     17  O   UNL     1       6.745   5.085  17.686  0.00  0.00    +0.000 OA
ATOM     18  N   UNL     1       5.718   5.413  15.661  0.00  0.00    +0.000 N 
ATOM     19  H   UNL     1       5.053   5.962  15.132  0.00  0.00    +0.000 HD
BRANCH  18  20
ATOM     20  C   UNL     1       6.629   4.521  14.959  0.00  0.00    +0.000 C 
BRANCH  20  21
ATOM     21  C   UNL     1       6.752   4.776  13.449  0.00  0.00    +0.000 C 
BRANCH  21  22
ATOM     22  C   UNL     1       6.441   3.621  12.524  0.00  0.00    +0.000 A 
ATOM     23  C   UNL     1       5.131   3.259  12.183  0.00  0.00    +0.000 A 
ATOM     24  C   UNL     1       4.888   2.186  11.320  0.00  0.00    +0.000 A 
ATOM     25  C   UNL     1       5.951   1.474  10.768  0.00  0.00    +0.000 A 
ATOM     26  C   UNL     1       7.259   1.854  11.056  0.00  0.00    +0.000 A 
ATOM     27  C   UNL     1       7.502   2.925  11.918  0.00  0.00    +0.000 A 
ENDBRANCH  21  22
ENDBRANCH  20  21
ENDBRANCH  18  20
ENDBRANCH   2  16
TORSDOF 6
ENDMDL
MODEL 2
REMARK VINA RESULT:      -8.3      1.616      2.129
REMARK  Name = 
REMARK  7 active torsions:
REMARK  status: ('A' for Active; 'I' for Inactive)
REMARK    1  A    between atoms: C_1  and  C_2
REMARK    2  A    between atoms: C_5  and  C_6
REMARK    3  A    between atoms: C_6  and  C_19
REMARK    4  A    between atoms: C_7  and  C_8
REMARK    5  A    between atoms: N_10  and  C_11
REMARK    6  A    between atoms: C_11  and  C_12
REMARK    7  A    between atoms: C_12  and  C_13
REMARK                            x       y       z     vdW  Elec       q    Type
REMARK                         _______ _______ _______ _____ _____    ______ ____
ROOT
ATOM      1  C   UNL     1       2.620   6.440  19.475  0.00  0.00    +0.000 C 
ATOM      2  C   UNL     1       3.836   6.605  18.909  0.00  0.00    +0.000 C 
ENDROOT
BRANCH   1   7
ATOM      3  C   UNL     1      -0.293  11.330  20.660  0.00  0.00    +0.000 C 
ATOM      4  C   UNL     1       0.412  10.040  20.351  0.00  0.00    +0.000 A 
ATOM      5  C   UNL     1       0.567   9.047  21.323  0.00  0.00    +0.000 A 
ATOM      6  C   UNL     1       1.255   7.861  21.028  0.00  0.00    +0.000 A 
ATOM      7  C   UNL     1       1.807   7.651  19.757  0.00  0.00    +0.000 A 
ATOM      8  C   UNL     1       1.643   8.645  18.780  0.00  0.00    +0.000 A 
ATOM      9  C   UNL     1       0.954   9.826  19.076  0.00  0.00    +0.000 A 
ENDBRANCH   1   7
BRANCH   1  10
ATOM     10  C   UNL     1       2.137   5.089  19.836  0.00  0.00    +0.000 A 
ATOM     11  C   UNL     1       2.342   4.595  21.125  0.00  0.00    +0.000 A 
ATOM     12  C   UNL     1       1.883   3.323  21.424  0.00  0.00    +0.000 A 
ATOM     13  N   UNL     1       1.244   2.529  20.541  0.00  0.00    +0.000 NA
ATOM     14  C   UNL     1       1.062   3.027  19.299  0.00  0.00    +0.000 A 
ATOM     15  C   UNL     1       1.476   4.289  18.903  0.00  0.00    +0.000 A 
ENDBRANCH   1  10
BRANCH   2  16
ATOM     16  C   UNL     1       4.692   5.478  18.440  0.00  0.00    +0.000 C 
ATOM     17  O   UNL     1       5.481   4.914  19.186  0.00  0.00    +0.000 OA
ATOM     18  N   UNL     1       4.475   5.106  17.133  0.00  0.00    +0.000 N 
ATOM     19  H   UNL     1       3.877   5.663  16.536  0.00  0.00    +0.000 HD
BRANCH  18  20
ATOM     20  C   UNL     1       5.254   4.021  16.555  0.00  0.00    +0.000 C 
BRANCH  20  21
ATOM     21  C   UNL     1       6.609   4.438  15.963  0.00  0.00    +0.000 C 
BRANCH  21  22
ATOM     22  C   UNL     1       6.755   4.378  14.459  0.00  0.00    +0.000 A 
ATOM     23  C   UNL     1       5.971   3.537  13.658  0.00  0.00    +0.000 A 
ATOM     24  C   UNL     1       6.135   3.517  12.269  0.00  0.00    +0.000 A 
ATOM     25  C   UNL     1       7.070   4.351  11.661  0.00  0.00    +0.000 A 
ATOM     26  C   UNL     1       7.820   5.229  12.438  0.00  0.00    +0.000 A 
ATOM     27  C   UNL     1       7.657   5.250  13.824  0.00  0.00    +0.000 A 
ENDBRANCH  21  22
ENDBRANCH  20  21
ENDBRANCH  18  20
ENDBRANCH   2  16
TORSDOF 6
ENDMDL
MODEL 3
REMARK VINA RESULT:      -8.2      0.400      1.029
REMARK  Name = 
REMARK  7 active torsions:
REMARK  status: ('A' for Active; 'I' for Inactive)
REMARK    1  A    between atoms: C_1  and  C_2
REMARK    2  A    between atoms: C_5  and  C_6
REMARK    3  A    between atoms: C_6  and  C_19
REMARK    4  A    between atoms: C_7  and  C_8
REMARK    5  A    between atoms: N_10  and  C_11
REMARK    6  A    between atoms: C_11  and  C_12
REMARK    7  A    between atoms: C_12  and  C_13
REMARK                            x       y       z     vdW  Elec       q    Type
REMARK                         _______ _______ _______ _____ _____    ______ ____
ROOT
ATOM      1  C   UNL     1       3.720   6.190  18.161  0.00  0.00    +0.000 C 
ATOM      2  C   UNL     1       4.909   6.570  17.640  0.00  0.00    +0.000 C 
ENDROOT
BRANCH   1   7
ATOM      3  C   UNL     1       0.144  10.514  19.684  0.00  0.00    +0.000 C 
ATOM      4  C   UNL     1       1.025   9.364  19.285  0.00  0.00    +0.000 A 
ATOM      5  C   UNL     1       1.334   8.341  20.187  0.00  0.00    +0.000 A 
ATOM      6  C   UNL     1       2.183   7.290  19.810  0.00  0.00    +0.000 A 
ATOM      7  C   UNL     1       2.744   7.248  18.527  0.00  0.00    +0.000 A 
ATOM      8  C   UNL     1       2.426   8.271  17.620  0.00  0.00    +0.000 A 
ATOM      9  C   UNL     1       1.576   9.317  17.997  0.00  0.00    +0.000 A 
ENDBRANCH   1   7
BRANCH   1  10
ATOM     10  C   UNL     1       3.425   4.758  18.391  0.00  0.00    +0.000 A 
ATOM     11  C   UNL     1       4.012   4.090  19.467  0.00  0.00    +0.000 A 
ATOM     12  C   UNL     1       3.718   2.748  19.646  0.00  0.00    +0.000 A 
ATOM     13  N   UNL     1       2.893   2.045  18.842  0.00  0.00    +0.000 NA
ATOM     14  C   UNL     1       2.343   2.714  17.806  0.00  0.00    +0.000 A 
ATOM     15  C   UNL     1       2.566   4.057  17.545  0.00  0.00    +0.000 A 
ENDBRANCH   1  10
BRANCH   2  16
ATOM     16  C   UNL     1       5.918   5.617  17.097  0.00  0.00    +0.000 C 
ATOM     17  O   UNL     1       6.900   5.278  17.745  0.00  0.00    +0.000 OA
ATOM     18  N   UNL     1       5.619   5.125  15.847  0.00  0.00    +0.000 N 
ATOM     19  H   UNL     1       4.844   5.506  15.321  0.00  0.00    +0.000 HD
BRANCH  18  20
ATOM     20  C   UNL     1       6.531   4.190  15.205  0.00  0.00    +0.000 C 
BRANCH  20  21
ATOM     21  C   UNL     1       6.838   4.493  13.730  0.00  0.00    +0.000 C 
BRANCH  21  22
ATOM     22  C   UNL     1       6.150   3.637  12.690  0.00  0.00    +0.000 A 
ATOM     23  C   UNL     1       6.781   2.551  12.069  0.00  0.00    +0.000 A 
ATOM     24  C   UNL     1       6.106   1.782  11.116  0.00  0.00    +0.000 A 
ATOM     25  C   UNL     1       4.785   2.076  10.785  0.00  0.00    +0.000 A 
ATOM     26  C   UNL     1       4.128   3.120  11.430  0.00  0.00    +0.000 A 
ATOM     27  C   UNL     1       4.802   3.887  12.382  0.00  0.00    +0.000 A 
ENDBRANCH  21  22
ENDBRANCH  20  21
ENDBRANCH  18  20
ENDBRANCH   2  16
TORSDOF 6
ENDMDL
MODEL 4
REMARK VINA RESULT:      -8.2      1.510      2.195
REMARK  Name = 
REMARK  7 active torsions:
REMARK  status: ('A' for Active; 'I' for Inactive)
REMARK    1  A    between atoms: C_1  and  C_2
REMARK    2  A    between atoms: C_5  and  C_6
REMARK    3  A    between atoms: C_6  and  C_19
REMARK    4  A    between atoms: C_7  and  C_8
REMARK    5  A    between atoms: N_10  and  C_11
REMARK    6  A    between atoms: C_11  and  C_12
REMARK    7  A    between atoms: C_12  and  C_13
REMARK                            x       y       z     vdW  Elec       q    Type
REMARK                         _______ _______ _______ _____ _____    ______ ____
ROOT
ATOM      1  C   UNL     1       2.822   6.415  19.273  0.00  0.00    +0.000 C 
ATOM      2  C   UNL     1       4.149   6.553  19.054  0.00  0.00    +0.000 C 
ENDROOT
BRANCH   1   7
ATOM      3  C   UNL     1      -0.054  11.371  20.259  0.00  0.00    +0.000 C 
ATOM      4  C   UNL     1       0.642  10.064  20.003  0.00  0.00    +0.000 A 
ATOM      5  C   UNL     1       0.817   9.124  21.024  0.00  0.00    +0.000 A 
ATOM      6  C   UNL     1       1.495   7.922  20.777  0.00  0.00    +0.000 A 
ATOM      7  C   UNL     1       2.018   7.642  19.508  0.00  0.00    +0.000 A 
ATOM      8  C   UNL     1       1.834   8.582  18.483  0.00  0.00    +0.000 A 
ATOM      9  C   UNL     1       1.154   9.781  18.730  0.00  0.00    +0.000 A 
ENDBRANCH   1   7
BRANCH   1  10
ATOM     10  C   UNL     1       2.203   5.071  19.314  0.00  0.00    +0.000 A 
ATOM     11  C   UNL     1       1.819   4.444  18.128  0.00  0.00    +0.000 A 
ATOM     12  C   UNL     1       1.237   3.190  18.206  0.00  0.00    +0.000 A 
ATOM     13  N   UNL     1       1.020   2.533  19.364  0.00  0.00    +0.000 NA
ATOM     14  C   UNL     1       1.396   3.164  20.498  0.00  0.00    +0.000 A 
ATOM     15  C   UNL     1       1.992   4.414  20.526  0.00  0.00    +0.000 A 
ENDBRANCH   1  10
BRANCH   2  16
ATOM     16  C   UNL     1       5.045   5.428  18.662  0.00  0.00    +0.000 C 
ATOM     17  O   UNL     1       5.429   4.596  19.474  0.00  0.00    +0.000 OA
ATOM     18  N   UNL     1       5.348   5.384  17.321  0.00  0.00    +0.000 N 
ATOM     19  H   UNL     1       5.078   6.146  16.711  0.00  0.00    +0.000 HD
BRANCH  18  20
ATOM     20  C   UNL     1       6.221   4.336  16.814  0.00  0.00    +0.000 C 
BRANCH  20  21
ATOM     21  C   UNL     1       5.690   3.589  15.582  0.00  0.00    +0.000 C 
BRANCH  21  22
ATOM     22  C   UNL     1       6.300   3.940  14.243  0.00  0.00    +0.000 A 
ATOM     23  C   UNL     1       5.901   3.327  13.047  0.00  0.00    +0.000 A 
ATOM     24  C   UNL     1       6.488   3.685  11.830  0.00  0.00    +0.000 A 
ATOM     25  C   UNL     1       7.468   4.675  11.788  0.00  0.00    +0.000 A 
ATOM     26  C   UNL     1       7.839   5.328  12.960  0.00  0.00    +0.000 A 
ATOM     27  C   UNL     1       7.253   4.971  14.175  0.00  0.00    +0.000 A 
ENDBRANCH  21  22
ENDBRANCH  20  21
ENDBRANCH  18  20
ENDBRANCH   2  16
TORSDOF 6
ENDMDL
MODEL 5
REMARK VINA RESULT:      -8.1      1.575      2.524
REMARK  Name = 
REMARK  7 active torsions:
REMARK  status: ('A' for Active; 'I' for Inactive)
REMARK    1  A    between atoms: C_1  and  C_2
REMARK    2  A    between atoms: C_5  and  C_6
REMARK    3  A    between atoms: C_6  and  C_19
REMARK    4  A    between atoms: C_7  and  C_8
REMARK    5  A    between atoms: N_10  and  C_11
REMARK    6  A    between atoms: C_11  and  C_12
REMARK    7  A    between atoms: C_12  and  C_13
REMARK                            x       y       z     vdW  Elec       q    Type
REMARK                         _______ _______ _______ _____ _____    ______ ____
ROOT
ATOM      1  C   UNL     1       2.680   6.617  19.208  0.00  0.00    +0.000 C 
ATOM      2  C   UNL     1       3.925   6.732  18.692  0.00  0.00    +0.000 C 
ENDROOT
BRANCH   1   7
ATOM      3  C   UNL     1      -0.715  11.284  19.906  0.00  0.00    +0.000 C 
ATOM      4  C   UNL     1       0.205  10.111  19.722  0.00  0.00    +0.000 A 
ATOM      5  C   UNL     1       0.716   9.780  18.463  0.00  0.00    +0.000 A 
ATOM      6  C   UNL     1       1.549   8.664  18.302  0.00  0.00    +0.000 A 
ATOM      7  C   UNL     1       1.880   7.854  19.396  0.00  0.00    +0.000 A 
ATOM      8  C   UNL     1       1.374   8.192  20.661  0.00  0.00    +0.000 A 
ATOM      9  C   UNL     1       0.545   9.308  20.820  0.00  0.00    +0.000 A 
ENDBRANCH   1   7
BRANCH   1  10
ATOM     10  C   UNL     1       2.154   5.292  19.608  0.00  0.00    +0.000 A 
ATOM     11  C   UNL     1       1.536   4.473  18.662  0.00  0.00    +0.000 A 
ATOM     12  C   UNL     1       1.049   3.244  19.074  0.00  0.00    +0.000 A 
ATOM     13  N   UNL     1       1.139   2.786  20.340  0.00  0.00    +0.000 NA
ATOM     14  C   UNL     1       1.737   3.600  21.237  0.00  0.00    +0.000 A 
ATOM     15  C   UNL     1       2.263   4.843  20.924  0.00  0.00    +0.000 A 
ENDBRANCH   1  10
BRANCH   2  16
ATOM     16  C   UNL     1       4.778   5.570  18.317  0.00  0.00    +0.000 C 
ATOM     17  O   UNL     1       5.499   5.008  19.131  0.00  0.00    +0.000 OA
ATOM     18  N   UNL     1       4.639   5.162  17.010  0.00  0.00    +0.000 N 
ATOM     19  H   UNL     1       4.099   5.715  16.357  0.00  0.00    +0.000 HD
BRANCH  18  20
ATOM     20  C   UNL     1       5.425   4.039  16.519  0.00  0.00    +0.000 C 
BRANCH  20  21
ATOM     21  C   UNL     1       6.778   4.416  15.897  0.00  0.00    +0.000 C 
BRANCH  21  22
ATOM     22  C   UNL     1       6.869   4.417  14.387  0.00  0.00    +0.000 A 
ATOM     23  C   UNL     1       7.746   5.255  13.685  0.00  0.00    +0.000 A 
ATOM     24  C   UNL     1       7.802   5.220  12.288  0.00  0.00    +0.000 A 
ATOM     25  C   UNL     1       6.998   4.334  11.575  0.00  0.00    +0.000 A 
ATOM     26  C   UNL     1       6.159   3.460  12.260  0.00  0.00    +0.000 A 
ATOM     27  C   UNL     1       6.103   3.494  13.655  0.00  0.00    +0.000 A 
ENDBRANCH  21  22
ENDBRANCH  20  21
ENDBRANCH  18  20
ENDBRANCH   2  16
TORSDOF 6
ENDMDL
MODEL 6
REMARK VINA RESULT:      -8.1      1.578      2.308
REMARK  Name = 
REMARK  7 active torsions:
REMARK  status: ('A' for Active; 'I' for Inactive)
REMARK    1  A    between atoms: C_1  and  C_2
REMARK    2  A    between atoms: C_5  and  C_6
REMARK    3  A    between atoms: C_6  and  C_19
REMARK    4  A    between atoms: C_7  and  C_8
REMARK    5  A    between atoms: N_10  and  C_11
REMARK    6  A    between atoms: C_11  and  C_12
REMARK    7  A    between atoms: C_12  and  C_13
REMARK                            x       y       z     vdW  Elec       q    Type
REMARK                         _______ _______ _______ _____ _____    ______ ____
ROOT
ATOM      1  C   UNL     1       2.776   6.403  19.504  0.00  0.00    +0.000 C 
ATOM      2  C   UNL     1       4.065   6.555  19.125  0.00  0.00    +0.000 C 
ENDROOT
BRANCH   1   7
ATOM      3  C   UNL     1      -0.653  11.023  20.340  0.00  0.00    +0.000 C 
ATOM      4  C   UNL     1       0.276   9.861  20.131  0.00  0.00    +0.000 A 
ATOM      5  C   UNL     1       0.955   9.685  18.921  0.00  0.00    +0.000 A 
ATOM      6  C   UNL     1       1.795   8.579  18.730  0.00  0.00    +0.000 A 
ATOM      7  C   UNL     1       1.965   7.625  19.742  0.00  0.00    +0.000 A 
ATOM      8  C   UNL     1       1.290   7.808  20.958  0.00  0.00    +0.000 A 
ATOM      9  C   UNL     1       0.454   8.914  21.149  0.00  0.00    +0.000 A 
ENDBRANCH   1   7
BRANCH   1  10
ATOM     10  C   UNL     1       2.208   5.052  19.710  0.00  0.00    +0.000 A 
ATOM     11  C   UNL     1       2.189   4.492  20.989  0.00  0.00    +0.000 A 
ATOM     12  C   UNL     1       1.658   3.222  21.142  0.00  0.00    +0.000 A 
ATOM     13  N   UNL     1       1.152   2.491  20.127  0.00  0.00    +0.000 NA
ATOM     14  C   UNL     1       1.187   3.054  18.900  0.00  0.00    +0.000 A 
ATOM     15  C   UNL     1       1.690   4.319  18.643  0.00  0.00    +0.000 A 
ENDBRANCH   1  10
BRANCH   2  16
ATOM     16  C   UNL     1       4.946   5.426  18.714  0.00  0.00    +0.000 C 
ATOM     17  O   UNL     1       5.273   4.543  19.497  0.00  0.00    +0.000 OA
ATOM     18  N   UNL     1       5.306   5.441  17.386  0.00  0.00    +0.000 N 
ATOM     19  H   UNL     1       5.083   6.239  16.805  0.00  0.00    +0.000 HD
BRANCH  18  20
ATOM     20  C   UNL     1       6.171   4.393  16.863  0.00  0.00    +0.000 C 
BRANCH  20  21
ATOM     21  C   UNL     1       5.616   3.643  15.642  0.00  0.00    +0.000 C 
BRANCH  21  22
ATOM     22  C   UNL     1       6.240   3.951  14.298  0.00  0.00    +0.000 A 
ATOM     23  C   UNL     1       5.824   3.329  13.114  0.00  0.00    +0.000 A 
ATOM     24  C   UNL     1       6.424   3.647  11.892  0.00  0.00    +0.000 A 
ATOM     25  C   UNL     1       7.433   4.606  11.834  0.00  0.00    +0.000 A 
ATOM     26  C   UNL     1       7.822   5.269  12.994  0.00  0.00    +0.000 A 
ATOM     27  C   UNL     1       7.223   4.952  14.214  0.00  0.00    +0.000 A 
ENDBRANCH  21  22
ENDBRANCH  20  21
ENDBRANCH  18  20
ENDBRANCH   2  16
TORSDOF 6
ENDMDL
MODEL 7
REMARK VINA RESULT:      -8.1      0.789      1.778
REMARK  Name = 
REMARK  7 active torsions:
REMARK  status: ('A' for Active; 'I' for Inactive)
REMARK    1  A    between atoms: C_1  and  C_2
REMARK    2  A    between atoms: C_5  and  C_6
REMARK    3  A    between atoms: C_6  and  C_19
REMARK    4  A    between atoms: C_7  and  C_8
REMARK    5  A    between atoms: N_10  and  C_11
REMARK    6  A    between atoms: C_11  and  C_12
REMARK    7  A    between atoms: C_12  and  C_13
REMARK                            x       y       z     vdW  Elec       q    Type
REMARK                         _______ _______ _______ _____ _____    ______ ____
ROOT
ATOM      1  C   UNL     1       3.488   6.046  17.894  0.00  0.00    +0.000 C 
ATOM      2  C   UNL     1       4.434   6.317  16.966  0.00  0.00    +0.000 C 
ENDROOT
BRANCH   1   7
ATOM      3  C   UNL     1       0.311  10.353  20.164  0.00  0.00    +0.000 C 
ATOM      4  C   UNL     1       1.177   9.271  19.582  0.00  0.00    +0.000 A 
ATOM      5  C   UNL     1       1.630   9.337  18.261  0.00  0.00    +0.000 A 
ATOM      6  C   UNL     1       2.411   8.305  17.723  0.00  0.00    +0.000 A 
ATOM      7  C   UNL     1       2.746   7.184  18.494  0.00  0.00    +0.000 A 
ATOM      8  C   UNL     1       2.298   7.123  19.822  0.00  0.00    +0.000 A 
ATOM      9  C   UNL     1       1.521   8.156  20.359  0.00  0.00    +0.000 A 
ENDBRANCH   1   7
BRANCH   1  10
ATOM     10  C   UNL     1       3.235   4.652  18.321  0.00  0.00    +0.000 A 
ATOM     11  C   UNL     1       2.099   3.979  17.866  0.00  0.00    +0.000 A 
ATOM     12  C   UNL     1       1.891   2.678  18.293  0.00  0.00    +0.000 A 
ATOM     13  N   UNL     1       2.724   2.017  19.123  0.00  0.00    +0.000 NA
ATOM     14  C   UNL     1       3.812   2.692  19.552  0.00  0.00    +0.000 A 
ATOM     15  C   UNL     1       4.114   3.991  19.178  0.00  0.00    +0.000 A 
ENDBRANCH   1  10
BRANCH   2  16
ATOM     16  C   UNL     1       5.149   5.272  16.181  0.00  0.00    +0.000 C 
ATOM     17  O   UNL     1       4.614   4.213  15.877  0.00  0.00    +0.000 OA
ATOM     18  N   UNL     1       6.422   5.624  15.793  0.00  0.00    +0.000 N 
ATOM     19  H   UNL     1       6.847   6.471  16.147  0.00  0.00    +0.000 HD
BRANCH  18  20
ATOM     20  C   UNL     1       7.227   4.685  15.026  0.00  0.00    +0.000 C 
BRANCH  20  21
ATOM     21  C   UNL     1       7.241   4.930  13.510  0.00  0.00    +0.000 C 
BRANCH  21  22
ATOM     22  C   UNL     1       6.536   3.915  12.638  0.00  0.00    +0.000 A 
ATOM     23  C   UNL     1       7.220   2.892  11.967  0.00  0.00    +0.000 A 
ATOM     24  C   UNL     1       6.529   1.971  11.175  0.00  0.00    +0.000 A 
ATOM     25  C   UNL     1       5.143   2.046  11.058  0.00  0.00    +0.000 A 
ATOM     26  C   UNL     1       4.444   3.024  11.759  0.00  0.00    +0.000 A 
ATOM     27  C   UNL     1       5.133   3.944  12.551  0.00  0.00    +0.000 A 
ENDBRANCH  21  22
ENDBRANCH  20  21
ENDBRANCH  18  20
ENDBRANCH   2  16
TORSDOF 6
ENDMDL
MODEL 8
REMARK VINA RESULT:      -8.1      1.335      1.853
REMARK  Name = 
REMARK  7 active torsions:
REMARK  status: ('A' for Active; 'I' for Inactive)
REMARK    1  A    between atoms: C_1  and  C_2
REMARK    2  A    between atoms: C_5  and  C_6
REMARK    3  A    between atoms: C_6  and  C_19
REMARK    4  A    between atoms: C_7  and  C_8
REMARK    5  A    between atoms: N_10  and  C_11
REMARK    6  A    between atoms: C_11  and  C_12
REMARK    7  A    between atoms: C_12  and  C_13
REMARK                            x       y       z     vdW  Elec       q    Type
REMARK                         _______ _______ _______ _____ _____    ______ ____
ROOT
ATOM      1  C   UNL     1       2.984   7.074  18.317  0.00  0.00    +0.000 C 
ATOM      2  C   UNL     1       3.978   7.592  17.562  0.00  0.00    +0.000 C 
ENDROOT
BRANCH   1   7
ATOM      3  C   UNL     1      -0.542  10.941  20.850  0.00  0.00    +0.000 C 
ATOM      4  C   UNL     1       0.329   9.906  20.196  0.00  0.00    +0.000 A 
ATOM      5  C   UNL     1       0.885   8.856  20.933  0.00  0.00    +0.000 A 
ATOM      6  C   UNL     1       1.721   7.915  20.315  0.00  0.00    +0.000 A 
ATOM      7  C   UNL     1       2.021   8.012  18.950  0.00  0.00    +0.000 A 
ATOM      8  C   UNL     1       1.455   9.061  18.209  0.00  0.00    +0.000 A 
ATOM      9  C   UNL     1       0.619   9.998  18.828  0.00  0.00    +0.000 A 
ENDBRANCH   1   7
BRANCH   1  10
ATOM     10  C   UNL     1       2.889   5.613  18.533  0.00  0.00    +0.000 A 
ATOM     11  C   UNL     1       3.559   5.021  19.605  0.00  0.00    +0.000 A 
ATOM     12  C   UNL     1       3.453   3.650  19.771  0.00  0.00    +0.000 A 
ATOM     13  N   UNL     1       2.736   2.848  18.956  0.00  0.00    +0.000 NA
ATOM     14  C   UNL     1       2.103   3.445  17.923  0.00  0.00    +0.000 A 
ATOM     15  C   UNL     1       2.139   4.807  17.676  0.00  0.00    +0.000 A 
ENDBRANCH   1  10
BRANCH   2  16
ATOM     16  C   UNL     1       4.922   6.768  16.755  0.00  0.00    +0.000 C 
ATOM     17  O   UNL     1       4.956   6.835  15.533  0.00  0.00    +0.000 OA
ATOM     18  N   UNL     1       5.770   5.982  17.501  0.00  0.00    +0.000 N 
ATOM     19  H   UNL     1       5.640   5.897  18.501  0.00  0.00    +0.000 HD
BRANCH  18  20
ATOM     20  C   UNL     1       6.736   5.125  16.829  0.00  0.00    +0.000 C 
BRANCH  20  21
ATOM     21  C   UNL     1       6.124   4.051  15.917  0.00  0.00    +0.000 C 
BRANCH  21  22
ATOM     22  C   UNL     1       6.470   4.114  14.445  0.00  0.00    +0.000 A 
ATOM     23  C   UNL     1       5.806   3.344  13.480  0.00  0.00    +0.000 A 
ATOM     24  C   UNL     1       6.154   3.437  12.129  0.00  0.00    +0.000 A 
ATOM     25  C   UNL     1       7.155   4.316  11.721  0.00  0.00    +0.000 A 
ATOM     26  C   UNL     1       7.787   5.125  12.660  0.00  0.00    +0.000 A 
ATOM     27  C   UNL     1       7.440   5.032  14.010  0.00  0.00    +0.000 A 
ENDBRANCH  21  22
ENDBRANCH  20  21
ENDBRANCH  18  20
ENDBRANCH   2  16
TORSDOF 6
ENDMDL
MODEL 9
REMARK VINA RESULT:      -8.1      0.906      1.293
REMARK  Name = 
REMARK  7 active torsions:
REMARK  status: ('A' for Active; 'I' for Inactive)
REMARK    1  A    between atoms: C_1  and  C_2
REMARK    2  A    between atoms: C_5  and  C_6
REMARK    3  A    between atoms: C_6  and  C_19
REMARK    4  A    between atoms: C_7  and  C_8
REMARK    5  A    between atoms: N_10  and  C_11
REMARK    6  A    between atoms: C_11  and  C_12
REMARK    7  A    between atoms: C_12  and  C_13
REMARK                            x       y       z     vdW  Elec       q    Type
REMARK                         _______ _______ _______ _____ _____    ______ ____
ROOT
ATOM      1  C   UNL     1       3.126   6.093  18.152  0.00  0.00    +0.000 C 
ATOM      2  C   UNL     1       4.140   6.338  17.291  0.00  0.00    +0.000 C 
ENDROOT
BRANCH   1   7
ATOM      3  C   UNL     1       0.445  10.768  20.333  0.00  0.00    +0.000 C 
ATOM      4  C   UNL     1       1.090   9.533  19.770  0.00  0.00    +0.000 A 
ATOM      5  C   UNL     1       1.378   8.431  20.581  0.00  0.00    +0.000 A 
ATOM      6  C   UNL     1       2.009   7.298  20.047  0.00  0.00    +0.000 A 
ATOM      7  C   UNL     1       2.370   7.250  18.694  0.00  0.00    +0.000 A 
ATOM      8  C   UNL     1       2.073   8.354  17.880  0.00  0.00    +0.000 A 
ATOM      9  C   UNL     1       1.440   9.483  18.414  0.00  0.00    +0.000 A 
ENDBRANCH   1   7
BRANCH   1  10
ATOM     10  C   UNL     1       2.812   4.707  18.566  0.00  0.00    +0.000 A 
ATOM     11  C   UNL     1       1.699   4.056  18.032  0.00  0.00    +0.000 A 
ATOM     12  C   UNL     1       1.432   2.762  18.449  0.00  0.00    +0.000 A 
ATOM     13  N   UNL     1       2.187   2.089  19.341  0.00  0.00    +0.000 NA
ATOM     14  C   UNL     1       3.255   2.743  19.846  0.00  0.00    +0.000 A 
ATOM     15  C   UNL     1       3.612   4.034  19.489  0.00  0.00    +0.000 A 
ENDBRANCH   1  10
BRANCH   2  16
ATOM     16  C   UNL     1       4.884   5.272  16.562  0.00  0.00    +0.000 C 
ATOM     17  O   UNL     1       4.358   4.208  16.261  0.00  0.00    +0.000 OA
ATOM     18  N   UNL     1       6.173   5.612  16.220  0.00  0.00    +0.000 N 
ATOM     19  H   UNL     1       6.586   6.467  16.571  0.00  0.00    +0.000 HD
BRANCH  18  20
ATOM     20  C   UNL     1       7.006   4.653  15.510  0.00  0.00    +0.000 C 
BRANCH  20  21
ATOM     21  C   UNL     1       7.190   4.939  14.012  0.00  0.00    +0.000 C 
BRANCH  21  22
ATOM     22  C   UNL     1       6.505   4.004  13.039  0.00  0.00    +0.000 A 
ATOM     23  C   UNL     1       5.115   3.980  12.868  0.00  0.00    +0.000 A 
ATOM     24  C   UNL     1       4.523   3.103  11.954  0.00  0.00    +0.000 A 
ATOM     25  C   UNL     1       5.314   2.252  11.185  0.00  0.00    +0.000 A 
ATOM     26  C   UNL     1       6.699   2.300  11.306  0.00  0.00    +0.000 A 
ATOM     27  C   UNL     1       7.291   3.176  12.219  0.00  0.00    +0.000 A 
ENDBRANCH  21  22
ENDBRANCH  20  21
ENDBRANCH  18  20
ENDBRANCH   2  16
TORSDOF 6
ENDMDL
