MODEL 1
REMARK VINA RESULT:      -6.3      0.000      0.000
REMARK  Name = 
REMARK  10 active torsions:
REMARK  status: ('A' for Active; 'I' for Inactive)
REMARK    1  A    between atoms: C_1  and  O_2
REMARK    2  A    between atoms: O_2  and  C_3
REMARK    3  A    between atoms: C_3  and  C_5
REMARK    4  A    between atoms: C_8  and  O_9
REMARK    5  A    between atoms: O_9  and  C_10
REMARK    6  A    between atoms: C_10  and  C_11
REMARK    7  A    between atoms: C_11  and  O_12
REMARK    8  A    between atoms: C_11  and  C_13
REMARK    9  A    between atoms: C_13  and  O_14
REMARK   10  A    between atoms: C_16  and  O_17
REMARK                            x       y       z     vdW  Elec       q    Type
REMARK                         _______ _______ _______ _____ _____    ______ ____
ROOT
ATOM      1  C   UNL     1       1.990   3.795  18.536  0.00  0.00    +0.000 A 
ATOM      2  C   UNL     1       2.197   5.171  18.686  0.00  0.00    +0.000 A 
ATOM      3  C   UNL     1       3.241   5.812  18.013  0.00  0.00    +0.000 A 
ATOM      4  C   UNL     1       4.097   5.084  17.187  0.00  0.00    +0.000 A 
ATOM      5  C   UNL     1       3.896   3.709  17.031  0.00  0.00    +0.000 A 
ATOM      6  C   UNL     1       2.844   3.068  17.699  0.00  0.00    +0.000 A 
ENDROOT
BRANCH   1   7
ATOM      7  C   UNL     1       0.911   3.125  19.310  0.00  0.00    +0.000 C 
ATOM      8  O   UNL     1       0.169   2.259  18.887  0.00  0.00    +0.000 OA
BRANCH   7  10
ATOM      9  C   UNL     1       1.548   2.760  21.526  0.00  0.00    +0.000 C 
ATOM     10  O   UNL     1       0.903   3.615  20.581  0.00  0.00    +0.000 OA
ENDBRANCH   7  10
ENDBRANCH   1   7
BRANCH   6  11
ATOM     11  O   UNL     1       2.647   1.731  17.501  0.00  0.00    +0.000 OA
ATOM     12  H   UNL     1       3.104   1.223  18.187  0.00  0.00    +0.000 HD
ENDBRANCH   6  11
BRANCH   4  13
ATOM     13  O   UNL     1       5.154   5.603  16.487  0.00  0.00    +0.000 OA
BRANCH  13  14
ATOM     14  C   UNL     1       6.358   4.837  16.514  0.00  0.00    +0.000 C 
BRANCH  14  15
ATOM     15  C   UNL     1       7.070   5.006  17.857  0.00  0.00    +0.000 C 
BRANCH  15  16
ATOM     16  O   UNL     1       8.155   4.074  17.930  0.00  0.00    +0.000 OA
ATOM     17  H   UNL     1       8.143   3.530  17.123  0.00  0.00    +0.000 HD
ENDBRANCH  15  16
BRANCH  15  18
ATOM     18  C   UNL     1       7.570   6.447  18.042  0.00  0.00    +0.000 C 
BRANCH  18  19
ATOM     19  O   UNL     1       7.511   7.187  16.824  0.00  0.00    +0.000 OA
ATOM     20  H   UNL     1       7.314   6.562  16.105  0.00  0.00    +0.000 HD
ENDBRANCH  18  19
ENDBRANCH  15  18
ENDBRANCH  14  15
ENDBRANCH  13  14
ENDBRANCH   4  13
TORSDOF 9
ENDMDL
MODEL 2
REMARK VINA RESULT:      -6.3      0.644      1.387
REMARK  Name = 
REMARK  10 active torsions:
REMARK  status: ('A' for Active; 'I' for Inactive)
REMARK    1  A    between atoms: C_1  and  O_2
REMARK    2  A    between atoms: O_2  and  C_3
REMARK    3  A    between atoms: C_3  and  C_5
REMARK    4  A    between atoms: C_8  and  O_9
REMARK    5  A    between atoms: O_9  and  C_10
REMARK    6  A    between atoms: C_10  and  C_11
REMARK    7  A    between atoms: C_11  and  O_12
REMARK    8  A    between atoms: C_11  and  C_13
REMARK    9  A    between atoms: C_13  and  O_14
REMARK   10  A    between atoms: C_16  and  O_17
REMARK                            x       y       z     vdW  Elec       q    Type
REMARK                         _______ _______ _______ _____ _____    ______ ____
ROOT
ATOM      1  C   UNL     1       2.007   3.779  18.646  0.00  0.00    +0.000 A 
ATOM      2  C   UNL     1       2.241   5.158  18.707  0.00  0.00    +0.000 A 
ATOM      3  C   UNL     1       3.293   5.735  17.991  0.00  0.00    +0.000 A 
ATOM      4  C   UNL     1       4.132   4.940  17.211  0.00  0.00    +0.000 A 
ATOM      5  C   UNL     1       3.905   3.562  17.144  0.00  0.00    +0.000 A 
ATOM      6  C   UNL     1       2.845   2.984  17.854  0.00  0.00    +0.000 A 
ENDROOT
BRANCH   1   7
ATOM      7  C   UNL     1       0.919   3.179  19.464  0.00  0.00    +0.000 C 
ATOM      8  O   UNL     1       0.151   2.312  19.095  0.00  0.00    +0.000 OA
BRANCH   7  10
ATOM      9  C   UNL     1       1.767   3.036  21.634  0.00  0.00    +0.000 C 
ATOM     10  O   UNL     1       0.937   3.737  20.707  0.00  0.00    +0.000 OA
ENDBRANCH   7  10
ENDBRANCH   1   7
BRANCH   6  11
ATOM     11  O   UNL     1       2.622   1.641  17.742  0.00  0.00    +0.000 OA
ATOM     12  H   UNL     1       1.670   1.461  17.738  0.00  0.00    +0.000 HD
ENDBRANCH   6  11
BRANCH   4  13
ATOM     13  O   UNL     1       5.195   5.393  16.476  0.00  0.00    +0.000 OA
BRANCH  13  14
ATOM     14  C   UNL     1       5.735   6.655  16.871  0.00  0.00    +0.000 C 
BRANCH  14  15
ATOM     15  C   UNL     1       7.243   6.542  17.102  0.00  0.00    +0.000 C 
BRANCH  15  16
ATOM     16  O   UNL     1       7.799   7.858  17.207  0.00  0.00    +0.000 OA
ATOM     17  H   UNL     1       8.071   7.999  18.130  0.00  0.00    +0.000 HD
ENDBRANCH  15  16
BRANCH  15  18
ATOM     18  C   UNL     1       7.550   5.714  18.359  0.00  0.00    +0.000 C 
BRANCH  18  19
ATOM     19  O   UNL     1       7.546   4.314  18.084  0.00  0.00    +0.000 OA
ATOM     20  H   UNL     1       8.431   4.072  17.760  0.00  0.00    +0.000 HD
ENDBRANCH  18  19
ENDBRANCH  15  18
ENDBRANCH  14  15
ENDBRANCH  13  14
ENDBRANCH   4  13
TORSDOF 9
ENDMDL
MODEL 3
REMARK VINA RESULT:      -6.2      0.901      1.146
REMARK  Name = 
REMARK  10 active torsions:
REMARK  status: ('A' for Active; 'I' for Inactive)
REMARK    1  A    between atoms: C_1  and  O_2
REMARK    2  A    between atoms: O_2  and  C_3
REMARK    3  A    between atoms: C_3  and  C_5
REMARK    4  A    between atoms: C_8  and  O_9
REMARK    5  A    between atoms: O_9  and  C_10
REMARK    6  A    between atoms: C_10  and  C_11
REMARK    7  A    between atoms: C_11  and  O_12
REMARK    8  A    between atoms: C_11  and  C_13
REMARK    9  A    between atoms: C_13  and  O_14
REMARK   10  A    between atoms: C_16  and  O_17
REMARK                            x       y       z     vdW  Elec       q    Type
REMARK                         _______ _______ _______ _____ _____    ______ ____
ROOT
ATOM      1  C   UNL     1       1.930   3.696  18.597  0.00  0.00    +0.000 A 
ATOM      2  C   UNL     1       1.999   5.093  18.656  0.00  0.00    +0.000 A 
ATOM      3  C   UNL     1       3.032   5.783  18.018  0.00  0.00    +0.000 A 
ATOM      4  C   UNL     1       4.018   5.087  17.319  0.00  0.00    +0.000 A 
ATOM      5  C   UNL     1       3.955   3.691  17.254  0.00  0.00    +0.000 A 
ATOM      6  C   UNL     1       2.915   2.999  17.885  0.00  0.00    +0.000 A 
ENDROOT
BRANCH   1   7
ATOM      7  C   UNL     1       0.856   2.979  19.335  0.00  0.00    +0.000 C 
ATOM      8  O   UNL     1       0.126   2.124  18.870  0.00  0.00    +0.000 OA
BRANCH   7  10
ATOM      9  C   UNL     1       1.712   2.681  21.485  0.00  0.00    +0.000 C 
ATOM     10  O   UNL     1       0.836   3.412  20.626  0.00  0.00    +0.000 OA
ENDBRANCH   7  10
ENDBRANCH   1   7
BRANCH   6  11
ATOM     11  O   UNL     1       2.857   1.638  17.776  0.00  0.00    +0.000 OA
ATOM     12  H   UNL     1       2.995   1.229  18.642  0.00  0.00    +0.000 HD
ENDBRANCH   6  11
BRANCH   4  13
ATOM     13  O   UNL     1       5.077   5.656  16.665  0.00  0.00    +0.000 OA
BRANCH  13  14
ATOM     14  C   UNL     1       6.242   5.898  17.454  0.00  0.00    +0.000 C 
BRANCH  14  15
ATOM     15  C   UNL     1       7.425   5.088  16.922  0.00  0.00    +0.000 C 
BRANCH  15  16
ATOM     16  O   UNL     1       7.714   4.027  17.840  0.00  0.00    +0.000 OA
ATOM     17  H   UNL     1       6.879   3.575  18.053  0.00  0.00    +0.000 HD
ENDBRANCH  15  16
BRANCH  15  18
ATOM     18  C   UNL     1       7.133   4.536  15.519  0.00  0.00    +0.000 C 
BRANCH  18  19
ATOM     19  O   UNL     1       7.481   5.472  14.500  0.00  0.00    +0.000 OA
ATOM     20  H   UNL     1       8.428   5.364  14.306  0.00  0.00    +0.000 HD
ENDBRANCH  18  19
ENDBRANCH  15  18
ENDBRANCH  14  15
ENDBRANCH  13  14
ENDBRANCH   4  13
TORSDOF 9
ENDMDL
MODEL 4
REMARK VINA RESULT:      -6.2      0.880      1.073
REMARK  Name = 
REMARK  10 active torsions:
REMARK  status: ('A' for Active; 'I' for Inactive)
REMARK    1  A    between atoms: C_1  and  O_2
REMARK    2  A    between atoms: O_2  and  C_3
REMARK    3  A    between atoms: C_3  and  C_5
REMARK    4  A    between atoms: C_8  and  O_9
REMARK    5  A    between atoms: O_9  and  C_10
REMARK    6  A    between atoms: C_10  and  C_11
REMARK    7  A    between atoms: C_11  and  O_12
REMARK    8  A    between atoms: C_11  and  C_13
REMARK    9  A    between atoms: C_13  and  O_14
REMARK   10  A    between atoms: C_16  and  O_17
REMARK                            x       y       z     vdW  Elec       q    Type
REMARK                         _______ _______ _______ _____ _____    ______ ____
ROOT
ATOM      1  C   UNL     1       2.171   3.835  18.429  0.00  0.00    +0.000 A 
ATOM      2  C   UNL     1       2.451   5.206  18.476  0.00  0.00    +0.000 A 
ATOM      3  C   UNL     1       3.515   5.741  17.744  0.00  0.00    +0.000 A 
ATOM      4  C   UNL     1       4.319   4.911  16.962  0.00  0.00    +0.000 A 
ATOM      5  C   UNL     1       4.044   3.541  16.909  0.00  0.00    +0.000 A 
ATOM      6  C   UNL     1       2.973   3.006  17.635  0.00  0.00    +0.000 A 
ENDROOT
BRANCH   1   7
ATOM      7  C   UNL     1       1.072   3.279  19.264  0.00  0.00    +0.000 C 
ATOM      8  O   UNL     1       0.234   2.481  18.892  0.00  0.00    +0.000 OA
BRANCH   7  10
ATOM      9  C   UNL     1       1.448   2.796  21.516  0.00  0.00    +0.000 C 
ATOM     10  O   UNL     1       1.170   3.786  20.525  0.00  0.00    +0.000 OA
ENDBRANCH   7  10
ENDBRANCH   1   7
BRANCH   6  11
ATOM     11  O   UNL     1       2.704   1.670  17.537  0.00  0.00    +0.000 OA
ATOM     12  H   UNL     1       2.070   1.408  18.221  0.00  0.00    +0.000 HD
ENDBRANCH   6  11
BRANCH   4  13
ATOM     13  O   UNL     1       5.388   5.323  16.212  0.00  0.00    +0.000 OA
BRANCH  13  14
ATOM     14  C   UNL     1       6.447   5.959  16.929  0.00  0.00    +0.000 C 
BRANCH  14  15
ATOM     15  C   UNL     1       7.157   4.954  17.836  0.00  0.00    +0.000 C 
BRANCH  15  16
ATOM     16  O   UNL     1       8.053   4.164  17.045  0.00  0.00    +0.000 OA
ATOM     17  H   UNL     1       8.910   4.125  17.505  0.00  0.00    +0.000 HD
ENDBRANCH  15  16
BRANCH  15  18
ATOM     18  C   UNL     1       7.910   5.667  18.971  0.00  0.00    +0.000 C 
BRANCH  18  19
ATOM     19  O   UNL     1       7.300   5.432  20.238  0.00  0.00    +0.000 OA
ATOM     20  H   UNL     1       7.995   5.143  20.854  0.00  0.00    +0.000 HD
ENDBRANCH  18  19
ENDBRANCH  15  18
ENDBRANCH  14  15
ENDBRANCH  13  14
ENDBRANCH   4  13
TORSDOF 9
ENDMDL
MODEL 5
REMARK VINA RESULT:      -6.2      1.450      6.051
REMARK  Name = 
REMARK  10 active torsions:
REMARK  status: ('A' for Active; 'I' for Inactive)
REMARK    1  A    between atoms: C_1  and  O_2
REMARK    2  A    between atoms: O_2  and  C_3
REMARK    3  A    between atoms: C_3  and  C_5
REMARK    4  A    between atoms: C_8  and  O_9
REMARK    5  A    between atoms: O_9  and  C_10
REMARK    6  A    between atoms: C_10  and  C_11
REMARK    7  A    between atoms: C_11  and  O_12
REMARK    8  A    between atoms: C_11  and  C_13
REMARK    9  A    between atoms: C_13  and  O_14
REMARK   10  A    between atoms: C_16  and  O_17
REMARK                            x       y       z     vdW  Elec       q    Type
REMARK                         _______ _______ _______ _____ _____    ______ ____
ROOT
ATOM      1  C   UNL     1       5.812   5.948  17.478  0.00  0.00    +0.000 A 
ATOM      2  C   UNL     1       4.667   6.716  17.240  0.00  0.00    +0.000 A 
ATOM      3  C   UNL     1       3.430   6.333  17.765  0.00  0.00    +0.000 A 
ATOM      4  C   UNL     1       3.319   5.171  18.529  0.00  0.00    +0.000 A 
ATOM      5  C   UNL     1       4.459   4.399  18.772  0.00  0.00    +0.000 A 
ATOM      6  C   UNL     1       5.701   4.787  18.254  0.00  0.00    +0.000 A 
ENDROOT
BRANCH   1   7
ATOM      7  C   UNL     1       7.106   6.342  16.858  0.00  0.00    +0.000 C 
ATOM      8  O   UNL     1       7.617   7.444  16.925  0.00  0.00    +0.000 OA
BRANCH   7  10
ATOM      9  C   UNL     1       7.024   4.971  14.972  0.00  0.00    +0.000 C 
ATOM     10  O   UNL     1       7.644   5.263  16.224  0.00  0.00    +0.000 OA
ENDBRANCH   7  10
ENDBRANCH   1   7
BRANCH   6  11
ATOM     11  O   UNL     1       6.805   4.035  18.537  0.00  0.00    +0.000 OA
ATOM     12  H   UNL     1       6.563   3.290  19.106  0.00  0.00    +0.000 HD
ENDBRANCH   6  11
BRANCH   4  13
ATOM     13  O   UNL     1       2.161   4.697  19.085  0.00  0.00    +0.000 OA
BRANCH  13  14
ATOM     14  C   UNL     1       1.342   3.894  18.234  0.00  0.00    +0.000 C 
BRANCH  14  15
ATOM     15  C   UNL     1       1.326   2.444  18.721  0.00  0.00    +0.000 C 
BRANCH  15  16
ATOM     16  O   UNL     1       2.233   1.674  17.923  0.00  0.00    +0.000 OA
ATOM     17  H   UNL     1       2.769   2.290  17.393  0.00  0.00    +0.000 HD
ENDBRANCH  15  16
BRANCH  15  18
ATOM     18  C   UNL     1       1.694   2.355  20.210  0.00  0.00    +0.000 C 
BRANCH  18  19
ATOM     19  O   UNL     1       0.725   3.003  21.033  0.00  0.00    +0.000 OA
ATOM     20  H   UNL     1       1.202   3.573  21.661  0.00  0.00    +0.000 HD
ENDBRANCH  18  19
ENDBRANCH  15  18
ENDBRANCH  14  15
ENDBRANCH  13  14
ENDBRANCH   4  13
TORSDOF 9
ENDMDL
MODEL 6
REMARK VINA RESULT:      -6.2      1.578      6.194
REMARK  Name = 
REMARK  10 active torsions:
REMARK  status: ('A' for Active; 'I' for Inactive)
REMARK    1  A    between atoms: C_1  and  O_2
REMARK    2  A    between atoms: O_2  and  C_3
REMARK    3  A    between atoms: C_3  and  C_5
REMARK    4  A    between atoms: C_8  and  O_9
REMARK    5  A    between atoms: O_9  and  C_10
REMARK    6  A    between atoms: C_10  and  C_11
REMARK    7  A    between atoms: C_11  and  O_12
REMARK    8  A    between atoms: C_11  and  C_13
REMARK    9  A    between atoms: C_13  and  O_14
REMARK   10  A    between atoms: C_16  and  O_17
REMARK                            x       y       z     vdW  Elec       q    Type
REMARK                         _______ _______ _______ _____ _____    ______ ____
ROOT
ATOM      1  C   UNL     1       5.943   6.164  17.810  0.00  0.00    +0.000 A 
ATOM      2  C   UNL     1       4.787   6.411  17.060  0.00  0.00    +0.000 A 
ATOM      3  C   UNL     1       3.543   5.947  17.496  0.00  0.00    +0.000 A 
ATOM      4  C   UNL     1       3.438   5.222  18.683  0.00  0.00    +0.000 A 
ATOM      5  C   UNL     1       4.588   4.973  19.438  0.00  0.00    +0.000 A 
ATOM      6  C   UNL     1       5.834   5.445  19.006  0.00  0.00    +0.000 A 
ENDROOT
BRANCH   1   7
ATOM      7  C   UNL     1       7.264   6.615  17.295  0.00  0.00    +0.000 C 
ATOM      8  O   UNL     1       7.708   6.386  16.186  0.00  0.00    +0.000 OA
BRANCH   7  10
ATOM      9  C   UNL     1       8.080   8.718  17.890  0.00  0.00    +0.000 C 
ATOM     10  O   UNL     1       7.890   7.351  18.256  0.00  0.00    +0.000 OA
ENDBRANCH   7  10
ENDBRANCH   1   7
BRANCH   6  11
ATOM     11  O   UNL     1       6.937   5.220  19.781  0.00  0.00    +0.000 OA
ATOM     12  H   UNL     1       7.193   6.034  20.239  0.00  0.00    +0.000 HD
ENDBRANCH   6  11
BRANCH   4  13
ATOM     13  O   UNL     1       2.277   4.714  19.201  0.00  0.00    +0.000 OA
BRANCH  13  14
ATOM     14  C   UNL     1       1.447   3.994  18.288  0.00  0.00    +0.000 C 
BRANCH  14  15
ATOM     15  C   UNL     1       1.407   2.511  18.658  0.00  0.00    +0.000 C 
BRANCH  15  16
ATOM     16  O   UNL     1       2.376   1.807  17.871  0.00  0.00    +0.000 OA
ATOM     17  H   UNL     1       3.260   2.128  18.122  0.00  0.00    +0.000 HD
ENDBRANCH  15  16
BRANCH  15  18
ATOM     18  C   UNL     1       1.665   2.307  20.158  0.00  0.00    +0.000 C 
BRANCH  18  19
ATOM     19  O   UNL     1       0.715   3.008  20.958  0.00  0.00    +0.000 OA
ATOM     20  H   UNL     1       0.610   3.899  20.583  0.00  0.00    +0.000 HD
ENDBRANCH  18  19
ENDBRANCH  15  18
ENDBRANCH  14  15
ENDBRANCH  13  14
ENDBRANCH   4  13
TORSDOF 9
ENDMDL
MODEL 7
REMARK VINA RESULT:      -6.2      0.858      1.409
REMARK  Name = 
REMARK  10 active torsions:
REMARK  status: ('A' for Active; 'I' for Inactive)
REMARK    1  A    between atoms: C_1  and  O_2
REMARK    2  A    between atoms: O_2  and  C_3
REMARK    3  A    between atoms: C_3  and  C_5
REMARK    4  A    between atoms: C_8  and  O_9
REMARK    5  A    between atoms: O_9  and  C_10
REMARK    6  A    between atoms: C_10  and  C_11
REMARK    7  A    between atoms: C_11  and  O_12
REMARK    8  A    between atoms: C_11  and  C_13
REMARK    9  A    between atoms: C_13  and  O_14
REMARK   10  A    between atoms: C_16  and  O_17
REMARK                            x       y       z     vdW  Elec       q    Type
REMARK                         _______ _______ _______ _____ _____    ______ ____
ROOT
ATOM      1  C   UNL     1       1.921   3.839  18.637  0.00  0.00    +0.000 A 
ATOM      2  C   UNL     1       2.223   5.185  18.874  0.00  0.00    +0.000 A 
ATOM      3  C   UNL     1       3.223   5.830  18.142  0.00  0.00    +0.000 A 
ATOM      4  C   UNL     1       3.942   5.137  17.169  0.00  0.00    +0.000 A 
ATOM      5  C   UNL     1       3.646   3.792  16.926  0.00  0.00    +0.000 A 
ATOM      6  C   UNL     1       2.637   3.147  17.652  0.00  0.00    +0.000 A 
ENDROOT
BRANCH   1   7
ATOM      7  C   UNL     1       0.895   3.156  19.469  0.00  0.00    +0.000 C 
ATOM      8  O   UNL     1       0.133   2.289  19.086  0.00  0.00    +0.000 OA
BRANCH   7  10
ATOM      9  C   UNL     1       1.417   2.674  21.692  0.00  0.00    +0.000 C 
ATOM     10  O   UNL     1       0.960   3.638  20.742  0.00  0.00    +0.000 OA
ENDBRANCH   7  10
ENDBRANCH   1   7
BRANCH   6  11
ATOM     11  O   UNL     1       2.343   1.843  17.369  0.00  0.00    +0.000 OA
ATOM     12  H   UNL     1       1.907   1.429  18.128  0.00  0.00    +0.000 HD
ENDBRANCH   6  11
BRANCH   4  13
ATOM     13  O   UNL     1       4.945   5.663  16.400  0.00  0.00    +0.000 OA
BRANCH  13  14
ATOM     14  C   UNL     1       5.539   4.775  15.453  0.00  0.00    +0.000 C 
BRANCH  14  15
ATOM     15  C   UNL     1       7.048   4.680  15.681  0.00  0.00    +0.000 C 
BRANCH  15  16
ATOM     16  O   UNL     1       7.718   5.499  14.716  0.00  0.00    +0.000 OA
ATOM     17  H   UNL     1       7.547   6.431  14.938  0.00  0.00    +0.000 HD
ENDBRANCH  15  16
BRANCH  15  18
ATOM     18  C   UNL     1       7.419   5.099  17.111  0.00  0.00    +0.000 C 
BRANCH  18  19
ATOM     19  O   UNL     1       8.000   4.022  17.844  0.00  0.00    +0.000 OA
ATOM     20  H   UNL     1       7.478   3.222  17.661  0.00  0.00    +0.000 HD
ENDBRANCH  18  19
ENDBRANCH  15  18
ENDBRANCH  14  15
ENDBRANCH  13  14
ENDBRANCH   4  13
TORSDOF 9
ENDMDL
MODEL 8
REMARK VINA RESULT:      -6.1      1.496      6.017
REMARK  Name = 
REMARK  10 active torsions:
REMARK  status: ('A' for Active; 'I' for Inactive)
REMARK    1  A    between atoms: C_1  and  O_2
REMARK    2  A    between atoms: O_2  and  C_3
REMARK    3  A    between atoms: C_3  and  C_5
REMARK    4  A    between atoms: C_8  and  O_9
REMARK    5  A    between atoms: O_9  and  C_10
REMARK    6  A    between atoms: C_10  and  C_11
REMARK    7  A    between atoms: C_11  and  O_12
REMARK    8  A    between atoms: C_11  and  C_13
REMARK    9  A    between atoms: C_13  and  O_14
REMARK   10  A    between atoms: C_16  and  O_17
REMARK                            x       y       z     vdW  Elec       q    Type
REMARK                         _______ _______ _______ _____ _____    ______ ____
ROOT
ATOM      1  C   UNL     1       5.534   5.720  17.350  0.00  0.00    +0.000 A 
ATOM      2  C   UNL     1       4.282   6.340  17.436  0.00  0.00    +0.000 A 
ATOM      3  C   UNL     1       3.379   5.987  18.442  0.00  0.00    +0.000 A 
ATOM      4  C   UNL     1       3.711   5.002  19.372  0.00  0.00    +0.000 A 
ATOM      5  C   UNL     1       4.961   4.379  19.294  0.00  0.00    +0.000 A 
ATOM      6  C   UNL     1       5.870   4.739  18.291  0.00  0.00    +0.000 A 
ENDROOT
BRANCH   1   7
ATOM      7  C   UNL     1       6.453   6.068  16.234  0.00  0.00    +0.000 C 
ATOM      8  O   UNL     1       7.576   6.518  16.356  0.00  0.00    +0.000 OA
BRANCH   7  10
ATOM      9  C   UNL     1       6.306   4.559  14.460  0.00  0.00    +0.000 C 
ATOM     10  O   UNL     1       5.848   5.776  15.049  0.00  0.00    +0.000 OA
ENDBRANCH   7  10
ENDBRANCH   1   7
BRANCH   6  11
ATOM     11  O   UNL     1       7.097   4.141  18.259  0.00  0.00    +0.000 OA
ATOM     12  H   UNL     1       7.432   4.021  19.160  0.00  0.00    +0.000 HD
ENDBRANCH   6  11
BRANCH   4  13
ATOM     13  O   UNL     1       2.906   4.572  20.392  0.00  0.00    +0.000 OA
BRANCH  13  14
ATOM     14  C   UNL     1       2.789   3.157  20.543  0.00  0.00    +0.000 C 
BRANCH  14  15
ATOM     15  C   UNL     1       1.394   2.688  20.128  0.00  0.00    +0.000 C 
BRANCH  15  16
ATOM     16  O   UNL     1       0.456   3.744  20.371  0.00  0.00    +0.000 OA
ATOM     17  H   UNL     1      -0.226   3.410  20.980  0.00  0.00    +0.000 HD
ENDBRANCH  15  16
BRANCH  15  18
ATOM     18  C   UNL     1       1.368   2.259  18.653  0.00  0.00    +0.000 C 
BRANCH  18  19
ATOM     19  O   UNL     1       2.542   1.533  18.294  0.00  0.00    +0.000 OA
ATOM     20  H   UNL     1       3.307   2.122  18.419  0.00  0.00    +0.000 HD
ENDBRANCH  18  19
ENDBRANCH  15  18
ENDBRANCH  14  15
ENDBRANCH  13  14
ENDBRANCH   4  13
TORSDOF 9
ENDMDL
MODEL 9
REMARK VINA RESULT:      -6.1      1.661      6.016
REMARK  Name = 
REMARK  10 active torsions:
REMARK  status: ('A' for Active; 'I' for Inactive)
REMARK    1  A    between atoms: C_1  and  O_2
REMARK    2  A    between atoms: O_2  and  C_3
REMARK    3  A    between atoms: C_3  and  C_5
REMARK    4  A    between atoms: C_8  and  O_9
REMARK    5  A    between atoms: O_9  and  C_10
REMARK    6  A    between atoms: C_10  and  C_11
REMARK    7  A    between atoms: C_11  and  O_12
REMARK    8  A    between atoms: C_11  and  C_13
REMARK    9  A    between atoms: C_13  and  O_14
REMARK   10  A    between atoms: C_16  and  O_17
REMARK                            x       y       z     vdW  Elec       q    Type
REMARK                         _______ _______ _______ _____ _____    ______ ____
ROOT
ATOM      1  C   UNL     1       5.407   5.910  17.441  0.00  0.00    +0.000 A 
ATOM      2  C   UNL     1       4.237   6.677  17.476  0.00  0.00    +0.000 A 
ATOM      3  C   UNL     1       3.222   6.388  18.391  0.00  0.00    +0.000 A 
ATOM      4  C   UNL     1       3.358   5.321  19.279  0.00  0.00    +0.000 A 
ATOM      5  C   UNL     1       4.524   4.550  19.251  0.00  0.00    +0.000 A 
ATOM      6  C   UNL     1       5.546   4.845  18.340  0.00  0.00    +0.000 A 
ENDROOT
BRANCH   1   7
ATOM      7  C   UNL     1       6.447   6.198  16.417  0.00  0.00    +0.000 C 
ATOM      8  O   UNL     1       7.560   6.634  16.641  0.00  0.00    +0.000 OA
BRANCH   7  10
ATOM      9  C   UNL     1       6.582   4.712  14.622  0.00  0.00    +0.000 C 
ATOM     10  O   UNL     1       5.964   5.870  15.185  0.00  0.00    +0.000 OA
ENDBRANCH   7  10
ENDBRANCH   1   7
BRANCH   6  11
ATOM     11  O   UNL     1       6.691   4.099  18.358  0.00  0.00    +0.000 OA
ATOM     12  H   UNL     1       7.220   4.283  17.568  0.00  0.00    +0.000 HD
ENDBRANCH   6  11
BRANCH   4  13
ATOM     13  O   UNL     1       2.429   4.942  20.210  0.00  0.00    +0.000 OA
BRANCH  13  14
ATOM     14  C   UNL     1       1.268   4.281  19.703  0.00  0.00    +0.000 C 
BRANCH  14  15
ATOM     15  C   UNL     1       1.152   2.875  20.293  0.00  0.00    +0.000 C 
BRANCH  15  16
ATOM     16  O   UNL     1       1.927   1.970  19.497  0.00  0.00    +0.000 OA
ATOM     17  H   UNL     1       1.564   1.075  19.616  0.00  0.00    +0.000 HD
ENDBRANCH  15  16
BRANCH  15  18
ATOM     18  C   UNL     1       1.611   2.850  21.759  0.00  0.00    +0.000 C 
BRANCH  18  19
ATOM     19  O   UNL     1       2.952   2.380  21.884  0.00  0.00    +0.000 OA
ATOM     20  H   UNL     1       2.987   1.478  21.521  0.00  0.00    +0.000 HD
ENDBRANCH  18  19
ENDBRANCH  15  18
ENDBRANCH  14  15
ENDBRANCH  13  14
ENDBRANCH   4  13
TORSDOF 9
ENDMDL
