MODEL 1
REMARK VINA RESULT:      -6.6      0.000      0.000
REMARK  Name = 
REMARK  2 active torsions:
REMARK  status: ('A' for Active; 'I' for Inactive)
REMARK    1  A    between atoms: C_1  and  C_2
REMARK    2  A    between atoms: C_9  and  N_10
REMARK                            x       y       z     vdW  Elec       q    Type
REMARK                         _______ _______ _______ _____ _____    ______ ____
ROOT
ATOM      1  C   UNL     1       8.471   5.515  19.411  0.00  0.00    +0.000 C 
ATOM      2  C   UNL     1       7.427   5.350  18.305  0.00  0.00    +0.000 C 
ATOM      3  C   UNL     1       6.964   6.741  17.811  0.00  0.00    +0.000 C 
ATOM      4  O   UNL     1       5.985   6.721  16.759  0.00  0.00    +0.000 OA
ATOM      5  C   UNL     1       4.705   6.758  17.257  0.00  0.00    +0.000 A 
ATOM      6  C   UNL     1       3.974   7.912  16.993  0.00  0.00    +0.000 A 
ATOM      7  C   UNL     1       2.710   8.042  17.542  0.00  0.00    +0.000 A 
ATOM      8  C   UNL     1       2.205   7.031  18.379  0.00  0.00    +0.000 A 
ATOM      9  C   UNL     1       2.886   5.816  18.619  0.00  0.00    +0.000 A 
ATOM     10  C   UNL     1       4.133   5.688  17.971  0.00  0.00    +0.000 A 
ATOM     11  S   UNL     1       5.045   4.177  17.831  0.00  0.00    +0.000 S 
ATOM     12  O   UNL     1       4.375   3.059  18.451  0.00  0.00    +0.000 OA
ATOM     13  O   UNL     1       5.572   4.029  16.492  0.00  0.00    +0.000 OA
ATOM     14  N   UNL     1       6.325   4.545  18.864  0.00  0.00    +0.000 NA
ATOM     15  H   UNL     1       6.532   3.773  19.495  0.00  0.00    +0.000 HD
ENDROOT
BRANCH   9  16
ATOM     16  N   UNL     1       2.303   4.849  19.439  0.00  0.00    +0.000 N 
ATOM     17  C   UNL     1       1.209   3.999  18.936  0.00  0.00    +0.000 C 
ATOM     18  C   UNL     1       1.420   2.564  19.421  0.00  0.00    +0.000 C 
ATOM     19  S   UNL     1       1.199   2.450  21.229  0.00  0.00    +0.000 S 
ATOM     20  C   UNL     1       2.390   3.755  21.703  0.00  0.00    +0.000 C 
ATOM     21  C   UNL     1       2.236   5.070  20.907  0.00  0.00    +0.000 C 
ENDBRANCH   9  16
TORSDOF 1
ENDMDL
MODEL 2
REMARK VINA RESULT:      -6.0      2.373      3.513
REMARK  Name = 
REMARK  2 active torsions:
REMARK  status: ('A' for Active; 'I' for Inactive)
REMARK    1  A    between atoms: C_1  and  C_2
REMARK    2  A    between atoms: C_9  and  N_10
REMARK                            x       y       z     vdW  Elec       q    Type
REMARK                         _______ _______ _______ _____ _____    ______ ____
ROOT
ATOM      1  C   UNL     1       6.342   3.585  13.558  0.00  0.00    +0.000 C 
ATOM      2  C   UNL     1       6.102   4.797  14.459  0.00  0.00    +0.000 C 
ATOM      3  C   UNL     1       7.416   5.179  15.182  0.00  0.00    +0.000 C 
ATOM      4  O   UNL     1       7.324   6.316  16.057  0.00  0.00    +0.000 OA
ATOM      5  C   UNL     1       7.026   5.941  17.345  0.00  0.00    +0.000 A 
ATOM      6  C   UNL     1       8.024   6.147  18.292  0.00  0.00    +0.000 A 
ATOM      7  C   UNL     1       7.814   5.711  19.589  0.00  0.00    +0.000 A 
ATOM      8  C   UNL     1       6.622   5.041  19.916  0.00  0.00    +0.000 A 
ATOM      9  C   UNL     1       5.557   4.871  19.002  0.00  0.00    +0.000 A 
ATOM     10  C   UNL     1       5.777   5.406  17.716  0.00  0.00    +0.000 A 
ATOM     11  S   UNL     1       4.523   5.622  16.485  0.00  0.00    +0.000 S 
ATOM     12  O   UNL     1       3.220   5.193  16.933  0.00  0.00    +0.000 OA
ATOM     13  O   UNL     1       4.661   6.912  15.847  0.00  0.00    +0.000 OA
ATOM     14  N   UNL     1       5.019   4.437  15.393  0.00  0.00    +0.000 NA
ATOM     15  H   UNL     1       4.234   3.877  15.065  0.00  0.00    +0.000 HD
ENDROOT
BRANCH   9  16
ATOM     16  N   UNL     1       4.393   4.220  19.413  0.00  0.00    +0.000 N 
ATOM     17  C   UNL     1       3.436   4.890  20.313  0.00  0.00    +0.000 C 
ATOM     18  C   UNL     1       2.011   4.592  19.846  0.00  0.00    +0.000 C 
ATOM     19  S   UNL     1       1.603   2.829  20.091  0.00  0.00    +0.000 S 
ATOM     20  C   UNL     1       3.023   2.122  19.182  0.00  0.00    +0.000 C 
ATOM     21  C   UNL     1       4.388   2.741  19.561  0.00  0.00    +0.000 C 
ENDBRANCH   9  16
TORSDOF 1
ENDMDL
MODEL 3
REMARK VINA RESULT:      -5.9      8.476     10.308
REMARK  Name = 
REMARK  2 active torsions:
REMARK  status: ('A' for Active; 'I' for Inactive)
REMARK    1  A    between atoms: C_1  and  C_2
REMARK    2  A    between atoms: C_9  and  N_10
REMARK                            x       y       z     vdW  Elec       q    Type
REMARK                         _______ _______ _______ _____ _____    ______ ____
ROOT
ATOM      1  C   UNL     1      -3.414  10.994  16.885  0.00  0.00    +0.000 C 
ATOM      2  C   UNL     1      -2.104  11.336  17.599  0.00  0.00    +0.000 C 
ATOM      3  C   UNL     1      -1.488  10.052  18.203  0.00  0.00    +0.000 C 
ATOM      4  O   UNL     1      -0.242  10.239  18.895  0.00  0.00    +0.000 OA
ATOM      5  C   UNL     1      -0.438  10.467  20.237  0.00  0.00    +0.000 A 
ATOM      6  C   UNL     1       0.010   9.474  21.101  0.00  0.00    +0.000 A 
ATOM      7  C   UNL     1      -0.236   9.608  22.457  0.00  0.00    +0.000 A 
ATOM      8  C   UNL     1      -0.960  10.718  22.929  0.00  0.00    +0.000 A 
ATOM      9  C   UNL     1      -1.374  11.780  22.094  0.00  0.00    +0.000 A 
ATOM     10  C   UNL     1      -1.028  11.646  20.733  0.00  0.00    +0.000 A 
ATOM     11  S   UNL     1      -1.131  12.944  19.534  0.00  0.00    +0.000 S 
ATOM     12  O   UNL     1      -1.609  14.185  20.093  0.00  0.00    +0.000 OA
ATOM     13  O   UNL     1       0.051  12.953  18.700  0.00  0.00    +0.000 OA
ATOM     14  N   UNL     1      -2.418  12.354  18.618  0.00  0.00    +0.000 NA
ATOM     15  H   UNL     1      -3.097  13.085  18.411  0.00  0.00    +0.000 HD
ENDROOT
BRANCH   9  16
ATOM     16  N   UNL     1      -2.063  12.862  22.645  0.00  0.00    +0.000 N 
ATOM     17  C   UNL     1      -1.403  13.758  23.612  0.00  0.00    +0.000 C 
ATOM     18  C   UNL     1      -1.790  15.205  23.305  0.00  0.00    +0.000 C 
ATOM     19  S   UNL     1      -3.558  15.493  23.654  0.00  0.00    +0.000 S 
ATOM     20  C   UNL     1      -4.233  14.135  22.631  0.00  0.00    +0.000 C 
ATOM     21  C   UNL     1      -3.533  12.774  22.846  0.00  0.00    +0.000 C 
ENDBRANCH   9  16
TORSDOF 1
ENDMDL
MODEL 4
REMARK VINA RESULT:      -5.7      2.277      2.900
REMARK  Name = 
REMARK  2 active torsions:
REMARK  status: ('A' for Active; 'I' for Inactive)
REMARK    1  A    between atoms: C_1  and  C_2
REMARK    2  A    between atoms: C_9  and  N_10
REMARK                            x       y       z     vdW  Elec       q    Type
REMARK                         _______ _______ _______ _____ _____    ______ ____
ROOT
ATOM      1  C   UNL     1       7.667   8.794  17.852  0.00  0.00    +0.000 C 
ATOM      2  C   UNL     1       7.797   7.279  17.681  0.00  0.00    +0.000 C 
ATOM      3  C   UNL     1       7.571   6.900  16.198  0.00  0.00    +0.000 C 
ATOM      4  O   UNL     1       7.677   5.497  15.903  0.00  0.00    +0.000 OA
ATOM      5  C   UNL     1       6.456   4.869  15.982  0.00  0.00    +0.000 A 
ATOM      6  C   UNL     1       5.933   4.389  14.785  0.00  0.00    +0.000 A 
ATOM      7  C   UNL     1       4.669   3.825  14.789  0.00  0.00    +0.000 A 
ATOM      8  C   UNL     1       3.928   3.780  15.983  0.00  0.00    +0.000 A 
ATOM      9  C   UNL     1       4.447   4.194  17.229  0.00  0.00    +0.000 A 
ATOM     10  C   UNL     1       5.770   4.683  17.197  0.00  0.00    +0.000 A 
ATOM     11  S   UNL     1       6.774   4.968  18.627  0.00  0.00    +0.000 S 
ATOM     12  O   UNL     1       6.099   4.641  19.859  0.00  0.00    +0.000 OA
ATOM     13  O   UNL     1       8.116   4.478  18.405  0.00  0.00    +0.000 OA
ATOM     14  N   UNL     1       6.816   6.653  18.587  0.00  0.00    +0.000 NA
ATOM     15  H   UNL     1       6.651   7.055  19.509  0.00  0.00    +0.000 HD
ENDROOT
BRANCH   9  16
ATOM     16  N   UNL     1       3.657   4.089  18.375  0.00  0.00    +0.000 N 
ATOM     17  C   UNL     1       3.203   2.771  18.855  0.00  0.00    +0.000 C 
ATOM     18  C   UNL     1       3.316   2.723  20.379  0.00  0.00    +0.000 C 
ATOM     19  S   UNL     1       2.112   3.853  21.156  0.00  0.00    +0.000 S 
ATOM     20  C   UNL     1       2.589   5.373  20.257  0.00  0.00    +0.000 C 
ATOM     21  C   UNL     1       2.721   5.188  18.729  0.00  0.00    +0.000 C 
ENDBRANCH   9  16
TORSDOF 1
ENDMDL
MODEL 5
REMARK VINA RESULT:      -5.7      9.416     11.040
REMARK  Name = 
REMARK  2 active torsions:
REMARK  status: ('A' for Active; 'I' for Inactive)
REMARK    1  A    between atoms: C_1  and  C_2
REMARK    2  A    between atoms: C_9  and  N_10
REMARK                            x       y       z     vdW  Elec       q    Type
REMARK                         _______ _______ _______ _____ _____    ______ ____
ROOT
ATOM      1  C   UNL     1      -0.248  15.605  18.975  0.00  0.00    +0.000 C 
ATOM      2  C   UNL     1      -0.562  14.185  19.450  0.00  0.00    +0.000 C 
ATOM      3  C   UNL     1      -0.361  13.188  18.284  0.00  0.00    +0.000 C 
ATOM      4  O   UNL     1      -0.617  11.811  18.608  0.00  0.00    +0.000 OA
ATOM      5  C   UNL     1      -1.920  11.461  18.340  0.00  0.00    +0.000 A 
ATOM      6  C   UNL     1      -2.113  10.550  17.307  0.00  0.00    +0.000 A 
ATOM      7  C   UNL     1      -3.407  10.227  16.936  0.00  0.00    +0.000 A 
ATOM      8  C   UNL     1      -4.493  10.846  17.579  0.00  0.00    +0.000 A 
ATOM      9  C   UNL     1      -4.342  11.724  18.675  0.00  0.00    +0.000 A 
ATOM     10  C   UNL     1      -3.011  11.961  19.077  0.00  0.00    +0.000 A 
ATOM     11  S   UNL     1      -2.540  12.748  20.592  0.00  0.00    +0.000 S 
ATOM     12  O   UNL     1      -3.672  13.131  21.399  0.00  0.00    +0.000 OA
ATOM     13  O   UNL     1      -1.441  12.038  21.208  0.00  0.00    +0.000 OA
ATOM     14  N   UNL     1      -1.945  14.195  19.962  0.00  0.00    +0.000 NA
ATOM     15  H   UNL     1      -2.285  14.999  20.486  0.00  0.00    +0.000 HD
ENDROOT
BRANCH   9  16
ATOM     16  N   UNL     1      -5.473  12.276  19.279  0.00  0.00    +0.000 N 
ATOM     17  C   UNL     1      -6.486  11.408  19.907  0.00  0.00    +0.000 C 
ATOM     18  C   UNL     1      -6.947  12.039  21.221  0.00  0.00    +0.000 C 
ATOM     19  S   UNL     1      -7.889  13.572  20.910  0.00  0.00    +0.000 S 
ATOM     20  C   UNL     1      -6.638  14.423  19.882  0.00  0.00    +0.000 C 
ATOM     21  C   UNL     1      -6.042  13.546  18.757  0.00  0.00    +0.000 C 
ENDBRANCH   9  16
TORSDOF 1
ENDMDL
MODEL 6
REMARK VINA RESULT:      -5.7     10.290     12.058
REMARK  Name = 
REMARK  2 active torsions:
REMARK  status: ('A' for Active; 'I' for Inactive)
REMARK    1  A    between atoms: C_1  and  C_2
REMARK    2  A    between atoms: C_9  and  N_10
REMARK                            x       y       z     vdW  Elec       q    Type
REMARK                         _______ _______ _______ _____ _____    ______ ____
ROOT
ATOM      1  C   UNL     1      -7.873   9.958  21.025  0.00  0.00    +0.000 C 
ATOM      2  C   UNL     1      -7.287  11.045  20.122  0.00  0.00    +0.000 C 
ATOM      3  C   UNL     1      -6.677  10.400  18.855  0.00  0.00    +0.000 C 
ATOM      4  O   UNL     1      -6.100  11.324  17.917  0.00  0.00    +0.000 OA
ATOM      5  C   UNL     1      -4.759  11.513  18.152  0.00  0.00    +0.000 A 
ATOM      6  C   UNL     1      -3.889  11.031  17.178  0.00  0.00    +0.000 A 
ATOM      7  C   UNL     1      -2.526  11.116  17.401  0.00  0.00    +0.000 A 
ATOM      8  C   UNL     1      -2.047  11.649  18.611  0.00  0.00    +0.000 A 
ATOM      9  C   UNL     1      -2.892  12.209  19.595  0.00  0.00    +0.000 A 
ATOM     10  C   UNL     1      -4.270  12.180  19.292  0.00  0.00    +0.000 A 
ATOM     11  S   UNL     1      -5.515  13.080  20.172  0.00  0.00    +0.000 S 
ATOM     12  O   UNL     1      -4.976  13.868  21.254  0.00  0.00    +0.000 OA
ATOM     13  O   UNL     1      -6.444  13.691  19.247  0.00  0.00    +0.000 OA
ATOM     14  N   UNL     1      -6.293  11.785  20.922  0.00  0.00    +0.000 NA
ATOM     15  H   UNL     1      -6.476  11.976  21.906  0.00  0.00    +0.000 HD
ENDROOT
BRANCH   9  16
ATOM     16  N   UNL     1      -2.337  12.746  20.758  0.00  0.00    +0.000 N 
ATOM     17  C   UNL     1      -1.403  13.884  20.686  0.00  0.00    +0.000 C 
ATOM     18  C   UNL     1      -1.719  14.868  21.813  0.00  0.00    +0.000 C 
ATOM     19  S   UNL     1      -1.321  14.142  23.440  0.00  0.00    +0.000 S 
ATOM     20  C   UNL     1      -2.303  12.609  23.270  0.00  0.00    +0.000 C 
ATOM     21  C   UNL     1      -2.090  11.867  21.931  0.00  0.00    +0.000 C 
ENDBRANCH   9  16
TORSDOF 1
ENDMDL
MODEL 7
REMARK VINA RESULT:      -5.6     10.684     12.490
REMARK  Name = 
REMARK  2 active torsions:
REMARK  status: ('A' for Active; 'I' for Inactive)
REMARK    1  A    between atoms: C_1  and  C_2
REMARK    2  A    between atoms: C_9  and  N_10
REMARK                            x       y       z     vdW  Elec       q    Type
REMARK                         _______ _______ _______ _____ _____    ______ ____
ROOT
ATOM      1  C   UNL     1      -7.810   9.384  20.632  0.00  0.00    +0.000 C 
ATOM      2  C   UNL     1      -7.289  10.654  19.959  0.00  0.00    +0.000 C 
ATOM      3  C   UNL     1      -6.265  10.280  18.860  0.00  0.00    +0.000 C 
ATOM      4  O   UNL     1      -5.706  11.393  18.142  0.00  0.00    +0.000 OA
ATOM      5  C   UNL     1      -4.538  11.832  18.719  0.00  0.00    +0.000 A 
ATOM      6  C   UNL     1      -3.376  11.642  17.978  0.00  0.00    +0.000 A 
ATOM      7  C   UNL     1      -2.160  11.985  18.543  0.00  0.00    +0.000 A 
ATOM      8  C   UNL     1      -2.116  12.482  19.858  0.00  0.00    +0.000 A 
ATOM      9  C   UNL     1      -3.275  12.752  20.619  0.00  0.00    +0.000 A 
ATOM     10  C   UNL     1      -4.498  12.469  19.975  0.00  0.00    +0.000 A 
ATOM     11  S   UNL     1      -6.087  12.996  20.549  0.00  0.00    +0.000 S 
ATOM     12  O   UNL     1      -6.014  13.767  21.767  0.00  0.00    +0.000 OA
ATOM     13  O   UNL     1      -6.882  13.491  19.448  0.00  0.00    +0.000 OA
ATOM     14  N   UNL     1      -6.707  11.500  21.018  0.00  0.00    +0.000 NA
ATOM     15  H   UNL     1      -7.158  11.549  21.930  0.00  0.00    +0.000 HD
ENDROOT
BRANCH   9  16
ATOM     16  N   UNL     1      -3.149  13.273  21.908  0.00  0.00    +0.000 N 
ATOM     17  C   UNL     1      -2.409  14.527  22.141  0.00  0.00    +0.000 C 
ATOM     18  C   UNL     1      -3.165  15.378  23.161  0.00  0.00    +0.000 C 
ATOM     19  S   UNL     1      -3.133  14.597  24.810  0.00  0.00    +0.000 S 
ATOM     20  C   UNL     1      -3.793  12.963  24.320  0.00  0.00    +0.000 C 
ATOM     21  C   UNL     1      -3.111  12.353  23.075  0.00  0.00    +0.000 C 
ENDBRANCH   9  16
TORSDOF 1
ENDMDL
MODEL 8
REMARK VINA RESULT:      -5.6      2.356      3.399
REMARK  Name = 
REMARK  2 active torsions:
REMARK  status: ('A' for Active; 'I' for Inactive)
REMARK    1  A    between atoms: C_1  and  C_2
REMARK    2  A    between atoms: C_9  and  N_10
REMARK                            x       y       z     vdW  Elec       q    Type
REMARK                         _______ _______ _______ _____ _____    ______ ____
ROOT
ATOM      1  C   UNL     1       6.287   3.562  13.637  0.00  0.00    +0.000 C 
ATOM      2  C   UNL     1       6.080   4.802  14.509  0.00  0.00    +0.000 C 
ATOM      3  C   UNL     1       7.413   5.188  15.194  0.00  0.00    +0.000 C 
ATOM      4  O   UNL     1       7.352   6.349  16.038  0.00  0.00    +0.000 OA
ATOM      5  C   UNL     1       7.078   6.014  17.343  0.00  0.00    +0.000 A 
ATOM      6  C   UNL     1       8.098   6.234  18.262  0.00  0.00    +0.000 A 
ATOM      7  C   UNL     1       7.911   5.836  19.575  0.00  0.00    +0.000 A 
ATOM      8  C   UNL     1       6.718   5.189  19.945  0.00  0.00    +0.000 A 
ATOM      9  C   UNL     1       5.633   5.006  19.059  0.00  0.00    +0.000 A 
ATOM     10  C   UNL     1       5.831   5.503  17.754  0.00  0.00    +0.000 A 
ATOM     11  S   UNL     1       4.553   5.700  16.545  0.00  0.00    +0.000 S 
ATOM     12  O   UNL     1       3.256   5.299  17.031  0.00  0.00    +0.000 OA
ATOM     13  O   UNL     1       4.692   6.970  15.868  0.00  0.00    +0.000 OA
ATOM     14  N   UNL     1       5.013   4.480  15.475  0.00  0.00    +0.000 NA
ATOM     15  H   UNL     1       4.215   3.920  15.180  0.00  0.00    +0.000 HD
ENDROOT
BRANCH   9  16
ATOM     16  N   UNL     1       4.470   4.380  19.512  0.00  0.00    +0.000 N 
ATOM     17  C   UNL     1       4.103   3.038  19.025  0.00  0.00    +0.000 C 
ATOM     18  C   UNL     1       3.577   2.204  20.193  0.00  0.00    +0.000 C 
ATOM     19  S   UNL     1       1.977   2.851  20.787  0.00  0.00    +0.000 S 
ATOM     20  C   UNL     1       2.504   4.580  21.069  0.00  0.00    +0.000 C 
ATOM     21  C   UNL     1       3.291   5.201  19.892  0.00  0.00    +0.000 C 
ENDBRANCH   9  16
TORSDOF 1
ENDMDL
MODEL 9
REMARK VINA RESULT:      -5.6      0.759      1.347
REMARK  Name = 
REMARK  2 active torsions:
REMARK  status: ('A' for Active; 'I' for Inactive)
REMARK    1  A    between atoms: C_1  and  C_2
REMARK    2  A    between atoms: C_9  and  N_10
REMARK                            x       y       z     vdW  Elec       q    Type
REMARK                         _______ _______ _______ _____ _____    ______ ____
ROOT
ATOM      1  C   UNL     1       8.532   4.728  18.286  0.00  0.00    +0.000 C 
ATOM      2  C   UNL     1       7.305   4.821  17.378  0.00  0.00    +0.000 C 
ATOM      3  C   UNL     1       6.923   6.305  17.165  0.00  0.00    +0.000 C 
ATOM      4  O   UNL     1       5.784   6.528  16.317  0.00  0.00    +0.000 OA
ATOM      5  C   UNL     1       4.618   6.600  17.042  0.00  0.00    +0.000 A 
ATOM      6  C   UNL     1       3.987   7.839  17.070  0.00  0.00    +0.000 A 
ATOM      7  C   UNL     1       2.857   7.994  17.854  0.00  0.00    +0.000 A 
ATOM      8  C   UNL     1       2.391   6.916  18.628  0.00  0.00    +0.000 A 
ATOM      9  C   UNL     1       2.962   5.625  18.577  0.00  0.00    +0.000 A 
ATOM     10  C   UNL     1       4.059   5.488  17.701  0.00  0.00    +0.000 A 
ATOM     11  S   UNL     1       4.760   3.942  17.197  0.00  0.00    +0.000 S 
ATOM     12  O   UNL     1       4.085   2.806  17.777  0.00  0.00    +0.000 OA
ATOM     13  O   UNL     1       5.034   3.952  15.778  0.00  0.00    +0.000 OA
ATOM     14  N   UNL     1       6.230   4.040  18.018  0.00  0.00    +0.000 NA
ATOM     15  H   UNL     1       6.453   3.167  18.493  0.00  0.00    +0.000 HD
ENDROOT
BRANCH   9  16
ATOM     16  N   UNL     1       2.422   4.600  19.355  0.00  0.00    +0.000 N 
ATOM     17  C   UNL     1       3.206   3.997  20.449  0.00  0.00    +0.000 C 
ATOM     18  C   UNL     1       2.296   3.772  21.657  0.00  0.00    +0.000 C 
ATOM     19  S   UNL     1       1.059   2.476  21.306  0.00  0.00    +0.000 S 
ATOM     20  C   UNL     1       0.373   3.201  19.774  0.00  0.00    +0.000 C 
ATOM     21  C   UNL     1       1.443   3.656  18.755  0.00  0.00    +0.000 C 
ENDBRANCH   9  16
TORSDOF 1
ENDMDL
