MODEL 1
REMARK VINA RESULT:      -7.3      0.000      0.000
REMARK  Name = 
REMARK  17 active torsions:
REMARK  status: ('A' for Active; 'I' for Inactive)
REMARK    1  A    between atoms: C_1  and  N_2
REMARK    2  A    between atoms: C_6  and  C_7
REMARK    3  A    between atoms: N_11  and  C_12
REMARK    4  A    between atoms: C_12  and  C_13
REMARK    5  A    between atoms: C_13  and  C_14
REMARK    6  A    between atoms: C_14  and  C_15
REMARK    7  A    between atoms: C_15  and  C_16
REMARK    8  A    between atoms: C_16  and  C_17
REMARK    9  A    between atoms: C_17  and  C_18
REMARK   10  A    between atoms: C_18  and  C_19
REMARK   11  A    between atoms: C_19  and  C_20
REMARK   12  A    between atoms: C_20  and  C_21
REMARK   13  A    between atoms: C_21  and  C_22
REMARK   14  A    between atoms: C_22  and  C_23
REMARK   15  A    between atoms: C_23  and  N_24
REMARK   16  A    between atoms: C_28  and  C_29
REMARK   17  A    between atoms: N_33  and  C_34
REMARK                            x       y       z     vdW  Elec       q    Type
REMARK                         _______ _______ _______ _____ _____    ______ ____
ROOT
ATOM      1  C   UNL     1       1.520  12.329  19.456  0.00  0.00    +0.000 C 
ENDROOT
BRANCH   1   2
ATOM      2  C   UNL     1       2.414  13.087  18.469  0.00  0.00    +0.000 C 
BRANCH   2   3
ATOM      3  C   UNL     1       2.061  14.571  18.331  0.00  0.00    +0.000 C 
BRANCH   3   4
ATOM      4  C   UNL     1       3.244  15.383  17.812  0.00  0.00    +0.000 C 
BRANCH   4   5
ATOM      5  C   UNL     1       4.575  14.737  18.164  0.00  0.00    +0.000 C 
BRANCH   5   6
ATOM      6  C   UNL     1       5.463  15.751  18.870  0.00  0.00    +0.000 C 
BRANCH   6  11
ATOM      7  C   UNL     1       8.714  13.929  18.894  0.00  0.00    +0.000 A 
ATOM      8  C   UNL     1       8.881  13.691  20.259  0.00  0.00    +0.000 A 
ATOM      9  C   UNL     1       7.931  14.149  21.164  0.00  0.00    +0.000 A 
ATOM     10  C   UNL     1       6.817  14.832  20.693  0.00  0.00    +0.000 A 
ATOM     11  N   UNL     1       6.668  15.064  19.370  0.00  0.00    +0.000 N 
ATOM     12  C   UNL     1       7.595  14.652  18.483  0.00  0.00    +0.000 A 
BRANCH   7  18
ATOM     13  C   UNL     1      11.231  15.338  17.610  0.00  0.00    +0.000 C 
ATOM     14  N   UNL     1      11.065  13.972  18.103  0.00  0.00    +0.000 NA
ATOM     15  C   UNL     1      11.962  13.049  17.397  0.00  0.00    +0.000 C 
ATOM     16  C   UNL     1      11.399  11.684  17.747  0.00  0.00    +0.000 C 
ATOM     17  C   UNL     1       9.910  11.915  17.972  0.00  0.00    +0.000 C 
ATOM     18  C   UNL     1       9.712  13.433  17.874  0.00  0.00    +0.000 C 
ENDBRANCH   7  18
ENDBRANCH   6  11
ENDBRANCH   5   6
ENDBRANCH   4   5
ENDBRANCH   3   4
ENDBRANCH   2   3
ENDBRANCH   1   2
BRANCH   1  19
ATOM     19  C   UNL     1       0.184  11.882  18.851  0.00  0.00    +0.000 C 
BRANCH  19  20
ATOM     20  C   UNL     1      -0.121  10.396  19.075  0.00  0.00    +0.000 C 
BRANCH  20  21
ATOM     21  C   UNL     1       1.130   9.521  19.206  0.00  0.00    +0.000 C 
BRANCH  21  22
ATOM     22  C   UNL     1       1.652   9.109  17.833  0.00  0.00    +0.000 C 
BRANCH  22  23
ATOM     23  C   UNL     1       2.793   8.109  17.914  0.00  0.00    +0.000 C 
BRANCH  23  24
ATOM     24  C   UNL     1       2.420   7.024  18.915  0.00  0.00    +0.000 C 
BRANCH  24  25
ATOM     25  N   UNL     1       2.716   5.705  18.344  0.00  0.00    +0.000 N 
ATOM     26  C   UNL     1       1.937   4.660  18.686  0.00  0.00    +0.000 A 
ATOM     27  C   UNL     1       2.217   3.392  18.219  0.00  0.00    +0.000 A 
ATOM     28  C   UNL     1       3.334   3.203  17.412  0.00  0.00    +0.000 A 
ATOM     29  C   UNL     1       4.148   4.287  17.067  0.00  0.00    +0.000 A 
ATOM     30  C   UNL     1       3.785   5.552  17.534  0.00  0.00    +0.000 A 
BRANCH  29  31
ATOM     31  C   UNL     1       5.411   4.068  16.262  0.00  0.00    +0.000 C 
ATOM     32  C   UNL     1       5.238   4.336  14.764  0.00  0.00    +0.000 C 
ATOM     33  C   UNL     1       6.627   4.738  14.277  0.00  0.00    +0.000 C 
ATOM     34  C   UNL     1       7.483   4.831  15.531  0.00  0.00    +0.000 C 
ATOM     35  N   UNL     1       6.504   4.997  16.615  0.00  0.00    +0.000 NA
ATOM     36  C   UNL     1       7.113   4.708  17.913  0.00  0.00    +0.000 C 
ENDBRANCH  29  31
ENDBRANCH  24  25
ENDBRANCH  23  24
ENDBRANCH  22  23
ENDBRANCH  21  22
ENDBRANCH  20  21
ENDBRANCH  19  20
ENDBRANCH   1  19
TORSDOF 15
ENDMDL
MODEL 2
REMARK VINA RESULT:      -7.1      5.278     10.663
REMARK  Name = 
REMARK  17 active torsions:
REMARK  status: ('A' for Active; 'I' for Inactive)
REMARK    1  A    between atoms: C_1  and  N_2
REMARK    2  A    between atoms: C_6  and  C_7
REMARK    3  A    between atoms: N_11  and  C_12
REMARK    4  A    between atoms: C_12  and  C_13
REMARK    5  A    between atoms: C_13  and  C_14
REMARK    6  A    between atoms: C_14  and  C_15
REMARK    7  A    between atoms: C_15  and  C_16
REMARK    8  A    between atoms: C_16  and  C_17
REMARK    9  A    between atoms: C_17  and  C_18
REMARK   10  A    between atoms: C_18  and  C_19
REMARK   11  A    between atoms: C_19  and  C_20
REMARK   12  A    between atoms: C_20  and  C_21
REMARK   13  A    between atoms: C_21  and  C_22
REMARK   14  A    between atoms: C_22  and  C_23
REMARK   15  A    between atoms: C_23  and  N_24
REMARK   16  A    between atoms: C_28  and  C_29
REMARK   17  A    between atoms: N_33  and  C_34
REMARK                            x       y       z     vdW  Elec       q    Type
REMARK                         _______ _______ _______ _____ _____    ______ ____
ROOT
ATOM      1  C   UNL     1       2.579   5.864  20.311  0.00  0.00    +0.000 C 
ENDROOT
BRANCH   1   2
ATOM      2  C   UNL     1       1.385   5.108  20.904  0.00  0.00    +0.000 C 
BRANCH   2   3
ATOM      3  C   UNL     1       0.929   3.916  20.060  0.00  0.00    +0.000 C 
BRANCH   3   4
ATOM      4  C   UNL     1       1.300   2.589  20.716  0.00  0.00    +0.000 C 
BRANCH   4   5
ATOM      5  C   UNL     1       2.449   2.744  21.701  0.00  0.00    +0.000 C 
BRANCH   5   6
ATOM      6  C   UNL     1       3.672   2.007  21.178  0.00  0.00    +0.000 C 
BRANCH   6  11
ATOM      7  C   UNL     1       4.706   3.884  18.130  0.00  0.00    +0.000 A 
ATOM      8  C   UNL     1       4.166   3.085  17.122  0.00  0.00    +0.000 A 
ATOM      9  C   UNL     1       3.481   1.922  17.453  0.00  0.00    +0.000 A 
ATOM     10  C   UNL     1       3.334   1.576  18.791  0.00  0.00    +0.000 A 
ATOM     11  N   UNL     1       3.868   2.354  19.759  0.00  0.00    +0.000 N 
ATOM     12  C   UNL     1       4.559   3.469  19.453  0.00  0.00    +0.000 A 
BRANCH   7  18
ATOM     13  C   UNL     1       7.793   4.473  17.815  0.00  0.00    +0.000 C 
ATOM     14  N   UNL     1       6.658   4.936  17.017  0.00  0.00    +0.000 NA
ATOM     15  C   UNL     1       6.951   6.233  16.394  0.00  0.00    +0.000 C 
ATOM     16  C   UNL     1       5.585   6.719  15.948  0.00  0.00    +0.000 C 
ATOM     17  C   UNL     1       4.601   6.096  16.931  0.00  0.00    +0.000 C 
ATOM     18  C   UNL     1       5.441   5.167  17.816  0.00  0.00    +0.000 C 
ENDBRANCH   7  18
ENDBRANCH   6  11
ENDBRANCH   5   6
ENDBRANCH   4   5
ENDBRANCH   3   4
ENDBRANCH   2   3
ENDBRANCH   1   2
BRANCH   1  19
ATOM     19  C   UNL     1       2.261   7.318  19.945  0.00  0.00    +0.000 C 
BRANCH  19  20
ATOM     20  C   UNL     1       1.898   7.509  18.466  0.00  0.00    +0.000 C 
BRANCH  20  21
ATOM     21  C   UNL     1       2.546   8.741  17.826  0.00  0.00    +0.000 C 
BRANCH  21  22
ATOM     22  C   UNL     1       1.504   9.818  17.541  0.00  0.00    +0.000 C 
BRANCH  22  23
ATOM     23  C   UNL     1       1.142  10.627  18.775  0.00  0.00    +0.000 C 
BRANCH  23  24
ATOM     24  C   UNL     1      -0.335  10.415  19.080  0.00  0.00    +0.000 C 
BRANCH  24  25
ATOM     25  N   UNL     1      -0.569  10.575  20.519  0.00  0.00    +0.000 N 
ATOM     26  C   UNL     1      -0.245   9.561  21.346  0.00  0.00    +0.000 A 
ATOM     27  C   UNL     1      -0.503   9.647  22.698  0.00  0.00    +0.000 A 
ATOM     28  C   UNL     1      -1.129  10.786  23.193  0.00  0.00    +0.000 A 
ATOM     29  C   UNL     1      -1.475  11.833  22.332  0.00  0.00    +0.000 A 
ATOM     30  C   UNL     1      -1.146  11.704  20.982  0.00  0.00    +0.000 A 
BRANCH  29  31
ATOM     31  C   UNL     1      -2.234  13.034  22.856  0.00  0.00    +0.000 C 
ATOM     32  C   UNL     1      -3.377  12.669  23.808  0.00  0.00    +0.000 C 
ATOM     33  C   UNL     1      -3.537  13.889  24.710  0.00  0.00    +0.000 C 
ATOM     34  C   UNL     1      -2.391  14.819  24.338  0.00  0.00    +0.000 C 
ATOM     35  N   UNL     1      -1.413  13.932  23.692  0.00  0.00    +0.000 NA
ATOM     36  C   UNL     1      -0.437  14.706  22.925  0.00  0.00    +0.000 C 
ENDBRANCH  29  31
ENDBRANCH  24  25
ENDBRANCH  23  24
ENDBRANCH  22  23
ENDBRANCH  21  22
ENDBRANCH  20  21
ENDBRANCH  19  20
ENDBRANCH   1  19
TORSDOF 15
ENDMDL
MODEL 3
REMARK VINA RESULT:      -6.9      5.687      9.220
REMARK  Name = 
REMARK  17 active torsions:
REMARK  status: ('A' for Active; 'I' for Inactive)
REMARK    1  A    between atoms: C_1  and  N_2
REMARK    2  A    between atoms: C_6  and  C_7
REMARK    3  A    between atoms: N_11  and  C_12
REMARK    4  A    between atoms: C_12  and  C_13
REMARK    5  A    between atoms: C_13  and  C_14
REMARK    6  A    between atoms: C_14  and  C_15
REMARK    7  A    between atoms: C_15  and  C_16
REMARK    8  A    between atoms: C_16  and  C_17
REMARK    9  A    between atoms: C_17  and  C_18
REMARK   10  A    between atoms: C_18  and  C_19
REMARK   11  A    between atoms: C_19  and  C_20
REMARK   12  A    between atoms: C_20  and  C_21
REMARK   13  A    between atoms: C_21  and  C_22
REMARK   14  A    between atoms: C_22  and  C_23
REMARK   15  A    between atoms: C_23  and  N_24
REMARK   16  A    between atoms: C_28  and  C_29
REMARK   17  A    between atoms: N_33  and  C_34
REMARK                            x       y       z     vdW  Elec       q    Type
REMARK                         _______ _______ _______ _____ _____    ______ ____
ROOT
ATOM      1  C   UNL     1      -0.715  11.031  18.410  0.00  0.00    +0.000 C 
ENDROOT
BRANCH   1   2
ATOM      2  C   UNL     1      -1.586  10.325  17.365  0.00  0.00    +0.000 C 
BRANCH   2   3
ATOM      3  C   UNL     1      -2.927   9.830  17.912  0.00  0.00    +0.000 C 
BRANCH   3   4
ATOM      4  C   UNL     1      -4.094  10.301  17.048  0.00  0.00    +0.000 C 
BRANCH   4   5
ATOM      5  C   UNL     1      -4.731  11.568  17.597  0.00  0.00    +0.000 C 
BRANCH   5   6
ATOM      6  C   UNL     1      -6.149  11.267  18.059  0.00  0.00    +0.000 C 
BRANCH   6  11
ATOM      7  C   UNL     1      -5.348  12.718  21.396  0.00  0.00    +0.000 A 
ATOM      8  C   UNL     1      -6.594  12.665  22.022  0.00  0.00    +0.000 A 
ATOM      9  C   UNL     1      -7.695  12.169  21.333  0.00  0.00    +0.000 A 
ATOM     10  C   UNL     1      -7.534  11.721  20.027  0.00  0.00    +0.000 A 
ATOM     11  N   UNL     1      -6.324  11.784  19.429  0.00  0.00    +0.000 N 
ATOM     12  C   UNL     1      -5.255  12.289  20.073  0.00  0.00    +0.000 A 
BRANCH   7  18
ATOM     13  C   UNL     1      -4.438  12.418  24.406  0.00  0.00    +0.000 C 
ATOM     14  N   UNL     1      -3.662  12.312  23.171  0.00  0.00    +0.000 NA
ATOM     15  C   UNL     1      -2.259  12.675  23.403  0.00  0.00    +0.000 C 
ATOM     16  C   UNL     1      -1.717  12.877  22.000  0.00  0.00    +0.000 C 
ATOM     17  C   UNL     1      -2.915  13.328  21.173  0.00  0.00    +0.000 C 
ATOM     18  C   UNL     1      -4.121  13.232  22.115  0.00  0.00    +0.000 C 
ENDBRANCH   7  18
ENDBRANCH   6  11
ENDBRANCH   5   6
ENDBRANCH   4   5
ENDBRANCH   3   4
ENDBRANCH   2   3
ENDBRANCH   1   2
BRANCH   1  19
ATOM     19  C   UNL     1      -0.394  10.157  19.628  0.00  0.00    +0.000 C 
BRANCH  19  20
ATOM     20  C   UNL     1       0.984   9.488  19.553  0.00  0.00    +0.000 C 
BRANCH  20  21
ATOM     21  C   UNL     1       1.483   9.261  18.123  0.00  0.00    +0.000 C 
BRANCH  21  22
ATOM     22  C   UNL     1       2.162   7.901  17.992  0.00  0.00    +0.000 C 
BRANCH  22  23
ATOM     23  C   UNL     1       2.685   7.374  19.318  0.00  0.00    +0.000 C 
BRANCH  23  24
ATOM     24  C   UNL     1       1.882   6.139  19.701  0.00  0.00    +0.000 C 
BRANCH  24  25
ATOM     25  N   UNL     1       2.281   5.010  18.854  0.00  0.00    +0.000 N 
ATOM     26  C   UNL     1       1.506   3.906  18.836  0.00  0.00    +0.000 A 
ATOM     27  C   UNL     1       1.876   2.800  18.099  0.00  0.00    +0.000 A 
ATOM     28  C   UNL     1       3.076   2.830  17.395  0.00  0.00    +0.000 A 
ATOM     29  C   UNL     1       3.883   3.972  17.424  0.00  0.00    +0.000 A 
ATOM     30  C   UNL     1       3.431   5.074  18.151  0.00  0.00    +0.000 A 
BRANCH  29  31
ATOM     31  C   UNL     1       5.229   3.973  16.730  0.00  0.00    +0.000 C 
ATOM     32  C   UNL     1       5.154   4.338  15.245  0.00  0.00    +0.000 C 
ATOM     33  C   UNL     1       6.517   4.943  14.923  0.00  0.00    +0.000 C 
ATOM     34  C   UNL     1       7.242   5.037  16.257  0.00  0.00    +0.000 C 
ATOM     35  N   UNL     1       6.159   4.995  17.250  0.00  0.00    +0.000 NA
ATOM     36  C   UNL     1       6.685   4.678  18.578  0.00  0.00    +0.000 C 
ENDBRANCH  29  31
ENDBRANCH  24  25
ENDBRANCH  23  24
ENDBRANCH  22  23
ENDBRANCH  21  22
ENDBRANCH  20  21
ENDBRANCH  19  20
ENDBRANCH   1  19
TORSDOF 15
ENDMDL
MODEL 4
REMARK VINA RESULT:      -6.9      2.576     11.739
REMARK  Name = 
REMARK  17 active torsions:
REMARK  status: ('A' for Active; 'I' for Inactive)
REMARK    1  A    between atoms: C_1  and  N_2
REMARK    2  A    between atoms: C_6  and  C_7
REMARK    3  A    between atoms: N_11  and  C_12
REMARK    4  A    between atoms: C_12  and  C_13
REMARK    5  A    between atoms: C_13  and  C_14
REMARK    6  A    between atoms: C_14  and  C_15
REMARK    7  A    between atoms: C_15  and  C_16
REMARK    8  A    between atoms: C_16  and  C_17
REMARK    9  A    between atoms: C_17  and  C_18
REMARK   10  A    between atoms: C_18  and  C_19
REMARK   11  A    between atoms: C_19  and  C_20
REMARK   12  A    between atoms: C_20  and  C_21
REMARK   13  A    between atoms: C_21  and  C_22
REMARK   14  A    between atoms: C_22  and  C_23
REMARK   15  A    between atoms: C_23  and  N_24
REMARK   16  A    between atoms: C_28  and  C_29
REMARK   17  A    between atoms: N_33  and  C_34
REMARK                            x       y       z     vdW  Elec       q    Type
REMARK                         _______ _______ _______ _____ _____    ______ ____
ROOT
ATOM      1  C   UNL     1       7.796   7.423  17.725  0.00  0.00    +0.000 C 
ENDROOT
BRANCH   1   2
ATOM      2  C   UNL     1       7.775   6.188  18.633  0.00  0.00    +0.000 C 
BRANCH   2   3
ATOM      3  C   UNL     1       7.496   4.880  17.887  0.00  0.00    +0.000 C 
BRANCH   3   4
ATOM      4  C   UNL     1       7.513   5.081  16.375  0.00  0.00    +0.000 C 
BRANCH   4   5
ATOM      5  C   UNL     1       6.280   4.488  15.709  0.00  0.00    +0.000 C 
BRANCH   5   6
ATOM      6  C   UNL     1       5.266   5.589  15.441  0.00  0.00    +0.000 C 
BRANCH   6  11
ATOM      7  C   UNL     1       3.070   4.804  18.347  0.00  0.00    +0.000 A 
ATOM      8  C   UNL     1       2.788   6.083  18.828  0.00  0.00    +0.000 A 
ATOM      9  C   UNL     1       3.339   7.196  18.202  0.00  0.00    +0.000 A 
ATOM     10  C   UNL     1       4.159   7.017  17.095  0.00  0.00    +0.000 A 
ATOM     11  N   UNL     1       4.432   5.773  16.642  0.00  0.00    +0.000 N 
ATOM     12  C   UNL     1       3.929   4.684  17.255  0.00  0.00    +0.000 A 
BRANCH   7  18
ATOM     13  C   UNL     1       4.420   2.490  20.018  0.00  0.00    +0.000 C 
ATOM     14  N   UNL     1       3.161   3.199  20.236  0.00  0.00    +0.000 NA
ATOM     15  C   UNL     1       2.201   2.351  20.953  0.00  0.00    +0.000 C 
ATOM     16  C   UNL     1       0.882   3.077  20.755  0.00  0.00    +0.000 C 
ATOM     17  C   UNL     1       1.026   3.803  19.423  0.00  0.00    +0.000 C 
ATOM     18  C   UNL     1       2.477   3.569  18.984  0.00  0.00    +0.000 C 
ENDBRANCH   7  18
ENDBRANCH   6  11
ENDBRANCH   5   6
ENDBRANCH   4   5
ENDBRANCH   3   4
ENDBRANCH   2   3
ENDBRANCH   1   2
BRANCH   1  19
ATOM     19  C   UNL     1       8.172   8.714  18.461  0.00  0.00    +0.000 C 
BRANCH  19  20
ATOM     20  C   UNL     1       8.706   9.812  17.533  0.00  0.00    +0.000 C 
BRANCH  20  21
ATOM     21  C   UNL     1       8.917  11.161  18.228  0.00  0.00    +0.000 C 
BRANCH  21  22
ATOM     22  C   UNL     1      10.403  11.454  18.408  0.00  0.00    +0.000 C 
BRANCH  22  23
ATOM     23  C   UNL     1      10.823  11.494  19.868  0.00  0.00    +0.000 C 
BRANCH  23  24
ATOM     24  C   UNL     1       9.677  12.072  20.688  0.00  0.00    +0.000 C 
BRANCH  24  25
ATOM     25  N   UNL     1       9.712  13.536  20.619  0.00  0.00    +0.000 N 
ATOM     26  C   UNL     1      10.900  14.150  20.444  0.00  0.00    +0.000 A 
ATOM     27  C   UNL     1      10.985  15.527  20.433  0.00  0.00    +0.000 A 
ATOM     28  C   UNL     1       9.829  16.275  20.633  0.00  0.00    +0.000 A 
ATOM     29  C   UNL     1       8.599  15.636  20.824  0.00  0.00    +0.000 A 
ATOM     30  C   UNL     1       8.573  14.242  20.779  0.00  0.00    +0.000 A 
BRANCH  29  31
ATOM     31  C   UNL     1       7.357  16.447  21.128  0.00  0.00    +0.000 C 
ATOM     32  C   UNL     1       7.597  17.588  22.121  0.00  0.00    +0.000 C 
ATOM     33  C   UNL     1       6.536  18.631  21.781  0.00  0.00    +0.000 C 
ATOM     34  C   UNL     1       5.851  18.113  20.525  0.00  0.00    +0.000 C 
ATOM     35  N   UNL     1       6.823  17.169  19.956  0.00  0.00    +0.000 NA
ATOM     36  C   UNL     1       6.182  16.291  18.977  0.00  0.00    +0.000 C 
ENDBRANCH  29  31
ENDBRANCH  24  25
ENDBRANCH  23  24
ENDBRANCH  22  23
ENDBRANCH  21  22
ENDBRANCH  20  21
ENDBRANCH  19  20
ENDBRANCH   1  19
TORSDOF 15
ENDMDL
MODEL 5
REMARK VINA RESULT:      -6.8      5.502      8.819
REMARK  Name = 
REMARK  17 active torsions:
REMARK  status: ('A' for Active; 'I' for Inactive)
REMARK    1  A    between atoms: C_1  and  N_2
REMARK    2  A    between atoms: C_6  and  C_7
REMARK    3  A    between atoms: N_11  and  C_12
REMARK    4  A    between atoms: C_12  and  C_13
REMARK    5  A    between atoms: C_13  and  C_14
REMARK    6  A    between atoms: C_14  and  C_15
REMARK    7  A    between atoms: C_15  and  C_16
REMARK    8  A    between atoms: C_16  and  C_17
REMARK    9  A    between atoms: C_17  and  C_18
REMARK   10  A    between atoms: C_18  and  C_19
REMARK   11  A    between atoms: C_19  and  C_20
REMARK   12  A    between atoms: C_20  and  C_21
REMARK   13  A    between atoms: C_21  and  C_22
REMARK   14  A    between atoms: C_22  and  C_23
REMARK   15  A    between atoms: C_23  and  N_24
REMARK   16  A    between atoms: C_28  and  C_29
REMARK   17  A    between atoms: N_33  and  C_34
REMARK                            x       y       z     vdW  Elec       q    Type
REMARK                         _______ _______ _______ _____ _____    ______ ____
ROOT
ATOM      1  C   UNL     1      -2.885  10.845  16.536  0.00  0.00    +0.000 C 
ENDROOT
BRANCH   1   2
ATOM      2  C   UNL     1      -3.807  11.517  17.559  0.00  0.00    +0.000 C 
BRANCH   2   3
ATOM      3  C   UNL     1      -5.262  11.045  17.482  0.00  0.00    +0.000 C 
BRANCH   3   4
ATOM      4  C   UNL     1      -6.098  11.613  18.625  0.00  0.00    +0.000 C 
BRANCH   4   5
ATOM      5  C   UNL     1      -5.252  12.415  19.603  0.00  0.00    +0.000 C 
BRANCH   5   6
ATOM      6  C   UNL     1      -6.126  12.910  20.746  0.00  0.00    +0.000 C 
BRANCH   6  11
ATOM      7  C   UNL     1      -3.189  12.942  23.039  0.00  0.00    +0.000 A 
ATOM      8  C   UNL     1      -3.812  12.813  24.281  0.00  0.00    +0.000 A 
ATOM      9  C   UNL     1      -5.198  12.735  24.355  0.00  0.00    +0.000 A 
ATOM     10  C   UNL     1      -5.946  12.777  23.185  0.00  0.00    +0.000 A 
ATOM     11  N   UNL     1      -5.332  12.910  21.988  0.00  0.00    +0.000 N 
ATOM     12  C   UNL     1      -3.992  13.016  21.902  0.00  0.00    +0.000 A 
BRANCH   7  18
ATOM     13  C   UNL     1      -1.031  10.652  22.775  0.00  0.00    +0.000 C 
ATOM     14  N   UNL     1      -1.142  11.928  22.070  0.00  0.00    +0.000 NA
ATOM     15  C   UNL     1       0.178  12.408  21.645  0.00  0.00    +0.000 C 
ATOM     16  C   UNL     1      -0.078  13.862  21.294  0.00  0.00    +0.000 C 
ATOM     17  C   UNL     1      -1.239  14.286  22.185  0.00  0.00    +0.000 C 
ATOM     18  C   UNL     1      -1.685  13.011  22.910  0.00  0.00    +0.000 C 
ENDBRANCH   7  18
ENDBRANCH   6  11
ENDBRANCH   5   6
ENDBRANCH   4   5
ENDBRANCH   3   4
ENDBRANCH   2   3
ENDBRANCH   1   2
BRANCH   1  19
ATOM     19  C   UNL     1      -1.908   9.842  17.160  0.00  0.00    +0.000 C 
BRANCH  19  20
ATOM     20  C   UNL     1      -1.083  10.430  18.313  0.00  0.00    +0.000 C 
BRANCH  20  21
ATOM     21  C   UNL     1       0.419  10.501  18.023  0.00  0.00    +0.000 C 
BRANCH  21  22
ATOM     22  C   UNL     1       1.223   9.876  19.158  0.00  0.00    +0.000 C 
BRANCH  22  23
ATOM     23  C   UNL     1       1.582   8.423  18.895  0.00  0.00    +0.000 C 
BRANCH  23  24
ATOM     24  C   UNL     1       2.659   8.375  17.821  0.00  0.00    +0.000 C 
BRANCH  24  25
ATOM     25  N   UNL     1       3.450   7.148  17.971  0.00  0.00    +0.000 N 
ATOM     26  C   UNL     1       4.602   7.030  17.282  0.00  0.00    +0.000 A 
ATOM     27  C   UNL     1       5.345   5.869  17.348  0.00  0.00    +0.000 A 
ATOM     28  C   UNL     1       4.873   4.810  18.117  0.00  0.00    +0.000 A 
ATOM     29  C   UNL     1       3.671   4.931  18.824  0.00  0.00    +0.000 A 
ATOM     30  C   UNL     1       2.990   6.147  18.751  0.00  0.00    +0.000 A 
BRANCH  29  31
ATOM     31  C   UNL     1       3.114   3.750  19.589  0.00  0.00    +0.000 C 
ATOM     32  C   UNL     1       2.537   4.123  20.958  0.00  0.00    +0.000 C 
ATOM     33  C   UNL     1       1.477   3.061  21.237  0.00  0.00    +0.000 C 
ATOM     34  C   UNL     1       1.391   2.233  19.963  0.00  0.00    +0.000 C 
ATOM     35  N   UNL     1       1.955   3.115  18.931  0.00  0.00    +0.000 NA
ATOM     36  C   UNL     1       2.314   2.351  17.736  0.00  0.00    +0.000 C 
ENDBRANCH  29  31
ENDBRANCH  24  25
ENDBRANCH  23  24
ENDBRANCH  22  23
ENDBRANCH  21  22
ENDBRANCH  20  21
ENDBRANCH  19  20
ENDBRANCH   1  19
TORSDOF 15
ENDMDL
MODEL 6
REMARK VINA RESULT:      -6.7      5.260      9.408
REMARK  Name = 
REMARK  17 active torsions:
REMARK  status: ('A' for Active; 'I' for Inactive)
REMARK    1  A    between atoms: C_1  and  N_2
REMARK    2  A    between atoms: C_6  and  C_7
REMARK    3  A    between atoms: N_11  and  C_12
REMARK    4  A    between atoms: C_12  and  C_13
REMARK    5  A    between atoms: C_13  and  C_14
REMARK    6  A    between atoms: C_14  and  C_15
REMARK    7  A    between atoms: C_15  and  C_16
REMARK    8  A    between atoms: C_16  and  C_17
REMARK    9  A    between atoms: C_17  and  C_18
REMARK   10  A    between atoms: C_18  and  C_19
REMARK   11  A    between atoms: C_19  and  C_20
REMARK   12  A    between atoms: C_20  and  C_21
REMARK   13  A    between atoms: C_21  and  C_22
REMARK   14  A    between atoms: C_22  and  C_23
REMARK   15  A    between atoms: C_23  and  N_24
REMARK   16  A    between atoms: C_28  and  C_29
REMARK   17  A    between atoms: N_33  and  C_34
REMARK                            x       y       z     vdW  Elec       q    Type
REMARK                         _______ _______ _______ _____ _____    ______ ____
ROOT
ATOM      1  C   UNL     1      -2.762  11.153  16.932  0.00  0.00    +0.000 C 
ENDROOT
BRANCH   1   2
ATOM      2  C   UNL     1      -4.169  11.001  16.343  0.00  0.00    +0.000 C 
BRANCH   2   3
ATOM      3  C   UNL     1      -5.214  11.905  17.000  0.00  0.00    +0.000 C 
BRANCH   3   4
ATOM      4  C   UNL     1      -6.039  11.149  18.038  0.00  0.00    +0.000 C 
BRANCH   4   5
ATOM      5  C   UNL     1      -5.677  11.558  19.458  0.00  0.00    +0.000 C 
BRANCH   5   6
ATOM      6  C   UNL     1      -6.943  11.903  20.227  0.00  0.00    +0.000 C 
BRANCH   6  11
ATOM      7  C   UNL     1      -4.939  13.611  22.863  0.00  0.00    +0.000 A 
ATOM      8  C   UNL     1      -5.791  13.506  23.964  0.00  0.00    +0.000 A 
ATOM      9  C   UNL     1      -7.029  12.889  23.824  0.00  0.00    +0.000 A 
ATOM     10  C   UNL     1      -7.397  12.375  22.587  0.00  0.00    +0.000 A 
ATOM     11  N   UNL     1      -6.568  12.489  21.527  0.00  0.00    +0.000 N 
ATOM     12  C   UNL     1      -5.377  13.110  21.639  0.00  0.00    +0.000 A 
BRANCH   7  18
ATOM     13  C   UNL     1      -3.855  15.823  24.840  0.00  0.00    +0.000 C 
ATOM     14  N   UNL     1      -3.225  14.591  24.366  0.00  0.00    +0.000 NA
ATOM     15  C   UNL     1      -1.763  14.719  24.365  0.00  0.00    +0.000 C 
ATOM     16  C   UNL     1      -1.314  13.545  23.514  0.00  0.00    +0.000 C 
ATOM     17  C   UNL     1      -2.462  13.297  22.543  0.00  0.00    +0.000 C 
ATOM     18  C   UNL     1      -3.577  14.257  22.975  0.00  0.00    +0.000 C 
ENDBRANCH   7  18
ENDBRANCH   6  11
ENDBRANCH   5   6
ENDBRANCH   4   5
ENDBRANCH   3   4
ENDBRANCH   2   3
ENDBRANCH   1   2
BRANCH   1  19
ATOM     19  C   UNL     1      -2.452  10.142  18.042  0.00  0.00    +0.000 C 
BRANCH  19  20
ATOM     20  C   UNL     1      -1.460  10.668  19.088  0.00  0.00    +0.000 C 
BRANCH  20  21
ATOM     21  C   UNL     1      -0.220  11.334  18.483  0.00  0.00    +0.000 C 
BRANCH  21  22
ATOM     22  C   UNL     1       1.043  10.554  18.834  0.00  0.00    +0.000 C 
BRANCH  22  23
ATOM     23  C   UNL     1       1.184   9.270  18.035  0.00  0.00    +0.000 C 
BRANCH  23  24
ATOM     24  C   UNL     1       2.663   8.929  17.918  0.00  0.00    +0.000 C 
BRANCH  24  25
ATOM     25  N   UNL     1       2.890   7.557  18.384  0.00  0.00    +0.000 N 
ATOM     26  C   UNL     1       2.244   7.130  19.487  0.00  0.00    +0.000 A 
ATOM     27  C   UNL     1       2.474   5.867  19.992  0.00  0.00    +0.000 A 
ATOM     28  C   UNL     1       3.405   5.049  19.361  0.00  0.00    +0.000 A 
ATOM     29  C   UNL     1       4.083   5.497  18.223  0.00  0.00    +0.000 A 
ATOM     30  C   UNL     1       3.772   6.768  17.735  0.00  0.00    +0.000 A 
BRANCH  29  31
ATOM     31  C   UNL     1       5.159   4.642  17.588  0.00  0.00    +0.000 C 
ATOM     32  C   UNL     1       4.792   4.130  16.192  0.00  0.00    +0.000 C 
ATOM     33  C   UNL     1       6.130   3.930  15.486  0.00  0.00    +0.000 C 
ATOM     34  C   UNL     1       7.178   4.478  16.445  0.00  0.00    +0.000 C 
ATOM     35  N   UNL     1       6.415   5.373  17.326  0.00  0.00    +0.000 NA
ATOM     36  C   UNL     1       7.173   5.675  18.540  0.00  0.00    +0.000 C 
ENDBRANCH  29  31
ENDBRANCH  24  25
ENDBRANCH  23  24
ENDBRANCH  22  23
ENDBRANCH  21  22
ENDBRANCH  20  21
ENDBRANCH  19  20
ENDBRANCH   1  19
TORSDOF 15
ENDMDL
MODEL 7
REMARK VINA RESULT:      -6.7      3.167      7.514
REMARK  Name = 
REMARK  17 active torsions:
REMARK  status: ('A' for Active; 'I' for Inactive)
REMARK    1  A    between atoms: C_1  and  N_2
REMARK    2  A    between atoms: C_6  and  C_7
REMARK    3  A    between atoms: N_11  and  C_12
REMARK    4  A    between atoms: C_12  and  C_13
REMARK    5  A    between atoms: C_13  and  C_14
REMARK    6  A    between atoms: C_14  and  C_15
REMARK    7  A    between atoms: C_15  and  C_16
REMARK    8  A    between atoms: C_16  and  C_17
REMARK    9  A    between atoms: C_17  and  C_18
REMARK   10  A    between atoms: C_18  and  C_19
REMARK   11  A    between atoms: C_19  and  C_20
REMARK   12  A    between atoms: C_20  and  C_21
REMARK   13  A    between atoms: C_21  and  C_22
REMARK   14  A    between atoms: C_22  and  C_23
REMARK   15  A    between atoms: C_23  and  N_24
REMARK   16  A    between atoms: C_28  and  C_29
REMARK   17  A    between atoms: N_33  and  C_34
REMARK                            x       y       z     vdW  Elec       q    Type
REMARK                         _______ _______ _______ _____ _____    ______ ____
ROOT
ATOM      1  C   UNL     1       5.704   6.671  17.224  0.00  0.00    +0.000 C 
ENDROOT
BRANCH   1   2
ATOM      2  C   UNL     1       6.879   6.283  18.129  0.00  0.00    +0.000 C 
BRANCH   2   3
ATOM      3  C   UNL     1       7.987   7.339  18.187  0.00  0.00    +0.000 C 
BRANCH   3   4
ATOM      4  C   UNL     1       7.523   8.672  17.607  0.00  0.00    +0.000 C 
BRANCH   4   5
ATOM      5  C   UNL     1       8.489   9.801  17.935  0.00  0.00    +0.000 C 
BRANCH   5   6
ATOM      6  C   UNL     1       9.178   9.512  19.261  0.00  0.00    +0.000 C 
BRANCH   6  11
ATOM      7  C   UNL     1       9.286  12.410  21.601  0.00  0.00    +0.000 A 
ATOM      8  C   UNL     1      10.252  13.214  20.994  0.00  0.00    +0.000 A 
ATOM      9  C   UNL     1      10.875  12.786  19.827  0.00  0.00    +0.000 A 
ATOM     10  C   UNL     1      10.518  11.563  19.274  0.00  0.00    +0.000 A 
ATOM     11  N   UNL     1       9.586  10.789  19.874  0.00  0.00    +0.000 N 
ATOM     12  C   UNL     1       8.994  11.177  21.021  0.00  0.00    +0.000 A 
BRANCH   7  18
ATOM     13  C   UNL     1       7.244  14.765  22.107  0.00  0.00    +0.000 C 
ATOM     14  N   UNL     1       7.226  13.382  22.584  0.00  0.00    +0.000 NA
ATOM     15  C   UNL     1       6.510  13.278  23.861  0.00  0.00    +0.000 C 
ATOM     16  C   UNL     1       6.912  11.907  24.372  0.00  0.00    +0.000 C 
ATOM     17  C   UNL     1       8.299  11.658  23.791  0.00  0.00    +0.000 C 
ATOM     18  C   UNL     1       8.570  12.845  22.859  0.00  0.00    +0.000 C 
ENDBRANCH   7  18
ENDBRANCH   6  11
ENDBRANCH   5   6
ENDBRANCH   4   5
ENDBRANCH   3   4
ENDBRANCH   2   3
ENDBRANCH   1   2
BRANCH   1  19
ATOM     19  C   UNL     1       4.447   5.827  17.461  0.00  0.00    +0.000 C 
BRANCH  19  20
ATOM     20  C   UNL     1       3.420   6.506  18.376  0.00  0.00    +0.000 C 
BRANCH  20  21
ATOM     21  C   UNL     1       3.090   5.702  19.638  0.00  0.00    +0.000 C 
BRANCH  21  22
ATOM     22  C   UNL     1       1.861   6.270  20.340  0.00  0.00    +0.000 C 
BRANCH  22  23
ATOM     23  C   UNL     1       1.764   7.782  20.226  0.00  0.00    +0.000 C 
BRANCH  23  24
ATOM     24  C   UNL     1       0.864   8.297  21.340  0.00  0.00    +0.000 C 
BRANCH  24  25
ATOM     25  N   UNL     1       0.307   9.600  20.961  0.00  0.00    +0.000 N 
ATOM     26  C   UNL     1       0.397  10.623  21.834  0.00  0.00    +0.000 A 
ATOM     27  C   UNL     1      -0.165  11.849  21.541  0.00  0.00    +0.000 A 
ATOM     28  C   UNL     1      -0.852  12.006  20.341  0.00  0.00    +0.000 A 
ATOM     29  C   UNL     1      -0.953  10.939  19.441  0.00  0.00    +0.000 A 
ATOM     30  C   UNL     1      -0.324   9.739  19.776  0.00  0.00    +0.000 A 
BRANCH  29  31
ATOM     31  C   UNL     1      -1.773  11.083  18.176  0.00  0.00    +0.000 C 
ATOM     32  C   UNL     1      -1.524   9.970  17.154  0.00  0.00    +0.000 C 
ATOM     33  C   UNL     1      -2.822   9.876  16.357  0.00  0.00    +0.000 C 
ATOM     34  C   UNL     1      -3.792  10.818  17.054  0.00  0.00    +0.000 C 
ATOM     35  N   UNL     1      -3.228  10.972  18.402  0.00  0.00    +0.000 NA
ATOM     36  C   UNL     1      -3.801  12.137  19.075  0.00  0.00    +0.000 C 
ENDBRANCH  29  31
ENDBRANCH  24  25
ENDBRANCH  23  24
ENDBRANCH  22  23
ENDBRANCH  21  22
ENDBRANCH  20  21
ENDBRANCH  19  20
ENDBRANCH   1  19
TORSDOF 15
ENDMDL
MODEL 8
REMARK VINA RESULT:      -6.7      5.376     10.592
REMARK  Name = 
REMARK  17 active torsions:
REMARK  status: ('A' for Active; 'I' for Inactive)
REMARK    1  A    between atoms: C_1  and  N_2
REMARK    2  A    between atoms: C_6  and  C_7
REMARK    3  A    between atoms: N_11  and  C_12
REMARK    4  A    between atoms: C_12  and  C_13
REMARK    5  A    between atoms: C_13  and  C_14
REMARK    6  A    between atoms: C_14  and  C_15
REMARK    7  A    between atoms: C_15  and  C_16
REMARK    8  A    between atoms: C_16  and  C_17
REMARK    9  A    between atoms: C_17  and  C_18
REMARK   10  A    between atoms: C_18  and  C_19
REMARK   11  A    between atoms: C_19  and  C_20
REMARK   12  A    between atoms: C_20  and  C_21
REMARK   13  A    between atoms: C_21  and  C_22
REMARK   14  A    between atoms: C_22  and  C_23
REMARK   15  A    between atoms: C_23  and  N_24
REMARK   16  A    between atoms: C_28  and  C_29
REMARK   17  A    between atoms: N_33  and  C_34
REMARK                            x       y       z     vdW  Elec       q    Type
REMARK                         _______ _______ _______ _____ _____    ______ ____
ROOT
ATOM      1  C   UNL     1      -0.759  10.318  19.025  0.00  0.00    +0.000 C 
ENDROOT
BRANCH   1   2
ATOM      2  C   UNL     1      -0.409   9.758  20.408  0.00  0.00    +0.000 C 
BRANCH   2   3
ATOM      3  C   UNL     1       1.071   9.404  20.574  0.00  0.00    +0.000 C 
BRANCH   3   4
ATOM      4  C   UNL     1       1.479   8.253  19.659  0.00  0.00    +0.000 C 
BRANCH   4   5
ATOM      5  C   UNL     1       2.322   7.219  20.389  0.00  0.00    +0.000 C 
BRANCH   5   6
ATOM      6  C   UNL     1       1.617   5.871  20.354  0.00  0.00    +0.000 C 
BRANCH   6  11
ATOM      7  C   UNL     1       4.209   4.514  18.047  0.00  0.00    +0.000 A 
ATOM      8  C   UNL     1       3.495   3.506  17.397  0.00  0.00    +0.000 A 
ATOM      9  C   UNL     1       2.168   3.269  17.738  0.00  0.00    +0.000 A 
ATOM     10  C   UNL     1       1.567   4.049  18.718  0.00  0.00    +0.000 A 
ATOM     11  N   UNL     1       2.271   5.016  19.346  0.00  0.00    +0.000 N 
ATOM     12  C   UNL     1       3.565   5.240  19.047  0.00  0.00    +0.000 A 
BRANCH   7  18
ATOM     13  C   UNL     1       5.462   5.925  15.514  0.00  0.00    +0.000 C 
ATOM     14  N   UNL     1       5.785   6.073  16.933  0.00  0.00    +0.000 NA
ATOM     15  C   UNL     1       7.187   6.469  17.110  0.00  0.00    +0.000 C 
ATOM     16  C   UNL     1       7.437   6.206  18.584  0.00  0.00    +0.000 C 
ATOM     17  C   UNL     1       6.495   5.065  18.949  0.00  0.00    +0.000 C 
ATOM     18  C   UNL     1       5.647   4.819  17.694  0.00  0.00    +0.000 C 
ENDBRANCH   7  18
ENDBRANCH   6  11
ENDBRANCH   5   6
ENDBRANCH   4   5
ENDBRANCH   3   4
ENDBRANCH   2   3
ENDBRANCH   1   2
BRANCH   1  19
ATOM     19  C   UNL     1      -1.867  11.377  19.057  0.00  0.00    +0.000 C 
BRANCH  19  20
ATOM     20  C   UNL     1      -2.378  11.768  17.664  0.00  0.00    +0.000 C 
BRANCH  20  21
ATOM     21  C   UNL     1      -3.349  10.752  17.055  0.00  0.00    +0.000 C 
BRANCH  21  22
ATOM     22  C   UNL     1      -4.618  10.639  17.893  0.00  0.00    +0.000 C 
BRANCH  22  23
ATOM     23  C   UNL     1      -5.267  11.986  18.163  0.00  0.00    +0.000 C 
BRANCH  23  24
ATOM     24  C   UNL     1      -6.532  11.762  18.979  0.00  0.00    +0.000 C 
BRANCH  24  25
ATOM     25  N   UNL     1      -6.291  12.141  20.375  0.00  0.00    +0.000 N 
ATOM     26  C   UNL     1      -7.345  12.251  21.209  0.00  0.00    +0.000 A 
ATOM     27  C   UNL     1      -7.169  12.663  22.514  0.00  0.00    +0.000 A 
ATOM     28  C   UNL     1      -5.889  12.990  22.950  0.00  0.00    +0.000 A 
ATOM     29  C   UNL     1      -4.798  12.885  22.080  0.00  0.00    +0.000 A 
ATOM     30  C   UNL     1      -5.036  12.420  20.786  0.00  0.00    +0.000 A 
BRANCH  29  31
ATOM     31  C   UNL     1      -3.420  13.324  22.527  0.00  0.00    +0.000 C 
ATOM     32  C   UNL     1      -2.471  12.159  22.825  0.00  0.00    +0.000 C 
ATOM     33  C   UNL     1      -1.074  12.720  22.574  0.00  0.00    +0.000 C 
ATOM     34  C   UNL     1      -1.296  14.112  22.002  0.00  0.00    +0.000 C 
ATOM     35  N   UNL     1      -2.674  14.070  21.494  0.00  0.00    +0.000 NA
ATOM     36  C   UNL     1      -3.187  15.422  21.271  0.00  0.00    +0.000 C 
ENDBRANCH  29  31
ENDBRANCH  24  25
ENDBRANCH  23  24
ENDBRANCH  22  23
ENDBRANCH  21  22
ENDBRANCH  20  21
ENDBRANCH  19  20
ENDBRANCH   1  19
TORSDOF 15
ENDMDL
MODEL 9
REMARK VINA RESULT:      -6.5      4.663     10.529
REMARK  Name = 
REMARK  17 active torsions:
REMARK  status: ('A' for Active; 'I' for Inactive)
REMARK    1  A    between atoms: C_1  and  N_2
REMARK    2  A    between atoms: C_6  and  C_7
REMARK    3  A    between atoms: N_11  and  C_12
REMARK    4  A    between atoms: C_12  and  C_13
REMARK    5  A    between atoms: C_13  and  C_14
REMARK    6  A    between atoms: C_14  and  C_15
REMARK    7  A    between atoms: C_15  and  C_16
REMARK    8  A    between atoms: C_16  and  C_17
REMARK    9  A    between atoms: C_17  and  C_18
REMARK   10  A    between atoms: C_18  and  C_19
REMARK   11  A    between atoms: C_19  and  C_20
REMARK   12  A    between atoms: C_20  and  C_21
REMARK   13  A    between atoms: C_21  and  C_22
REMARK   14  A    between atoms: C_22  and  C_23
REMARK   15  A    between atoms: C_23  and  N_24
REMARK   16  A    between atoms: C_28  and  C_29
REMARK   17  A    between atoms: N_33  and  C_34
REMARK                            x       y       z     vdW  Elec       q    Type
REMARK                         _______ _______ _______ _____ _____    ______ ____
ROOT
ATOM      1  C   UNL     1      -0.410  12.107  19.976  0.00  0.00    +0.000 C 
ENDROOT
BRANCH   1   2
ATOM      2  C   UNL     1      -0.687  10.872  20.841  0.00  0.00    +0.000 C 
BRANCH   2   3
ATOM      3  C   UNL     1       0.010   9.602  20.345  0.00  0.00    +0.000 C 
BRANCH   3   4
ATOM      4  C   UNL     1       0.995   9.062  21.377  0.00  0.00    +0.000 C 
BRANCH   4   5
ATOM      5  C   UNL     1       1.607   7.740  20.941  0.00  0.00    +0.000 C 
BRANCH   5   6
ATOM      6  C   UNL     1       2.024   7.829  19.480  0.00  0.00    +0.000 C 
BRANCH   6  11
ATOM      7  C   UNL     1       4.275   5.506  17.630  0.00  0.00    +0.000 A 
ATOM      8  C   UNL     1       4.121   4.332  18.369  0.00  0.00    +0.000 A 
ATOM      9  C   UNL     1       3.290   4.319  19.483  0.00  0.00    +0.000 A 
ATOM     10  C   UNL     1       2.614   5.479  19.841  0.00  0.00    +0.000 A 
ATOM     11  N   UNL     1       2.776   6.612  19.124  0.00  0.00    +0.000 N 
ATOM     12  C   UNL     1       3.600   6.649  18.058  0.00  0.00    +0.000 A 
BRANCH   7  18
ATOM     13  C   UNL     1       7.214   6.592  17.234  0.00  0.00    +0.000 C 
ATOM     14  N   UNL     1       6.579   5.379  16.720  0.00  0.00    +0.000 NA
ATOM     15  C   UNL     1       7.198   4.960  15.457  0.00  0.00    +0.000 C 
ATOM     16  C   UNL     1       6.203   3.960  14.898  0.00  0.00    +0.000 C 
ATOM     17  C   UNL     1       4.849   4.402  15.442  0.00  0.00    +0.000 C 
ATOM     18  C   UNL     1       5.152   5.560  16.401  0.00  0.00    +0.000 C 
ENDBRANCH   7  18
ENDBRANCH   6  11
ENDBRANCH   5   6
ENDBRANCH   4   5
ENDBRANCH   3   4
ENDBRANCH   2   3
ENDBRANCH   1   2
BRANCH   1  19
ATOM     19  C   UNL     1       1.074  12.298  19.643  0.00  0.00    +0.000 C 
BRANCH  19  20
ATOM     20  C   UNL     1       1.374  13.628  18.939  0.00  0.00    +0.000 C 
BRANCH  20  21
ATOM     21  C   UNL     1       0.282  14.685  19.123  0.00  0.00    +0.000 C 
BRANCH  21  22
ATOM     22  C   UNL     1       0.710  15.741  20.137  0.00  0.00    +0.000 C 
BRANCH  22  23
ATOM     23  C   UNL     1       0.247  15.423  21.549  0.00  0.00    +0.000 C 
BRANCH  23  24
ATOM     24  C   UNL     1      -1.207  15.848  21.692  0.00  0.00    +0.000 C 
BRANCH  24  25
ATOM     25  N   UNL     1      -2.014  14.703  22.127  0.00  0.00    +0.000 N 
ATOM     26  C   UNL     1      -1.496  13.851  23.034  0.00  0.00    +0.000 A 
ATOM     27  C   UNL     1      -2.198  12.730  23.426  0.00  0.00    +0.000 A 
ATOM     28  C   UNL     1      -3.438  12.475  22.850  0.00  0.00    +0.000 A 
ATOM     29  C   UNL     1      -3.970  13.355  21.900  0.00  0.00    +0.000 A 
ATOM     30  C   UNL     1      -3.231  14.495  21.580  0.00  0.00    +0.000 A 
BRANCH  29  31
ATOM     31  C   UNL     1      -5.278  13.033  21.209  0.00  0.00    +0.000 C 
ATOM     32  C   UNL     1      -5.106  12.250  19.905  0.00  0.00    +0.000 C 
ATOM     33  C   UNL     1      -6.404  11.463  19.749  0.00  0.00    +0.000 C 
ATOM     34  C   UNL     1      -7.182  11.709  21.033  0.00  0.00    +0.000 C 
ATOM     35  N   UNL     1      -6.153  12.138  21.991  0.00  0.00    +0.000 NA
ATOM     36  C   UNL     1      -6.763  12.790  23.150  0.00  0.00    +0.000 C 
ENDBRANCH  29  31
ENDBRANCH  24  25
ENDBRANCH  23  24
ENDBRANCH  22  23
ENDBRANCH  21  22
ENDBRANCH  20  21
ENDBRANCH  19  20
ENDBRANCH   1  19
TORSDOF 15
ENDMDL
