MODEL 1
REMARK VINA RESULT:      -7.8      0.000      0.000
REMARK  Name = 
REMARK  14 active torsions:
REMARK  status: ('A' for Active; 'I' for Inactive)
REMARK    1  A    between atoms: C_1  and  O_2
REMARK    2  A    between atoms: O_2  and  C_3
REMARK    3  A    between atoms: C_3  and  C_5
REMARK    4  A    between atoms: C_5  and  N_6
REMARK    5  A    between atoms: C_5  and  C_31
REMARK    6  A    between atoms: C_7  and  C_9
REMARK    7  A    between atoms: C_9  and  S_10
REMARK    8  A    between atoms: S_10  and  C_11
REMARK    9  A    between atoms: C_14  and  C_15
REMARK   10  A    between atoms: C_15  and  O_16
REMARK   11  A    between atoms: O_16  and  C_17
REMARK   12  A    between atoms: N_24  and  C_25
REMARK   13  A    between atoms: C_31  and  C_32
REMARK   14  A    between atoms: C_31  and  C_33
REMARK                            x       y       z     vdW  Elec       q    Type
REMARK                         _______ _______ _______ _____ _____    ______ ____
ROOT
ATOM      1  C   UNL     1       4.114   6.882  17.621  0.00  0.00    +0.000 A 
ATOM      2  N   UNL     1       4.904   7.822  17.159  0.00  0.00    +0.000 NA
ATOM      3  N   UNL     1       6.112   7.249  16.862  0.00  0.00    +0.000 NA
ATOM      4  C   UNL     1       6.054   5.960  17.148  0.00  0.00    +0.000 A 
ATOM      5  N   UNL     1       4.782   5.654  17.649  0.00  0.00    +0.000 N 
ENDROOT
BRANCH   5   6
ATOM      6  C   UNL     1       4.292   4.367  18.030  0.00  0.00    +0.000 A 
ATOM      7  C   UNL     1       3.383   3.680  17.212  0.00  0.00    +0.000 A 
ATOM      8  C   UNL     1       2.823   2.468  17.624  0.00  0.00    +0.000 A 
ATOM      9  C   UNL     1       3.197   1.905  18.840  0.00  0.00    +0.000 A 
ATOM     10  C   UNL     1       4.134   2.551  19.640  0.00  0.00    +0.000 A 
ATOM     11  C   UNL     1       4.671   3.781  19.246  0.00  0.00    +0.000 A 
ENDBRANCH   5   6
BRANCH   1  12
ATOM     12  S   UNL     1       2.532   7.187  18.282  0.00  0.00    +0.000 S 
BRANCH  12  13
ATOM     13  C   UNL     1       2.295   8.966  17.987  0.00  0.00    +0.000 C 
BRANCH  13  15
ATOM     14  N   UNL     1       0.146  10.148  17.981  0.00  0.00    +0.000 N 
ATOM     15  C   UNL     1       1.041   9.415  18.735  0.00  0.00    +0.000 C 
ATOM     16  O   UNL     1       0.864   9.176  19.930  0.00  0.00    +0.000 OA
ATOM     17  H   UNL     1       0.256  10.168  16.972  0.00  0.00    +0.000 HD
BRANCH  14  18
ATOM     18  C   UNL     1      -1.126  10.657  18.515  0.00  0.00    +0.000 C 
BRANCH  18  19
ATOM     19  C   UNL     1      -0.997  12.104  19.047  0.00  0.00    +0.000 C 
ATOM     20  C   UNL     1      -0.952  12.131  20.579  0.00  0.00    +0.000 C 
ATOM     21  C   UNL     1       0.218  12.855  18.489  0.00  0.00    +0.000 C 
ENDBRANCH  18  19
BRANCH  18  22
ATOM     22  C   UNL     1      -2.197  10.567  17.417  0.00  0.00    +0.000 C 
ATOM     23  O   UNL     1      -2.201   9.718  16.530  0.00  0.00    +0.000 OA
BRANCH  22  25
ATOM     24  C   UNL     1      -4.299  11.405  16.769  0.00  0.00    +0.000 C 
ATOM     25  O   UNL     1      -3.102  11.581  17.532  0.00  0.00    +0.000 OA
ENDBRANCH  22  25
ENDBRANCH  18  22
ENDBRANCH  14  18
ENDBRANCH  13  15
ENDBRANCH  12  13
ENDBRANCH   1  12
BRANCH   4  26
ATOM     26  C   UNL     1       7.148   4.985  16.820  0.00  0.00    +0.000 C 
BRANCH  26  27
ATOM     27  O   UNL     1       7.648   5.344  15.530  0.00  0.00    +0.000 OA
BRANCH  27  28
ATOM     28  C   UNL     1       7.091   4.760  14.423  0.00  0.00    +0.000 A 
ATOM     29  C   UNL     1       7.593   4.786  13.122  0.00  0.00    +0.000 A 
ATOM     30  C   UNL     1       6.894   4.145  12.088  0.00  0.00    +0.000 A 
ATOM     31  C   UNL     1       5.698   3.479  12.353  0.00  0.00    +0.000 A 
ATOM     32 CL   UNL     1       4.843   2.702  11.078  0.00  0.00    +0.000 Cl
ATOM     33  C   UNL     1       5.192   3.447  13.648  0.00  0.00    +0.000 A 
ATOM     34  C   UNL     1       5.891   4.086  14.677  0.00  0.00    +0.000 A 
ENDBRANCH  27  28
ENDBRANCH  26  27
ENDBRANCH   4  26
TORSDOF 11
ENDMDL
MODEL 2
REMARK VINA RESULT:      -7.4      1.665      1.958
REMARK  Name = 
REMARK  14 active torsions:
REMARK  status: ('A' for Active; 'I' for Inactive)
REMARK    1  A    between atoms: C_1  and  O_2
REMARK    2  A    between atoms: O_2  and  C_3
REMARK    3  A    between atoms: C_3  and  C_5
REMARK    4  A    between atoms: C_5  and  N_6
REMARK    5  A    between atoms: C_5  and  C_31
REMARK    6  A    between atoms: C_7  and  C_9
REMARK    7  A    between atoms: C_9  and  S_10
REMARK    8  A    between atoms: S_10  and  C_11
REMARK    9  A    between atoms: C_14  and  C_15
REMARK   10  A    between atoms: C_15  and  O_16
REMARK   11  A    between atoms: O_16  and  C_17
REMARK   12  A    between atoms: N_24  and  C_25
REMARK   13  A    between atoms: C_31  and  C_32
REMARK   14  A    between atoms: C_31  and  C_33
REMARK                            x       y       z     vdW  Elec       q    Type
REMARK                         _______ _______ _______ _____ _____    ______ ____
ROOT
ATOM      1  C   UNL     1       2.926   6.955  18.432  0.00  0.00    +0.000 A 
ATOM      2  N   UNL     1       3.707   7.472  17.513  0.00  0.00    +0.000 NA
ATOM      3  N   UNL     1       4.456   6.459  16.980  0.00  0.00    +0.000 NA
ATOM      4  C   UNL     1       4.132   5.326  17.579  0.00  0.00    +0.000 A 
ATOM      5  N   UNL     1       3.142   5.578  18.538  0.00  0.00    +0.000 N 
ENDROOT
BRANCH   5   6
ATOM      6  C   UNL     1       2.482   4.620  19.369  0.00  0.00    +0.000 A 
ATOM      7  C   UNL     1       1.457   3.815  18.852  0.00  0.00    +0.000 A 
ATOM      8  C   UNL     1       0.740   2.949  19.681  0.00  0.00    +0.000 A 
ATOM      9  C   UNL     1       1.068   2.842  21.028  0.00  0.00    +0.000 A 
ATOM     10  C   UNL     1       2.116   3.598  21.545  0.00  0.00    +0.000 A 
ATOM     11  C   UNL     1       2.813   4.493  20.726  0.00  0.00    +0.000 A 
ENDBRANCH   5   6
BRANCH   1  12
ATOM     12  S   UNL     1       1.919   7.903  19.490  0.00  0.00    +0.000 S 
BRANCH  12  13
ATOM     13  C   UNL     1       1.414   9.300  18.441  0.00  0.00    +0.000 C 
BRANCH  13  15
ATOM     14  N   UNL     1      -0.640  10.594  18.091  0.00  0.00    +0.000 N 
ATOM     15  C   UNL     1       0.115   9.878  18.999  0.00  0.00    +0.000 C 
ATOM     16  O   UNL     1      -0.212   9.749  20.180  0.00  0.00    +0.000 OA
ATOM     17  H   UNL     1      -0.415  10.524  17.105  0.00  0.00    +0.000 HD
BRANCH  14  18
ATOM     18  C   UNL     1      -1.930  11.213  18.431  0.00  0.00    +0.000 C 
BRANCH  18  19
ATOM     19  C   UNL     1      -1.775  12.702  18.824  0.00  0.00    +0.000 C 
ATOM     20  C   UNL     1      -1.948  12.899  20.334  0.00  0.00    +0.000 C 
ATOM     21  C   UNL     1      -0.442  13.317  18.379  0.00  0.00    +0.000 C 
ENDBRANCH  18  19
BRANCH  18  22
ATOM     22  C   UNL     1      -2.887  11.054  17.239  0.00  0.00    +0.000 C 
ATOM     23  O   UNL     1      -3.928  11.690  17.106  0.00  0.00    +0.000 OA
BRANCH  22  25
ATOM     24  C   UNL     1      -2.834  10.264  15.022  0.00  0.00    +0.000 C 
ATOM     25  O   UNL     1      -2.449  10.082  16.389  0.00  0.00    +0.000 OA
ENDBRANCH  22  25
ENDBRANCH  18  22
ENDBRANCH  14  18
ENDBRANCH  13  15
ENDBRANCH  12  13
ENDBRANCH   1  12
BRANCH   4  26
ATOM     26  C   UNL     1       4.649   3.981  17.155  0.00  0.00    +0.000 C 
BRANCH  26  27
ATOM     27  O   UNL     1       6.039   4.147  16.864  0.00  0.00    +0.000 OA
BRANCH  27  28
ATOM     28  C   UNL     1       6.422   4.309  15.559  0.00  0.00    +0.000 A 
ATOM     29  C   UNL     1       7.455   5.118  15.084  0.00  0.00    +0.000 A 
ATOM     30  C   UNL     1       7.716   5.186  13.707  0.00  0.00    +0.000 A 
ATOM     31  C   UNL     1       6.950   4.447  12.807  0.00  0.00    +0.000 A 
ATOM     32 CL   UNL     1       7.273   4.542  11.120  0.00  0.00    +0.000 Cl
ATOM     33  C   UNL     1       5.920   3.635  13.272  0.00  0.00    +0.000 A 
ATOM     34  C   UNL     1       5.662   3.569  14.645  0.00  0.00    +0.000 A 
ENDBRANCH  27  28
ENDBRANCH  26  27
ENDBRANCH   4  26
TORSDOF 11
ENDMDL
MODEL 3
REMARK VINA RESULT:      -7.4      1.152      1.723
REMARK  Name = 
REMARK  14 active torsions:
REMARK  status: ('A' for Active; 'I' for Inactive)
REMARK    1  A    between atoms: C_1  and  O_2
REMARK    2  A    between atoms: O_2  and  C_3
REMARK    3  A    between atoms: C_3  and  C_5
REMARK    4  A    between atoms: C_5  and  N_6
REMARK    5  A    between atoms: C_5  and  C_31
REMARK    6  A    between atoms: C_7  and  C_9
REMARK    7  A    between atoms: C_9  and  S_10
REMARK    8  A    between atoms: S_10  and  C_11
REMARK    9  A    between atoms: C_14  and  C_15
REMARK   10  A    between atoms: C_15  and  O_16
REMARK   11  A    between atoms: O_16  and  C_17
REMARK   12  A    between atoms: N_24  and  C_25
REMARK   13  A    between atoms: C_31  and  C_32
REMARK   14  A    between atoms: C_31  and  C_33
REMARK                            x       y       z     vdW  Elec       q    Type
REMARK                         _______ _______ _______ _____ _____    ______ ____
ROOT
ATOM      1  C   UNL     1       4.097   6.781  17.754  0.00  0.00    +0.000 A 
ATOM      2  N   UNL     1       4.857   7.734  17.269  0.00  0.00    +0.000 NA
ATOM      3  N   UNL     1       6.047   7.171  16.891  0.00  0.00    +0.000 NA
ATOM      4  C   UNL     1       6.008   5.875  17.150  0.00  0.00    +0.000 A 
ATOM      5  N   UNL     1       4.767   5.555  17.716  0.00  0.00    +0.000 N 
ENDROOT
BRANCH   5   6
ATOM      6  C   UNL     1       4.301   4.258  18.095  0.00  0.00    +0.000 A 
ATOM      7  C   UNL     1       4.735   3.666  19.290  0.00  0.00    +0.000 A 
ATOM      8  C   UNL     1       4.365   2.360  19.619  0.00  0.00    +0.000 A 
ATOM      9  C   UNL     1       3.518   1.644  18.779  0.00  0.00    +0.000 A 
ATOM     10  C   UNL     1       3.039   2.235  17.615  0.00  0.00    +0.000 A 
ATOM     11  C   UNL     1       3.436   3.530  17.265  0.00  0.00    +0.000 A 
ENDBRANCH   5   6
BRANCH   1  12
ATOM     12  S   UNL     1       2.555   7.066  18.512  0.00  0.00    +0.000 S 
BRANCH  12  13
ATOM     13  C   UNL     1       1.999   8.622  17.750  0.00  0.00    +0.000 C 
BRANCH  13  15
ATOM     14  N   UNL     1       1.211  10.822  18.491  0.00  0.00    +0.000 N 
ATOM     15  C   UNL     1       1.379   9.497  18.838  0.00  0.00    +0.000 C 
ATOM     16  O   UNL     1       1.089   9.059  19.952  0.00  0.00    +0.000 OA
ATOM     17  H   UNL     1       1.303  11.089  17.517  0.00  0.00    +0.000 HD
BRANCH  14  18
ATOM     18  C   UNL     1       0.615  11.819  19.394  0.00  0.00    +0.000 C 
BRANCH  18  19
ATOM     19  C   UNL     1       1.387  13.161  19.369  0.00  0.00    +0.000 C 
ATOM     20  C   UNL     1       2.150  13.338  18.052  0.00  0.00    +0.000 C 
ATOM     21  C   UNL     1       0.496  14.385  19.610  0.00  0.00    +0.000 C 
ENDBRANCH  18  19
BRANCH  18  22
ATOM     22  C   UNL     1      -0.858  12.023  19.007  0.00  0.00    +0.000 C 
ATOM     23  O   UNL     1      -1.234  12.328  17.879  0.00  0.00    +0.000 OA
BRANCH  22  25
ATOM     24  C   UNL     1      -2.921  12.564  20.000  0.00  0.00    +0.000 C 
ATOM     25  O   UNL     1      -1.673  11.871  20.089  0.00  0.00    +0.000 OA
ENDBRANCH  22  25
ENDBRANCH  18  22
ENDBRANCH  14  18
ENDBRANCH  13  15
ENDBRANCH  12  13
ENDBRANCH   1  12
BRANCH   4  26
ATOM     26  C   UNL     1       7.082   4.911  16.737  0.00  0.00    +0.000 C 
BRANCH  26  27
ATOM     27  O   UNL     1       7.529   5.320  15.442  0.00  0.00    +0.000 OA
BRANCH  27  28
ATOM     28  C   UNL     1       6.972   4.729  14.338  0.00  0.00    +0.000 A 
ATOM     29  C   UNL     1       7.533   4.640  13.065  0.00  0.00    +0.000 A 
ATOM     30  C   UNL     1       6.826   4.010  12.030  0.00  0.00    +0.000 A 
ATOM     31  C   UNL     1       5.564   3.467  12.267  0.00  0.00    +0.000 A 
ATOM     32 CL   UNL     1       4.701   2.702  10.990  0.00  0.00    +0.000 Cl
ATOM     33  C   UNL     1       4.999   3.549  13.535  0.00  0.00    +0.000 A 
ATOM     34  C   UNL     1       5.705   4.177  14.565  0.00  0.00    +0.000 A 
ENDBRANCH  27  28
ENDBRANCH  26  27
ENDBRANCH   4  26
TORSDOF 11
ENDMDL
MODEL 4
REMARK VINA RESULT:      -7.3      4.967      7.555
REMARK  Name = 
REMARK  14 active torsions:
REMARK  status: ('A' for Active; 'I' for Inactive)
REMARK    1  A    between atoms: C_1  and  O_2
REMARK    2  A    between atoms: O_2  and  C_3
REMARK    3  A    between atoms: C_3  and  C_5
REMARK    4  A    between atoms: C_5  and  N_6
REMARK    5  A    between atoms: C_5  and  C_31
REMARK    6  A    between atoms: C_7  and  C_9
REMARK    7  A    between atoms: C_9  and  S_10
REMARK    8  A    between atoms: S_10  and  C_11
REMARK    9  A    between atoms: C_14  and  C_15
REMARK   10  A    between atoms: C_15  and  O_16
REMARK   11  A    between atoms: O_16  and  C_17
REMARK   12  A    between atoms: N_24  and  C_25
REMARK   13  A    between atoms: C_31  and  C_32
REMARK   14  A    between atoms: C_31  and  C_33
REMARK                            x       y       z     vdW  Elec       q    Type
REMARK                         _______ _______ _______ _____ _____    ______ ____
ROOT
ATOM      1  C   UNL     1       7.083   5.975  17.500  0.00  0.00    +0.000 A 
ATOM      2  N   UNL     1       7.795   5.150  16.768  0.00  0.00    +0.000 NA
ATOM      3  N   UNL     1       6.934   4.270  16.170  0.00  0.00    +0.000 NA
ATOM      4  C   UNL     1       5.699   4.560  16.542  0.00  0.00    +0.000 A 
ATOM      5  N   UNL     1       5.725   5.659  17.411  0.00  0.00    +0.000 N 
ENDROOT
BRANCH   5   6
ATOM      6  C   UNL     1       4.602   6.319  18.000  0.00  0.00    +0.000 A 
ATOM      7  C   UNL     1       4.071   5.870  19.218  0.00  0.00    +0.000 A 
ATOM      8  C   UNL     1       2.915   6.445  19.751  0.00  0.00    +0.000 A 
ATOM      9  C   UNL     1       2.299   7.506  19.095  0.00  0.00    +0.000 A 
ATOM     10  C   UNL     1       2.841   7.994  17.911  0.00  0.00    +0.000 A 
ATOM     11  C   UNL     1       3.979   7.398  17.357  0.00  0.00    +0.000 A 
ENDBRANCH   5   6
BRANCH   1  12
ATOM     12  S   UNL     1       7.776   7.159  18.573  0.00  0.00    +0.000 S 
BRANCH  12  13
ATOM     13  C   UNL     1       7.966   8.623  17.510  0.00  0.00    +0.000 C 
BRANCH  13  15
ATOM     14  N   UNL     1       8.542  10.994  17.752  0.00  0.00    +0.000 N 
ATOM     15  C   UNL     1       8.580   9.747  18.343  0.00  0.00    +0.000 C 
ATOM     16  O   UNL     1       9.105   9.545  19.439  0.00  0.00    +0.000 OA
ATOM     17  H   UNL     1       7.953  11.133  16.938  0.00  0.00    +0.000 HD
BRANCH  14  18
ATOM     18  C   UNL     1       9.067  12.206  18.401  0.00  0.00    +0.000 C 
BRANCH  18  19
ATOM     19  C   UNL     1      10.418  12.652  17.792  0.00  0.00    +0.000 C 
ATOM     20  C   UNL     1      11.137  13.651  18.707  0.00  0.00    +0.000 C 
ATOM     21  C   UNL     1      11.361  11.486  17.472  0.00  0.00    +0.000 C 
ENDBRANCH  18  19
BRANCH  18  22
ATOM     22  C   UNL     1       8.017  13.322  18.291  0.00  0.00    +0.000 C 
ATOM     23  O   UNL     1       7.311  13.505  17.304  0.00  0.00    +0.000 OA
BRANCH  22  25
ATOM     24  C   UNL     1       6.868  14.946  19.550  0.00  0.00    +0.000 C 
ATOM     25  O   UNL     1       8.016  14.103  19.409  0.00  0.00    +0.000 OA
ENDBRANCH  22  25
ENDBRANCH  18  22
ENDBRANCH  14  18
ENDBRANCH  13  15
ENDBRANCH  12  13
ENDBRANCH   1  12
BRANCH   4  26
ATOM     26  C   UNL     1       4.479   3.894  15.972  0.00  0.00    +0.000 C 
BRANCH  26  27
ATOM     27  O   UNL     1       4.320   2.657  16.671  0.00  0.00    +0.000 OA
BRANCH  27  28
ATOM     28  C   UNL     1       3.672   2.662  17.878  0.00  0.00    +0.000 A 
ATOM     29  C   UNL     1       4.220   2.357  19.124  0.00  0.00    +0.000 A 
ATOM     30  C   UNL     1       3.415   2.397  20.272  0.00  0.00    +0.000 A 
ATOM     31  C   UNL     1       2.068   2.742  20.177  0.00  0.00    +0.000 A 
ATOM     32 CL   UNL     1       1.087   2.780  21.591  0.00  0.00    +0.000 Cl
ATOM     33  C   UNL     1       1.514   3.050  18.939  0.00  0.00    +0.000 A 
ATOM     34  C   UNL     1       2.318   3.010  17.796  0.00  0.00    +0.000 A 
ENDBRANCH  27  28
ENDBRANCH  26  27
ENDBRANCH   4  26
TORSDOF 11
ENDMDL
MODEL 5
REMARK VINA RESULT:      -7.3      3.827      9.687
REMARK  Name = 
REMARK  14 active torsions:
REMARK  status: ('A' for Active; 'I' for Inactive)
REMARK    1  A    between atoms: C_1  and  O_2
REMARK    2  A    between atoms: O_2  and  C_3
REMARK    3  A    between atoms: C_3  and  C_5
REMARK    4  A    between atoms: C_5  and  N_6
REMARK    5  A    between atoms: C_5  and  C_31
REMARK    6  A    between atoms: C_7  and  C_9
REMARK    7  A    between atoms: C_9  and  S_10
REMARK    8  A    between atoms: S_10  and  C_11
REMARK    9  A    between atoms: C_14  and  C_15
REMARK   10  A    between atoms: C_15  and  O_16
REMARK   11  A    between atoms: O_16  and  C_17
REMARK   12  A    between atoms: N_24  and  C_25
REMARK   13  A    between atoms: C_31  and  C_32
REMARK   14  A    between atoms: C_31  and  C_33
REMARK                            x       y       z     vdW  Elec       q    Type
REMARK                         _______ _______ _______ _____ _____    ______ ____
ROOT
ATOM      1  C   UNL     1       2.430   7.120  19.141  0.00  0.00    +0.000 A 
ATOM      2  N   UNL     1       2.857   7.259  17.908  0.00  0.00    +0.000 NA
ATOM      3  N   UNL     1       2.475   8.498  17.469  0.00  0.00    +0.000 NA
ATOM      4  C   UNL     1       1.812   9.109  18.436  0.00  0.00    +0.000 A 
ATOM      5  N   UNL     1       1.744   8.266  19.553  0.00  0.00    +0.000 N 
ENDROOT
BRANCH   5   6
ATOM      6  C   UNL     1       1.159   8.562  20.823  0.00  0.00    +0.000 A 
ATOM      7  C   UNL     1      -0.206   8.336  21.048  0.00  0.00    +0.000 A 
ATOM      8  C   UNL     1      -0.806   8.716  22.251  0.00  0.00    +0.000 A 
ATOM      9  C   UNL     1      -0.040   9.285  23.263  0.00  0.00    +0.000 A 
ATOM     10  C   UNL     1       1.326   9.471  23.073  0.00  0.00    +0.000 A 
ATOM     11  C   UNL     1       1.923   9.123  21.856  0.00  0.00    +0.000 A 
ENDBRANCH   5   6
BRANCH   1  12
ATOM     12  S   UNL     1       2.543   5.632  20.040  0.00  0.00    +0.000 S 
BRANCH  12  13
ATOM     13  C   UNL     1       2.480   4.358  18.745  0.00  0.00    +0.000 C 
BRANCH  13  15
ATOM     14  N   UNL     1       4.409   4.618  17.253  0.00  0.00    +0.000 N 
ATOM     15  C   UNL     1       3.912   3.979  18.371  0.00  0.00    +0.000 C 
ATOM     16  O   UNL     1       4.556   3.136  18.996  0.00  0.00    +0.000 OA
ATOM     17  H   UNL     1       3.907   5.419  16.883  0.00  0.00    +0.000 HD
BRANCH  14  18
ATOM     18  C   UNL     1       5.771   4.402  16.743  0.00  0.00    +0.000 C 
BRANCH  18  19
ATOM     19  C   UNL     1       5.934   4.904  15.288  0.00  0.00    +0.000 C 
ATOM     20  C   UNL     1       7.410   4.941  14.875  0.00  0.00    +0.000 C 
ATOM     21  C   UNL     1       5.138   4.085  14.265  0.00  0.00    +0.000 C 
ENDBRANCH  18  19
BRANCH  18  22
ATOM     22  C   UNL     1       6.769   5.097  17.682  0.00  0.00    +0.000 C 
ATOM     23  O   UNL     1       7.674   4.515  18.274  0.00  0.00    +0.000 OA
BRANCH  22  25
ATOM     24  C   UNL     1       7.620   7.290  17.772  0.00  0.00    +0.000 C 
ATOM     25  O   UNL     1       6.481   6.425  17.804  0.00  0.00    +0.000 OA
ENDBRANCH  22  25
ENDBRANCH  18  22
ENDBRANCH  14  18
ENDBRANCH  13  15
ENDBRANCH  12  13
ENDBRANCH   1  12
BRANCH   4  26
ATOM     26  C   UNL     1       1.364  10.540  18.363  0.00  0.00    +0.000 C 
BRANCH  26  27
ATOM     27  O   UNL     1      -0.059  10.520  18.219  0.00  0.00    +0.000 OA
BRANCH  27  28
ATOM     28  C   UNL     1      -0.817  11.264  19.083  0.00  0.00    +0.000 A 
ATOM     29  C   UNL     1      -0.393  11.857  20.272  0.00  0.00    +0.000 A 
ATOM     30  C   UNL     1      -1.301  12.583  21.057  0.00  0.00    +0.000 A 
ATOM     31  C   UNL     1      -2.629  12.718  20.655  0.00  0.00    +0.000 A 
ATOM     32 CL   UNL     1      -3.738  13.603  21.629  0.00  0.00    +0.000 Cl
ATOM     33  C   UNL     1      -3.060  12.132  19.470  0.00  0.00    +0.000 A 
ATOM     34  C   UNL     1      -2.153  11.410  18.689  0.00  0.00    +0.000 A 
ENDBRANCH  27  28
ENDBRANCH  26  27
ENDBRANCH   4  26
TORSDOF 11
ENDMDL
MODEL 6
REMARK VINA RESULT:      -7.2      1.264      2.190
REMARK  Name = 
REMARK  14 active torsions:
REMARK  status: ('A' for Active; 'I' for Inactive)
REMARK    1  A    between atoms: C_1  and  O_2
REMARK    2  A    between atoms: O_2  and  C_3
REMARK    3  A    between atoms: C_3  and  C_5
REMARK    4  A    between atoms: C_5  and  N_6
REMARK    5  A    between atoms: C_5  and  C_31
REMARK    6  A    between atoms: C_7  and  C_9
REMARK    7  A    between atoms: C_9  and  S_10
REMARK    8  A    between atoms: S_10  and  C_11
REMARK    9  A    between atoms: C_14  and  C_15
REMARK   10  A    between atoms: C_15  and  O_16
REMARK   11  A    between atoms: O_16  and  C_17
REMARK   12  A    between atoms: N_24  and  C_25
REMARK   13  A    between atoms: C_31  and  C_32
REMARK   14  A    between atoms: C_31  and  C_33
REMARK                            x       y       z     vdW  Elec       q    Type
REMARK                         _______ _______ _______ _____ _____    ______ ____
ROOT
ATOM      1  C   UNL     1       3.711   6.643  17.637  0.00  0.00    +0.000 A 
ATOM      2  N   UNL     1       4.404   7.656  17.172  0.00  0.00    +0.000 NA
ATOM      3  N   UNL     1       5.678   7.216  16.928  0.00  0.00    +0.000 NA
ATOM      4  C   UNL     1       5.757   5.936  17.248  0.00  0.00    +0.000 A 
ATOM      5  N   UNL     1       4.512   5.501  17.720  0.00  0.00    +0.000 N 
ENDROOT
BRANCH   5   6
ATOM      6  C   UNL     1       4.157   4.176  18.123  0.00  0.00    +0.000 A 
ATOM      7  C   UNL     1       4.672   3.630  19.308  0.00  0.00    +0.000 A 
ATOM      8  C   UNL     1       4.412   2.303  19.658  0.00  0.00    +0.000 A 
ATOM      9  C   UNL     1       3.596   1.517  18.851  0.00  0.00    +0.000 A 
ATOM     10  C   UNL     1       3.038   2.059  17.698  0.00  0.00    +0.000 A 
ATOM     11  C   UNL     1       3.325   3.377  17.327  0.00  0.00    +0.000 A 
ENDBRANCH   5   6
BRANCH   1  12
ATOM     12  S   UNL     1       2.084   6.783  18.243  0.00  0.00    +0.000 S 
BRANCH  12  13
ATOM     13  C   UNL     1       2.151   8.285  19.268  0.00  0.00    +0.000 C 
BRANCH  13  15
ATOM     14  N   UNL     1       0.229   9.789  19.023  0.00  0.00    +0.000 N 
ATOM     15  C   UNL     1       1.456   9.415  18.511  0.00  0.00    +0.000 C 
ATOM     16  O   UNL     1       1.937   9.925  17.499  0.00  0.00    +0.000 OA
ATOM     17  H   UNL     1      -0.037   9.461  19.946  0.00  0.00    +0.000 HD
BRANCH  14  18
ATOM     18  C   UNL     1      -0.587  10.868  18.447  0.00  0.00    +0.000 C 
BRANCH  18  19
ATOM     19  C   UNL     1      -2.034  10.407  18.148  0.00  0.00    +0.000 C 
ATOM     20  C   UNL     1      -3.023  11.573  18.262  0.00  0.00    +0.000 C 
ATOM     21  C   UNL     1      -2.193   9.736  16.779  0.00  0.00    +0.000 C 
ENDBRANCH  18  19
BRANCH  18  22
ATOM     22  C   UNL     1      -0.577  12.066  19.409  0.00  0.00    +0.000 C 
ATOM     23  O   UNL     1      -0.268  13.208  19.080  0.00  0.00    +0.000 OA
BRANCH  22  25
ATOM     24  C   UNL     1      -0.244  12.407  21.714  0.00  0.00    +0.000 C 
ATOM     25  O   UNL     1      -0.904  11.678  20.675  0.00  0.00    +0.000 OA
ENDBRANCH  22  25
ENDBRANCH  18  22
ENDBRANCH  14  18
ENDBRANCH  13  15
ENDBRANCH  12  13
ENDBRANCH   1  12
BRANCH   4  26
ATOM     26  C   UNL     1       6.963   5.083  16.980  0.00  0.00    +0.000 C 
BRANCH  26  27
ATOM     27  O   UNL     1       7.474   5.480  15.705  0.00  0.00    +0.000 OA
BRANCH  27  28
ATOM     28  C   UNL     1       7.010   4.842  14.585  0.00  0.00    +0.000 A 
ATOM     29  C   UNL     1       7.553   4.904  13.302  0.00  0.00    +0.000 A 
ATOM     30  C   UNL     1       6.950   4.197  12.250  0.00  0.00    +0.000 A 
ATOM     31  C   UNL     1       5.809   3.430  12.480  0.00  0.00    +0.000 A 
ATOM     32 CL   UNL     1       5.071   2.574  11.182  0.00  0.00    +0.000 Cl
ATOM     33  C   UNL     1       5.262   3.361  13.757  0.00  0.00    +0.000 A 
ATOM     34  C   UNL     1       5.865   4.066  14.803  0.00  0.00    +0.000 A 
ENDBRANCH  27  28
ENDBRANCH  26  27
ENDBRANCH   4  26
TORSDOF 11
ENDMDL
MODEL 7
REMARK VINA RESULT:      -7.2      2.255      3.292
REMARK  Name = 
REMARK  14 active torsions:
REMARK  status: ('A' for Active; 'I' for Inactive)
REMARK    1  A    between atoms: C_1  and  O_2
REMARK    2  A    between atoms: O_2  and  C_3
REMARK    3  A    between atoms: C_3  and  C_5
REMARK    4  A    between atoms: C_5  and  N_6
REMARK    5  A    between atoms: C_5  and  C_31
REMARK    6  A    between atoms: C_7  and  C_9
REMARK    7  A    between atoms: C_9  and  S_10
REMARK    8  A    between atoms: S_10  and  C_11
REMARK    9  A    between atoms: C_14  and  C_15
REMARK   10  A    between atoms: C_15  and  O_16
REMARK   11  A    between atoms: O_16  and  C_17
REMARK   12  A    between atoms: N_24  and  C_25
REMARK   13  A    between atoms: C_31  and  C_32
REMARK   14  A    between atoms: C_31  and  C_33
REMARK                            x       y       z     vdW  Elec       q    Type
REMARK                         _______ _______ _______ _____ _____    ______ ____
ROOT
ATOM      1  C   UNL     1       2.719   7.207  18.487  0.00  0.00    +0.000 A 
ATOM      2  N   UNL     1       3.544   7.729  17.610  0.00  0.00    +0.000 NA
ATOM      3  N   UNL     1       4.393   6.740  17.191  0.00  0.00    +0.000 NA
ATOM      4  C   UNL     1       4.083   5.617  17.817  0.00  0.00    +0.000 A 
ATOM      5  N   UNL     1       3.003   5.852  18.678  0.00  0.00    +0.000 N 
ENDROOT
BRANCH   5   6
ATOM      6  C   UNL     1       2.331   4.894  19.499  0.00  0.00    +0.000 A 
ATOM      7  C   UNL     1       2.684   4.740  20.848  0.00  0.00    +0.000 A 
ATOM      8  C   UNL     1       2.103   3.739  21.630  0.00  0.00    +0.000 A 
ATOM      9  C   UNL     1       1.128   2.908  21.088  0.00  0.00    +0.000 A 
ATOM     10  C   UNL     1       0.732   3.082  19.765  0.00  0.00    +0.000 A 
ATOM     11  C   UNL     1       1.337   4.060  18.969  0.00  0.00    +0.000 A 
ENDBRANCH   5   6
BRANCH   1  12
ATOM     12  S   UNL     1       1.574   8.140  19.411  0.00  0.00    +0.000 S 
BRANCH  12  13
ATOM     13  C   UNL     1       0.773   9.179  18.151  0.00  0.00    +0.000 C 
BRANCH  13  15
ATOM     14  N   UNL     1       0.217  10.356  20.230  0.00  0.00    +0.000 N 
ATOM     15  C   UNL     1       0.127  10.373  18.852  0.00  0.00    +0.000 C 
ATOM     16  O   UNL     1      -0.464  11.260  18.235  0.00  0.00    +0.000 OA
ATOM     17  H   UNL     1       0.856   9.703  20.671  0.00  0.00    +0.000 HD
BRANCH  14  18
ATOM     18  C   UNL     1      -0.327  11.424  21.083  0.00  0.00    +0.000 C 
BRANCH  18  19
ATOM     19  C   UNL     1      -0.506  10.961  22.549  0.00  0.00    +0.000 C 
ATOM     20  C   UNL     1      -1.825  11.475  23.137  0.00  0.00    +0.000 C 
ATOM     21  C   UNL     1      -0.427   9.440  22.726  0.00  0.00    +0.000 C 
ENDBRANCH  18  19
BRANCH  18  22
ATOM     22  C   UNL     1       0.598  12.647  20.999  0.00  0.00    +0.000 C 
ATOM     23  O   UNL     1       1.781  12.637  21.326  0.00  0.00    +0.000 OA
BRANCH  22  25
ATOM     24  C   UNL     1       0.611  14.541  19.600  0.00  0.00    +0.000 C 
ATOM     25  O   UNL     1      -0.084  13.747  20.566  0.00  0.00    +0.000 OA
ENDBRANCH  22  25
ENDBRANCH  18  22
ENDBRANCH  14  18
ENDBRANCH  13  15
ENDBRANCH  12  13
ENDBRANCH   1  12
BRANCH   4  26
ATOM     26  C   UNL     1       4.709   4.289  17.504  0.00  0.00    +0.000 C 
BRANCH  26  27
ATOM     27  O   UNL     1       6.009   4.560  16.973  0.00  0.00    +0.000 OA
BRANCH  27  28
ATOM     28  C   UNL     1       6.201   4.458  15.621  0.00  0.00    +0.000 A 
ATOM     29  C   UNL     1       5.425   3.732  14.718  0.00  0.00    +0.000 A 
ATOM     30  C   UNL     1       5.762   3.718  13.356  0.00  0.00    +0.000 A 
ATOM     31  C   UNL     1       6.870   4.430  12.897  0.00  0.00    +0.000 A 
ATOM     32 CL   UNL     1       7.281   4.401  11.226  0.00  0.00    +0.000 Cl
ATOM     33  C   UNL     1       7.647   5.159  13.790  0.00  0.00    +0.000 A 
ATOM     34  C   UNL     1       7.309   5.171  15.147  0.00  0.00    +0.000 A 
ENDBRANCH  27  28
ENDBRANCH  26  27
ENDBRANCH   4  26
TORSDOF 11
ENDMDL
MODEL 8
REMARK VINA RESULT:      -7.2      1.551      2.415
REMARK  Name = 
REMARK  14 active torsions:
REMARK  status: ('A' for Active; 'I' for Inactive)
REMARK    1  A    between atoms: C_1  and  O_2
REMARK    2  A    between atoms: O_2  and  C_3
REMARK    3  A    between atoms: C_3  and  C_5
REMARK    4  A    between atoms: C_5  and  N_6
REMARK    5  A    between atoms: C_5  and  C_31
REMARK    6  A    between atoms: C_7  and  C_9
REMARK    7  A    between atoms: C_9  and  S_10
REMARK    8  A    between atoms: S_10  and  C_11
REMARK    9  A    between atoms: C_14  and  C_15
REMARK   10  A    between atoms: C_15  and  O_16
REMARK   11  A    between atoms: O_16  and  C_17
REMARK   12  A    between atoms: N_24  and  C_25
REMARK   13  A    between atoms: C_31  and  C_32
REMARK   14  A    between atoms: C_31  and  C_33
REMARK                            x       y       z     vdW  Elec       q    Type
REMARK                         _______ _______ _______ _____ _____    ______ ____
ROOT
ATOM      1  C   UNL     1       4.175   6.968  17.754  0.00  0.00    +0.000 A 
ATOM      2  N   UNL     1       5.004   7.886  17.316  0.00  0.00    +0.000 NA
ATOM      3  N   UNL     1       6.172   7.264  16.964  0.00  0.00    +0.000 NA
ATOM      4  C   UNL     1       6.051   5.968  17.192  0.00  0.00    +0.000 A 
ATOM      5  N   UNL     1       4.776   5.707  17.710  0.00  0.00    +0.000 N 
ENDROOT
BRANCH   5   6
ATOM      6  C   UNL     1       4.225   4.431  18.044  0.00  0.00    +0.000 A 
ATOM      7  C   UNL     1       3.279   3.822  17.207  0.00  0.00    +0.000 A 
ATOM      8  C   UNL     1       2.662   2.624  17.576  0.00  0.00    +0.000 A 
ATOM      9  C   UNL     1       3.016   1.995  18.765  0.00  0.00    +0.000 A 
ATOM     10  C   UNL     1       3.989   2.562  19.582  0.00  0.00    +0.000 A 
ATOM     11  C   UNL     1       4.583   3.779  19.233  0.00  0.00    +0.000 A 
ENDBRANCH   5   6
BRANCH   1  12
ATOM     12  S   UNL     1       2.627   7.325  18.468  0.00  0.00    +0.000 S 
BRANCH  12  13
ATOM     13  C   UNL     1       2.091   8.815  17.573  0.00  0.00    +0.000 C 
BRANCH  13  15
ATOM     14  N   UNL     1       1.172   9.717  19.660  0.00  0.00    +0.000 N 
ATOM     15  C   UNL     1       0.920   9.438  18.332  0.00  0.00    +0.000 C 
ATOM     16  O   UNL     1      -0.176   9.637  17.806  0.00  0.00    +0.000 OA
ATOM     17  H   UNL     1       2.130   9.695  19.993  0.00  0.00    +0.000 HD
BRANCH  14  18
ATOM     18  C   UNL     1       0.179  10.333  20.553  0.00  0.00    +0.000 C 
BRANCH  18  19
ATOM     19  C   UNL     1       0.004   9.534  21.868  0.00  0.00    +0.000 C 
ATOM     20  C   UNL     1       1.361   9.165  22.477  0.00  0.00    +0.000 C 
ATOM     21  C   UNL     1      -0.846  10.261  22.918  0.00  0.00    +0.000 C 
ENDBRANCH  18  19
BRANCH  18  22
ATOM     22  C   UNL     1       0.600  11.782  20.840  0.00  0.00    +0.000 C 
ATOM     23  O   UNL     1       0.423  12.348  21.915  0.00  0.00    +0.000 OA
BRANCH  22  25
ATOM     24  C   UNL     1       0.214  13.079  18.914  0.00  0.00    +0.000 C 
ATOM     25  O   UNL     1       1.144  12.362  19.732  0.00  0.00    +0.000 OA
ENDBRANCH  22  25
ENDBRANCH  18  22
ENDBRANCH  14  18
ENDBRANCH  13  15
ENDBRANCH  12  13
ENDBRANCH   1  12
BRANCH   4  26
ATOM     26  C   UNL     1       7.083   4.952  16.793  0.00  0.00    +0.000 C 
BRANCH  26  27
ATOM     27  O   UNL     1       7.564   5.338  15.503  0.00  0.00    +0.000 OA
BRANCH  27  28
ATOM     28  C   UNL     1       7.013   4.753  14.394  0.00  0.00    +0.000 A 
ATOM     29  C   UNL     1       7.555   4.719  13.109  0.00  0.00    +0.000 A 
ATOM     30  C   UNL     1       6.856   4.087  12.070  0.00  0.00    +0.000 A 
ATOM     31  C   UNL     1       5.621   3.488  12.314  0.00  0.00    +0.000 A 
ATOM     32 CL   UNL     1       4.767   2.721  11.031  0.00  0.00    +0.000 Cl
ATOM     33  C   UNL     1       5.075   3.515  13.592  0.00  0.00    +0.000 A 
ATOM     34  C   UNL     1       5.773   4.146  14.626  0.00  0.00    +0.000 A 
ENDBRANCH  27  28
ENDBRANCH  26  27
ENDBRANCH   4  26
TORSDOF 11
ENDMDL
MODEL 9
REMARK VINA RESULT:      -7.2      2.312      3.193
REMARK  Name = 
REMARK  14 active torsions:
REMARK  status: ('A' for Active; 'I' for Inactive)
REMARK    1  A    between atoms: C_1  and  O_2
REMARK    2  A    between atoms: O_2  and  C_3
REMARK    3  A    between atoms: C_3  and  C_5
REMARK    4  A    between atoms: C_5  and  N_6
REMARK    5  A    between atoms: C_5  and  C_31
REMARK    6  A    between atoms: C_7  and  C_9
REMARK    7  A    between atoms: C_9  and  S_10
REMARK    8  A    between atoms: S_10  and  C_11
REMARK    9  A    between atoms: C_14  and  C_15
REMARK   10  A    between atoms: C_15  and  O_16
REMARK   11  A    between atoms: O_16  and  C_17
REMARK   12  A    between atoms: N_24  and  C_25
REMARK   13  A    between atoms: C_31  and  C_32
REMARK   14  A    between atoms: C_31  and  C_33
REMARK                            x       y       z     vdW  Elec       q    Type
REMARK                         _______ _______ _______ _____ _____    ______ ____
ROOT
ATOM      1  C   UNL     1       2.864   7.271  18.152  0.00  0.00    +0.000 A 
ATOM      2  N   UNL     1       3.864   7.882  17.563  0.00  0.00    +0.000 NA
ATOM      3  N   UNL     1       4.945   7.042  17.591  0.00  0.00    +0.000 NA
ATOM      4  C   UNL     1       4.600   5.922  18.202  0.00  0.00    +0.000 A 
ATOM      5  N   UNL     1       3.258   6.006  18.595  0.00  0.00    +0.000 N 
ENDROOT
BRANCH   5   6
ATOM      6  C   UNL     1       2.483   4.992  19.240  0.00  0.00    +0.000 A 
ATOM      7  C   UNL     1       2.518   4.848  20.634  0.00  0.00    +0.000 A 
ATOM      8  C   UNL     1       1.844   3.798  21.263  0.00  0.00    +0.000 A 
ATOM      9  C   UNL     1       1.089   2.904  20.510  0.00  0.00    +0.000 A 
ATOM     10  C   UNL     1       1.005   3.064  19.131  0.00  0.00    +0.000 A 
ATOM     11  C   UNL     1       1.707   4.093  18.495  0.00  0.00    +0.000 A 
ENDBRANCH   5   6
BRANCH   1  12
ATOM     12  S   UNL     1       1.335   8.031  18.495  0.00  0.00    +0.000 S 
BRANCH  12  13
ATOM     13  C   UNL     1       1.656   9.787  18.146  0.00  0.00    +0.000 C 
BRANCH  13  15
ATOM     14  N   UNL     1       0.772  10.685  20.249  0.00  0.00    +0.000 N 
ATOM     15  C   UNL     1       0.610  10.623  18.880  0.00  0.00    +0.000 C 
ATOM     16  O   UNL     1      -0.329  11.167  18.296  0.00  0.00    +0.000 OA
ATOM     17  H   UNL     1       1.647  10.368  20.654  0.00  0.00    +0.000 HD
BRANCH  14  18
ATOM     18  C   UNL     1      -0.121  11.453  21.130  0.00  0.00    +0.000 C 
BRANCH  18  19
ATOM     19  C   UNL     1      -0.324  10.760  22.499  0.00  0.00    +0.000 C 
ATOM     20  C   UNL     1      -1.623  11.222  23.169  0.00  0.00    +0.000 C 
ATOM     21  C   UNL     1      -0.310   9.229  22.419  0.00  0.00    +0.000 C 
ENDBRANCH  18  19
BRANCH  18  22
ATOM     22  C   UNL     1       0.453  12.867  21.308  0.00  0.00    +0.000 C 
ATOM     23  O   UNL     1       1.648  13.110  21.445  0.00  0.00    +0.000 OA
BRANCH  22  25
ATOM     24  C   UNL     1      -1.180  14.044  20.087  0.00  0.00    +0.000 C 
ATOM     25  O   UNL     1      -0.544  13.797  21.345  0.00  0.00    +0.000 OA
ENDBRANCH  22  25
ENDBRANCH  18  22
ENDBRANCH  14  18
ENDBRANCH  13  15
ENDBRANCH  12  13
ENDBRANCH   1  12
BRANCH   4  26
ATOM     26  C   UNL     1       5.488   4.715  18.293  0.00  0.00    +0.000 C 
BRANCH  26  27
ATOM     27  O   UNL     1       5.189   3.896  17.160  0.00  0.00    +0.000 OA
BRANCH  27  28
ATOM     28  C   UNL     1       5.827   4.154  15.975  0.00  0.00    +0.000 A 
ATOM     29  C   UNL     1       7.082   4.739  15.811  0.00  0.00    +0.000 A 
ATOM     30  C   UNL     1       7.595   4.948  14.522  0.00  0.00    +0.000 A 
ATOM     31  C   UNL     1       6.857   4.572  13.401  0.00  0.00    +0.000 A 
ATOM     32 CL   UNL     1       7.491   4.840  11.823  0.00  0.00    +0.000 Cl
ATOM     33  C   UNL     1       5.606   3.985  13.555  0.00  0.00    +0.000 A 
ATOM     34  C   UNL     1       5.097   3.777  14.841  0.00  0.00    +0.000 A 
ENDBRANCH  27  28
ENDBRANCH  26  27
ENDBRANCH   4  26
TORSDOF 11
ENDMDL
