MODEL 1
REMARK VINA RESULT:      -9.6      0.000      0.000
REMARK  Name = 
REMARK  8 active torsions:
REMARK  status: ('A' for Active; 'I' for Inactive)
REMARK    1  A    between atoms: C_1  and  C_2
REMARK    2  A    between atoms: C_2  and  C_4
REMARK    3  A    between atoms: C_9  and  N_10
REMARK    4  A    between atoms: C_11  and  C_13
REMARK    5  A    between atoms: C_18  and  S_19
REMARK    6  A    between atoms: S_19  and  C_20
REMARK    7  A    between atoms: C_24  and  C_25
REMARK    8  A    between atoms: C_26  and  C_27
REMARK                            x       y       z     vdW  Elec       q    Type
REMARK                         _______ _______ _______ _____ _____    ______ ____
ROOT
ATOM      1  C   UNL     1       2.032   4.482  19.538  0.00  0.00    +0.000 A 
ATOM      2  C   UNL     1       1.575   4.359  20.868  0.00  0.00    +0.000 A 
ATOM      3  C   UNL     1       1.567   3.126  21.512  0.00  0.00    +0.000 A 
ATOM      4  C   UNL     1       1.985   1.994  20.817  0.00  0.00    +0.000 A 
ATOM      5  C   UNL     1       2.440   2.104  19.497  0.00  0.00    +0.000 A 
ATOM      6  C   UNL     1       2.485   3.347  18.830  0.00  0.00    +0.000 A 
ENDROOT
BRANCH   1   8
ATOM      7  N   UNL     1       2.212   6.917  19.712  0.00  0.00    +0.000 N 
ATOM      8  C   UNL     1       1.873   5.822  18.917  0.00  0.00    +0.000 C 
ATOM      9  O   UNL     1       1.416   5.913  17.785  0.00  0.00    +0.000 OA
ATOM     10  H   UNL     1       2.983   6.807  20.374  0.00  0.00    +0.000 HD
BRANCH   7  16
ATOM     11  C   UNL     1       1.093   9.071  20.133  0.00  0.00    +0.000 A 
ATOM     12  C   UNL     1       0.875  10.407  19.761  0.00  0.00    +0.000 A 
ATOM     13  C   UNL     1       1.405  10.904  18.569  0.00  0.00    +0.000 A 
ATOM     14  C   UNL     1       2.143  10.069  17.737  0.00  0.00    +0.000 A 
ATOM     15  C   UNL     1       2.393   8.749  18.119  0.00  0.00    +0.000 A 
ATOM     16  C   UNL     1       1.894   8.244  19.328  0.00  0.00    +0.000 A 
BRANCH  11  18
ATOM     17  C   UNL     1       0.760   9.381  22.664  0.00  0.00    +0.000 C 
ATOM     18  C   UNL     1       0.537   8.564  21.416  0.00  0.00    +0.000 C 
ATOM     19  O   UNL     1      -0.082   7.500  21.435  0.00  0.00    +0.000 OA
ENDBRANCH  11  18
ENDBRANCH   7  16
ENDBRANCH   1   8
BRANCH   6  20
ATOM     20  S   UNL     1       3.472   3.368  17.328  0.00  0.00    +0.000 S 
BRANCH  20  21
ATOM     21  C   UNL     1       4.676   4.682  17.470  0.00  0.00    +0.000 A 
ATOM     22  C   UNL     1       4.737   5.772  16.593  0.00  0.00    +0.000 A 
ATOM     23  C   UNL     1       5.761   6.744  16.698  0.00  0.00    +0.000 A 
ATOM     24  C   UNL     1       6.740   6.615  17.707  0.00  0.00    +0.000 A 
ATOM     25  C   UNL     1       7.839   7.383  18.225  0.00  0.00    +0.000 A 
ATOM     26  N   UNL     1       8.481   6.709  19.196  0.00  0.00    +0.000 NA
ATOM     27  N   UNL     1       7.781   5.574  19.329  0.00  0.00    +0.000 N 
ATOM     28  C   UNL     1       6.701   5.476  18.501  0.00  0.00    +0.000 A 
ATOM     29  C   UNL     1       5.706   4.497  18.402  0.00  0.00    +0.000 A 
ATOM     30  H   UNL     1       8.080   4.906  20.029  0.00  0.00    +0.000 HD
BRANCH  25  31
ATOM     31  C   UNL     1       8.214   8.712  17.825  0.00  0.00    +0.000 C 
ATOM     32  C   UNL     1       8.936   9.552  18.594  0.00  0.00    +0.000 C 
BRANCH  32  33
ATOM     33  C   UNL     1       9.342  10.915  18.247  0.00  0.00    +0.000 A 
ATOM     34  C   UNL     1      10.692  11.266  18.287  0.00  0.00    +0.000 A 
ATOM     35  C   UNL     1      11.073  12.549  17.897  0.00  0.00    +0.000 A 
ATOM     36  C   UNL     1      10.101  13.448  17.486  0.00  0.00    +0.000 A 
ATOM     37  C   UNL     1       8.780  13.028  17.500  0.00  0.00    +0.000 A 
ATOM     38  N   UNL     1       8.378  11.789  17.869  0.00  0.00    +0.000 NA
ENDBRANCH  32  33
ENDBRANCH  25  31
ENDBRANCH  20  21
ENDBRANCH   6  20
TORSDOF 7
ENDMDL
MODEL 2
REMARK VINA RESULT:      -8.9      3.614      8.328
REMARK  Name = 
REMARK  8 active torsions:
REMARK  status: ('A' for Active; 'I' for Inactive)
REMARK    1  A    between atoms: C_1  and  C_2
REMARK    2  A    between atoms: C_2  and  C_4
REMARK    3  A    between atoms: C_9  and  N_10
REMARK    4  A    between atoms: C_11  and  C_13
REMARK    5  A    between atoms: C_18  and  S_19
REMARK    6  A    between atoms: S_19  and  C_20
REMARK    7  A    between atoms: C_24  and  C_25
REMARK    8  A    between atoms: C_26  and  C_27
REMARK                            x       y       z     vdW  Elec       q    Type
REMARK                         _______ _______ _______ _____ _____    ______ ____
ROOT
ATOM      1  C   UNL     1       2.691   3.625  18.398  0.00  0.00    +0.000 A 
ATOM      2  C   UNL     1       1.704   2.621  18.298  0.00  0.00    +0.000 A 
ATOM      3  C   UNL     1       0.623   2.589  19.173  0.00  0.00    +0.000 A 
ATOM      4  C   UNL     1       0.538   3.543  20.183  0.00  0.00    +0.000 A 
ATOM      5  C   UNL     1       1.512   4.544  20.293  0.00  0.00    +0.000 A 
ATOM      6  C   UNL     1       2.603   4.617  19.400  0.00  0.00    +0.000 A 
ENDROOT
BRANCH   1   8
ATOM      7  N   UNL     1       4.290   4.642  16.848  0.00  0.00    +0.000 N 
ATOM      8  C   UNL     1       3.859   3.481  17.492  0.00  0.00    +0.000 C 
ATOM      9  O   UNL     1       4.352   2.375  17.311  0.00  0.00    +0.000 OA
ATOM     10  H   UNL     1       4.206   5.527  17.352  0.00  0.00    +0.000 HD
BRANCH   7  16
ATOM     11  C   UNL     1       6.585   4.939  16.003  0.00  0.00    +0.000 A 
ATOM     12  C   UNL     1       7.509   4.800  14.954  0.00  0.00    +0.000 A 
ATOM     13  C   UNL     1       7.087   4.379  13.692  0.00  0.00    +0.000 A 
ATOM     14  C   UNL     1       5.742   4.107  13.465  0.00  0.00    +0.000 A 
ATOM     15  C   UNL     1       4.824   4.210  14.512  0.00  0.00    +0.000 A 
ATOM     16  C   UNL     1       5.237   4.601  15.794  0.00  0.00    +0.000 A 
BRANCH  11  18
ATOM     17  C   UNL     1       7.305   6.839  17.578  0.00  0.00    +0.000 C 
ATOM     18  C   UNL     1       7.054   5.370  17.347  0.00  0.00    +0.000 C 
ATOM     19  O   UNL     1       7.231   4.531  18.229  0.00  0.00    +0.000 OA
ENDBRANCH  11  18
ENDBRANCH   7  16
ENDBRANCH   1   8
BRANCH   6  20
ATOM     20  S   UNL     1       3.500   6.174  19.421  0.00  0.00    +0.000 S 
BRANCH  20  21
ATOM     21  C   UNL     1       2.332   7.485  19.756  0.00  0.00    +0.000 A 
ATOM     22  C   UNL     1       1.635   7.608  20.964  0.00  0.00    +0.000 A 
ATOM     23  C   UNL     1       0.659   8.617  21.152  0.00  0.00    +0.000 A 
ATOM     24  C   UNL     1       0.382   9.519  20.101  0.00  0.00    +0.000 A 
ATOM     25  C   UNL     1      -0.407  10.703  19.898  0.00  0.00    +0.000 A 
ATOM     26  N   UNL     1      -0.324  11.122  18.623  0.00  0.00    +0.000 NA
ATOM     27  N   UNL     1       0.532  10.267  18.048  0.00  0.00    +0.000 N 
ATOM     28  C   UNL     1       1.027   9.313  18.888  0.00  0.00    +0.000 A 
ATOM     29  C   UNL     1       1.983   8.312  18.679  0.00  0.00    +0.000 A 
ATOM     30  H   UNL     1       0.761  10.402  17.070  0.00  0.00    +0.000 HD
BRANCH  25  31
ATOM     31  C   UNL     1      -1.163  11.406  20.898  0.00  0.00    +0.000 C 
ATOM     32  C   UNL     1      -0.691  12.461  21.593  0.00  0.00    +0.000 C 
BRANCH  32  33
ATOM     33  C   UNL     1      -1.406  13.212  22.626  0.00  0.00    +0.000 A 
ATOM     34  C   UNL     1      -2.752  12.938  22.872  0.00  0.00    +0.000 A 
ATOM     35  C   UNL     1      -3.408  13.616  23.899  0.00  0.00    +0.000 A 
ATOM     36  C   UNL     1      -2.707  14.551  24.646  0.00  0.00    +0.000 A 
ATOM     37  C   UNL     1      -1.380  14.782  24.321  0.00  0.00    +0.000 A 
ATOM     38  N   UNL     1      -0.715  14.138  23.333  0.00  0.00    +0.000 NA
ENDBRANCH  32  33
ENDBRANCH  25  31
ENDBRANCH  20  21
ENDBRANCH   6  20
TORSDOF 7
ENDMDL
MODEL 3
REMARK VINA RESULT:      -8.5      4.392      7.699
REMARK  Name = 
REMARK  8 active torsions:
REMARK  status: ('A' for Active; 'I' for Inactive)
REMARK    1  A    between atoms: C_1  and  C_2
REMARK    2  A    between atoms: C_2  and  C_4
REMARK    3  A    between atoms: C_9  and  N_10
REMARK    4  A    between atoms: C_11  and  C_13
REMARK    5  A    between atoms: C_18  and  S_19
REMARK    6  A    between atoms: S_19  and  C_20
REMARK    7  A    between atoms: C_24  and  C_25
REMARK    8  A    between atoms: C_26  and  C_27
REMARK                            x       y       z     vdW  Elec       q    Type
REMARK                         _______ _______ _______ _____ _____    ______ ____
ROOT
ATOM      1  C   UNL     1      -0.561  12.331  19.223  0.00  0.00    +0.000 A 
ATOM      2  C   UNL     1      -0.211  13.398  18.369  0.00  0.00    +0.000 A 
ATOM      3  C   UNL     1       0.981  14.094  18.542  0.00  0.00    +0.000 A 
ATOM      4  C   UNL     1       1.821  13.749  19.597  0.00  0.00    +0.000 A 
ATOM      5  C   UNL     1       1.484  12.692  20.453  0.00  0.00    +0.000 A 
ATOM      6  C   UNL     1       0.294  11.952  20.282  0.00  0.00    +0.000 A 
ENDROOT
BRANCH   1   8
ATOM      7  N   UNL     1      -2.987  12.637  19.107  0.00  0.00    +0.000 N 
ATOM      8  C   UNL     1      -1.913  11.751  19.019  0.00  0.00    +0.000 C 
ATOM      9  O   UNL     1      -2.033  10.545  18.840  0.00  0.00    +0.000 OA
ATOM     10  H   UNL     1      -2.845  13.594  18.778  0.00  0.00    +0.000 HD
BRANCH   7  16
ATOM     11  C   UNL     1      -5.107  12.321  20.322  0.00  0.00    +0.000 A 
ATOM     12  C   UNL     1      -6.458  11.937  20.306  0.00  0.00    +0.000 A 
ATOM     13  C   UNL     1      -7.017  11.367  19.161  0.00  0.00    +0.000 A 
ATOM     14  C   UNL     1      -6.230  11.166  18.032  0.00  0.00    +0.000 A 
ATOM     15  C   UNL     1      -4.897  11.578  18.029  0.00  0.00    +0.000 A 
ATOM     16  C   UNL     1      -4.328  12.180  19.161  0.00  0.00    +0.000 A 
BRANCH  11  18
ATOM     17  C   UNL     1      -4.079  14.381  21.468  0.00  0.00    +0.000 C 
ATOM     18  C   UNL     1      -4.532  12.944  21.544  0.00  0.00    +0.000 C 
ATOM     19  O   UNL     1      -4.435  12.284  22.578  0.00  0.00    +0.000 OA
ENDBRANCH  11  18
ENDBRANCH   7  16
ENDBRANCH   1   8
BRANCH   6  20
ATOM     20  S   UNL     1       0.230  10.398  21.182  0.00  0.00    +0.000 S 
BRANCH  20  21
ATOM     21  C   UNL     1       1.118   9.169  20.237  0.00  0.00    +0.000 A 
ATOM     22  C   UNL     1       1.311   9.249  18.852  0.00  0.00    +0.000 A 
ATOM     23  C   UNL     1       1.950   8.209  18.136  0.00  0.00    +0.000 A 
ATOM     24  C   UNL     1       2.405   7.066  18.829  0.00  0.00    +0.000 A 
ATOM     25  C   UNL     1       3.164   5.880  18.540  0.00  0.00    +0.000 A 
ATOM     26  N   UNL     1       3.243   5.085  19.622  0.00  0.00    +0.000 NA
ATOM     27  N   UNL     1       2.603   5.766  20.582  0.00  0.00    +0.000 N 
ATOM     28  C   UNL     1       2.118   6.979  20.186  0.00  0.00    +0.000 A 
ATOM     29  C   UNL     1       1.474   7.990  20.907  0.00  0.00    +0.000 A 
ATOM     30  H   UNL     1       2.548   5.356  21.506  0.00  0.00    +0.000 HD
BRANCH  25  31
ATOM     31  C   UNL     1       3.810   5.563  17.296  0.00  0.00    +0.000 C 
ATOM     32  C   UNL     1       5.141   5.393  17.162  0.00  0.00    +0.000 C 
BRANCH  32  33
ATOM     33  C   UNL     1       5.857   5.078  15.924  0.00  0.00    +0.000 A 
ATOM     34  C   UNL     1       5.291   4.194  15.005  0.00  0.00    +0.000 A 
ATOM     35  C   UNL     1       5.952   3.947  13.803  0.00  0.00    +0.000 A 
ATOM     36  C   UNL     1       7.160   4.582  13.553  0.00  0.00    +0.000 A 
ATOM     37  C   UNL     1       7.665   5.426  14.529  0.00  0.00    +0.000 A 
ATOM     38  N   UNL     1       7.046   5.688  15.704  0.00  0.00    +0.000 NA
ENDBRANCH  32  33
ENDBRANCH  25  31
ENDBRANCH  20  21
ENDBRANCH   6  20
TORSDOF 7
ENDMDL
MODEL 4
REMARK VINA RESULT:      -8.5      3.931      8.709
REMARK  Name = 
REMARK  8 active torsions:
REMARK  status: ('A' for Active; 'I' for Inactive)
REMARK    1  A    between atoms: C_1  and  C_2
REMARK    2  A    between atoms: C_2  and  C_4
REMARK    3  A    between atoms: C_9  and  N_10
REMARK    4  A    between atoms: C_11  and  C_13
REMARK    5  A    between atoms: C_18  and  S_19
REMARK    6  A    between atoms: S_19  and  C_20
REMARK    7  A    between atoms: C_24  and  C_25
REMARK    8  A    between atoms: C_26  and  C_27
REMARK                            x       y       z     vdW  Elec       q    Type
REMARK                         _______ _______ _______ _____ _____    ______ ____
ROOT
ATOM      1  C   UNL     1       2.770   3.771  18.257  0.00  0.00    +0.000 A 
ATOM      2  C   UNL     1       1.807   2.742  18.195  0.00  0.00    +0.000 A 
ATOM      3  C   UNL     1       0.731   2.713  19.077  0.00  0.00    +0.000 A 
ATOM      4  C   UNL     1       0.628   3.698  20.055  0.00  0.00    +0.000 A 
ATOM      5  C   UNL     1       1.579   4.725  20.127  0.00  0.00    +0.000 A 
ATOM      6  C   UNL     1       2.664   4.793  19.226  0.00  0.00    +0.000 A 
ENDROOT
BRANCH   1   8
ATOM      7  N   UNL     1       4.277   4.747  16.593  0.00  0.00    +0.000 N 
ATOM      8  C   UNL     1       3.937   3.625  17.350  0.00  0.00    +0.000 C 
ATOM      9  O   UNL     1       4.506   2.544  17.266  0.00  0.00    +0.000 OA
ATOM     10  H   UNL     1       4.135   5.668  17.012  0.00  0.00    +0.000 HD
BRANCH   7  16
ATOM     11  C   UNL     1       6.485   5.265  15.631  0.00  0.00    +0.000 A 
ATOM     12  C   UNL     1       7.417   5.094  14.595  0.00  0.00    +0.000 A 
ATOM     13  C   UNL     1       7.071   4.384  13.444  0.00  0.00    +0.000 A 
ATOM     14  C   UNL     1       5.792   3.853  13.315  0.00  0.00    +0.000 A 
ATOM     15  C   UNL     1       4.873   3.990  14.356  0.00  0.00    +0.000 A 
ATOM     16  C   UNL     1       5.215   4.674  15.532  0.00  0.00    +0.000 A 
BRANCH  11  18
ATOM     17  C   UNL     1       7.506   5.235  17.992  0.00  0.00    +0.000 C 
ATOM     18  C   UNL     1       6.877   6.008  16.859  0.00  0.00    +0.000 C 
ATOM     19  O   UNL     1       6.680   7.221  16.928  0.00  0.00    +0.000 OA
ENDBRANCH  11  18
ENDBRANCH   7  16
ENDBRANCH   1   8
BRANCH   6  20
ATOM     20  S   UNL     1       3.523   6.372  19.191  0.00  0.00    +0.000 S 
BRANCH  20  21
ATOM     21  C   UNL     1       2.349   7.656  19.598  0.00  0.00    +0.000 A 
ATOM     22  C   UNL     1       1.651   7.709  20.811  0.00  0.00    +0.000 A 
ATOM     23  C   UNL     1       0.670   8.700  21.054  0.00  0.00    +0.000 A 
ATOM     24  C   UNL     1       0.387   9.657  20.054  0.00  0.00    +0.000 A 
ATOM     25  C   UNL     1      -0.409  10.845  19.916  0.00  0.00    +0.000 A 
ATOM     26  N   UNL     1      -0.328  11.334  18.665  0.00  0.00    +0.000 NA
ATOM     27  N   UNL     1       0.533  10.517  18.044  0.00  0.00    +0.000 N 
ATOM     28  C   UNL     1       1.033   9.520  18.831  0.00  0.00    +0.000 A 
ATOM     29  C   UNL     1       1.994   8.539  18.568  0.00  0.00    +0.000 A 
ATOM     30  H   UNL     1       0.760  10.706  17.076  0.00  0.00    +0.000 HD
BRANCH  25  31
ATOM     31  C   UNL     1      -1.168  11.489  20.953  0.00  0.00    +0.000 C 
ATOM     32  C   UNL     1      -2.278  12.220  20.729  0.00  0.00    +0.000 C 
BRANCH  32  33
ATOM     33  C   UNL     1      -3.088  12.903  21.739  0.00  0.00    +0.000 A 
ATOM     34  C   UNL     1      -2.885  12.625  23.091  0.00  0.00    +0.000 A 
ATOM     35  C   UNL     1      -3.619  13.326  24.047  0.00  0.00    +0.000 A 
ATOM     36  C   UNL     1      -4.537  14.278  23.630  0.00  0.00    +0.000 A 
ATOM     37  C   UNL     1      -4.696  14.475  22.268  0.00  0.00    +0.000 A 
ATOM     38  N   UNL     1      -3.996  13.815  21.316  0.00  0.00    +0.000 NA
ENDBRANCH  32  33
ENDBRANCH  25  31
ENDBRANCH  20  21
ENDBRANCH   6  20
TORSDOF 7
ENDMDL
MODEL 5
REMARK VINA RESULT:      -8.5      0.939      1.104
REMARK  Name = 
REMARK  8 active torsions:
REMARK  status: ('A' for Active; 'I' for Inactive)
REMARK    1  A    between atoms: C_1  and  C_2
REMARK    2  A    between atoms: C_2  and  C_4
REMARK    3  A    between atoms: C_9  and  N_10
REMARK    4  A    between atoms: C_11  and  C_13
REMARK    5  A    between atoms: C_18  and  S_19
REMARK    6  A    between atoms: S_19  and  C_20
REMARK    7  A    between atoms: C_24  and  C_25
REMARK    8  A    between atoms: C_26  and  C_27
REMARK                            x       y       z     vdW  Elec       q    Type
REMARK                         _______ _______ _______ _____ _____    ______ ____
ROOT
ATOM      1  C   UNL     1       2.241   4.618  20.082  0.00  0.00    +0.000 A 
ATOM      2  C   UNL     1       2.033   4.116  21.384  0.00  0.00    +0.000 A 
ATOM      3  C   UNL     1       1.753   2.770  21.597  0.00  0.00    +0.000 A 
ATOM      4  C   UNL     1       1.643   1.918  20.502  0.00  0.00    +0.000 A 
ATOM      5  C   UNL     1       1.846   2.405  19.204  0.00  0.00    +0.000 A 
ATOM      6  C   UNL     1       2.160   3.760  18.963  0.00  0.00    +0.000 A 
ENDROOT
BRANCH   1   8
ATOM      7  N   UNL     1       1.240   6.830  19.767  0.00  0.00    +0.000 N 
ATOM      8  C   UNL     1       2.406   6.090  19.971  0.00  0.00    +0.000 C 
ATOM      9  O   UNL     1       3.528   6.578  20.009  0.00  0.00    +0.000 OA
ATOM     10  H   UNL     1       0.380   6.497  20.206  0.00  0.00    +0.000 HD
BRANCH   7  16
ATOM     11  C   UNL     1       0.770   9.195  20.272  0.00  0.00    +0.000 A 
ATOM     12  C   UNL     1       0.910  10.550  19.930  0.00  0.00    +0.000 A 
ATOM     13  C   UNL     1       1.506  10.916  18.722  0.00  0.00    +0.000 A 
ATOM     14  C   UNL     1       1.954   9.933  17.844  0.00  0.00    +0.000 A 
ATOM     15  C   UNL     1       1.849   8.586  18.194  0.00  0.00    +0.000 A 
ATOM     16  C   UNL     1       1.281   8.203  19.418  0.00  0.00    +0.000 A 
BRANCH  11  18
ATOM     17  C   UNL     1       0.619   9.536  22.816  0.00  0.00    +0.000 C 
ATOM     18  C   UNL     1       0.150   8.824  21.572  0.00  0.00    +0.000 C 
ATOM     19  O   UNL     1      -0.718   7.952  21.608  0.00  0.00    +0.000 OA
ENDBRANCH  11  18
ENDBRANCH   7  16
ENDBRANCH   1   8
BRANCH   6  20
ATOM     20  S   UNL     1       2.793   4.112  17.318  0.00  0.00    +0.000 S 
BRANCH  20  21
ATOM     21  C   UNL     1       4.192   5.212  17.483  0.00  0.00    +0.000 A 
ATOM     22  C   UNL     1       4.328   6.403  16.759  0.00  0.00    +0.000 A 
ATOM     23  C   UNL     1       5.493   7.200  16.864  0.00  0.00    +0.000 A 
ATOM     24  C   UNL     1       6.542   6.788  17.716  0.00  0.00    +0.000 A 
ATOM     25  C   UNL     1       7.793   7.312  18.190  0.00  0.00    +0.000 A 
ATOM     26  N   UNL     1       8.422   6.418  18.974  0.00  0.00    +0.000 NA
ATOM     27  N   UNL     1       7.575   5.382  19.041  0.00  0.00    +0.000 N 
ATOM     28  C   UNL     1       6.411   5.558  18.349  0.00  0.00    +0.000 A 
ATOM     29  C   UNL     1       5.274   4.750  18.246  0.00  0.00    +0.000 A 
ATOM     30  H   UNL     1       7.839   4.581  19.602  0.00  0.00    +0.000 HD
BRANCH  25  31
ATOM     31  C   UNL     1       8.323   8.622  17.928  0.00  0.00    +0.000 C 
ATOM     32  C   UNL     1       8.867   9.415  18.873  0.00  0.00    +0.000 C 
BRANCH  32  33
ATOM     33  C   UNL     1       9.415  10.758  18.671  0.00  0.00    +0.000 A 
ATOM     34  C   UNL     1       8.763  11.648  17.817  0.00  0.00    +0.000 A 
ATOM     35  C   UNL     1       9.259  12.944  17.679  0.00  0.00    +0.000 A 
ATOM     36  C   UNL     1      10.392  13.314  18.388  0.00  0.00    +0.000 A 
ATOM     37  C   UNL     1      10.993  12.361  19.195  0.00  0.00    +0.000 A 
ATOM     38  N   UNL     1      10.534  11.097  19.354  0.00  0.00    +0.000 NA
ENDBRANCH  32  33
ENDBRANCH  25  31
ENDBRANCH  20  21
ENDBRANCH   6  20
TORSDOF 7
ENDMDL
MODEL 6
REMARK VINA RESULT:      -8.5      4.579      7.802
REMARK  Name = 
REMARK  8 active torsions:
REMARK  status: ('A' for Active; 'I' for Inactive)
REMARK    1  A    between atoms: C_1  and  C_2
REMARK    2  A    between atoms: C_2  and  C_4
REMARK    3  A    between atoms: C_9  and  N_10
REMARK    4  A    between atoms: C_11  and  C_13
REMARK    5  A    between atoms: C_18  and  S_19
REMARK    6  A    between atoms: S_19  and  C_20
REMARK    7  A    between atoms: C_24  and  C_25
REMARK    8  A    between atoms: C_26  and  C_27
REMARK                            x       y       z     vdW  Elec       q    Type
REMARK                         _______ _______ _______ _____ _____    ______ ____
ROOT
ATOM      1  C   UNL     1      -0.706  12.554  19.338  0.00  0.00    +0.000 A 
ATOM      2  C   UNL     1      -0.325  13.735  18.667  0.00  0.00    +0.000 A 
ATOM      3  C   UNL     1       1.000  14.159  18.657  0.00  0.00    +0.000 A 
ATOM      4  C   UNL     1       1.954  13.421  19.351  0.00  0.00    +0.000 A 
ATOM      5  C   UNL     1       1.589  12.247  20.021  0.00  0.00    +0.000 A 
ATOM      6  C   UNL     1       0.257  11.779  20.023  0.00  0.00    +0.000 A 
ENDROOT
BRANCH   1   8
ATOM      7  N   UNL     1      -2.953  13.212  20.050  0.00  0.00    +0.000 N 
ATOM      8  C   UNL     1      -2.163  12.273  19.386  0.00  0.00    +0.000 C 
ATOM      9  O   UNL     1      -2.595  11.234  18.902  0.00  0.00    +0.000 OA
ATOM     10  H   UNL     1      -2.677  14.194  19.993  0.00  0.00    +0.000 HD
BRANCH   7  16
ATOM     11  C   UNL     1      -4.767  12.939  21.694  0.00  0.00    +0.000 A 
ATOM     12  C   UNL     1      -6.136  12.769  21.959  0.00  0.00    +0.000 A 
ATOM     13  C   UNL     1      -7.038  12.561  20.914  0.00  0.00    +0.000 A 
ATOM     14  C   UNL     1      -6.579  12.510  19.602  0.00  0.00    +0.000 A 
ATOM     15  C   UNL     1      -5.225  12.713  19.329  0.00  0.00    +0.000 A 
ATOM     16  C   UNL     1      -4.311  12.954  20.365  0.00  0.00    +0.000 A 
BRANCH  11  18
ATOM     17  C   UNL     1      -2.884  12.067  23.211  0.00  0.00    +0.000 C 
ATOM     18  C   UNL     1      -3.823  13.179  22.818  0.00  0.00    +0.000 C 
ATOM     19  O   UNL     1      -3.830  14.263  23.400  0.00  0.00    +0.000 OA
ENDBRANCH  11  18
ENDBRANCH   7  16
ENDBRANCH   1   8
BRANCH   6  20
ATOM     20  S   UNL     1       0.051  10.076  20.558  0.00  0.00    +0.000 S 
BRANCH  20  21
ATOM     21  C   UNL     1       1.208   9.062  19.649  0.00  0.00    +0.000 A 
ATOM     22  C   UNL     1       1.493   9.242  18.290  0.00  0.00    +0.000 A 
ATOM     23  C   UNL     1       2.356   8.362  17.595  0.00  0.00    +0.000 A 
ATOM     24  C   UNL     1       2.944   7.278  18.284  0.00  0.00    +0.000 A 
ATOM     25  C   UNL     1       3.916   6.253  18.020  0.00  0.00    +0.000 A 
ATOM     26  N   UNL     1       4.044   5.429  19.075  0.00  0.00    +0.000 NA
ATOM     27  N   UNL     1       3.223   5.944  20.000  0.00  0.00    +0.000 N 
ATOM     28  C   UNL     1       2.570   7.077  19.607  0.00  0.00    +0.000 A 
ATOM     29  C   UNL     1       1.707   7.928  20.306  0.00  0.00    +0.000 A 
ATOM     30  H   UNL     1       3.166   5.485  20.901  0.00  0.00    +0.000 HD
BRANCH  25  31
ATOM     31  C   UNL     1       4.703   6.111  16.825  0.00  0.00    +0.000 C 
ATOM     32  C   UNL     1       4.939   4.932  16.216  0.00  0.00    +0.000 C 
BRANCH  32  33
ATOM     33  C   UNL     1       5.736   4.723  15.006  0.00  0.00    +0.000 A 
ATOM     34  C   UNL     1       5.301   3.814  14.041  0.00  0.00    +0.000 A 
ATOM     35  C   UNL     1       6.035   3.666  12.865  0.00  0.00    +0.000 A 
ATOM     36  C   UNL     1       7.184   4.422  12.686  0.00  0.00    +0.000 A 
ATOM     37  C   UNL     1       7.561   5.283  13.705  0.00  0.00    +0.000 A 
ATOM     38  N   UNL     1       6.868   5.452  14.855  0.00  0.00    +0.000 NA
ENDBRANCH  32  33
ENDBRANCH  25  31
ENDBRANCH  20  21
ENDBRANCH   6  20
TORSDOF 7
ENDMDL
MODEL 7
REMARK VINA RESULT:      -8.3      3.704      8.608
REMARK  Name = 
REMARK  8 active torsions:
REMARK  status: ('A' for Active; 'I' for Inactive)
REMARK    1  A    between atoms: C_1  and  C_2
REMARK    2  A    between atoms: C_2  and  C_4
REMARK    3  A    between atoms: C_9  and  N_10
REMARK    4  A    between atoms: C_11  and  C_13
REMARK    5  A    between atoms: C_18  and  S_19
REMARK    6  A    between atoms: S_19  and  C_20
REMARK    7  A    between atoms: C_24  and  C_25
REMARK    8  A    between atoms: C_26  and  C_27
REMARK                            x       y       z     vdW  Elec       q    Type
REMARK                         _______ _______ _______ _____ _____    ______ ____
ROOT
ATOM      1  C   UNL     1       2.321   4.448  18.478  0.00  0.00    +0.000 A 
ATOM      2  C   UNL     1       1.407   3.438  18.111  0.00  0.00    +0.000 A 
ATOM      3  C   UNL     1       0.546   2.875  19.048  0.00  0.00    +0.000 A 
ATOM      4  C   UNL     1       0.616   3.295  20.373  0.00  0.00    +0.000 A 
ATOM      5  C   UNL     1       1.520   4.297  20.750  0.00  0.00    +0.000 A 
ATOM      6  C   UNL     1       2.384   4.904  19.814  0.00  0.00    +0.000 A 
ENDROOT
BRANCH   1   8
ATOM      7  N   UNL     1       4.137   3.901  16.931  0.00  0.00    +0.000 N 
ATOM      8  C   UNL     1       3.273   4.880  17.423  0.00  0.00    +0.000 C 
ATOM      9  O   UNL     1       3.297   6.053  17.073  0.00  0.00    +0.000 OA
ATOM     10  H   UNL     1       3.788   2.942  16.870  0.00  0.00    +0.000 HD
BRANCH   7  16
ATOM     11  C   UNL     1       6.456   4.677  16.632  0.00  0.00    +0.000 A 
ATOM     12  C   UNL     1       7.548   4.905  15.779  0.00  0.00    +0.000 A 
ATOM     13  C   UNL     1       7.415   4.739  14.400  0.00  0.00    +0.000 A 
ATOM     14  C   UNL     1       6.189   4.359  13.863  0.00  0.00    +0.000 A 
ATOM     15  C   UNL     1       5.110   4.097  14.707  0.00  0.00    +0.000 A 
ATOM     16  C   UNL     1       5.236   4.228  16.098  0.00  0.00    +0.000 A 
BRANCH  11  18
ATOM     17  C   UNL     1       7.386   6.038  18.605  0.00  0.00    +0.000 C 
ATOM     18  C   UNL     1       6.621   4.840  18.101  0.00  0.00    +0.000 C 
ATOM     19  O   UNL     1       6.142   4.003  18.865  0.00  0.00    +0.000 OA
ENDBRANCH  11  18
ENDBRANCH   7  16
ENDBRANCH   1   8
BRANCH   6  20
ATOM     20  S   UNL     1       3.155   6.429  20.370  0.00  0.00    +0.000 S 
BRANCH  20  21
ATOM     21  C   UNL     1       1.924   7.724  20.329  0.00  0.00    +0.000 A 
ATOM     22  C   UNL     1       0.951   7.898  21.321  0.00  0.00    +0.000 A 
ATOM     23  C   UNL     1      -0.053   8.888  21.202  0.00  0.00    +0.000 A 
ATOM     24  C   UNL     1      -0.078   9.719  20.060  0.00  0.00    +0.000 A 
ATOM     25  C   UNL     1      -0.810  10.865  19.597  0.00  0.00    +0.000 A 
ATOM     26  N   UNL     1      -0.424  11.211  18.356  0.00  0.00    +0.000 NA
ATOM     27  N   UNL     1       0.558  10.349  18.061  0.00  0.00    +0.000 N 
ATOM     28  C   UNL     1       0.845   9.460  19.055  0.00  0.00    +0.000 A 
ATOM     29  C   UNL     1       1.836   8.476  19.148  0.00  0.00    +0.000 A 
ATOM     30  H   UNL     1       1.016  10.433  17.161  0.00  0.00    +0.000 HD
BRANCH  25  31
ATOM     31  C   UNL     1      -1.796  11.604  20.337  0.00  0.00    +0.000 C 
ATOM     32  C   UNL     1      -1.601  12.074  21.586  0.00  0.00    +0.000 C 
BRANCH  32  33
ATOM     33  C   UNL     1      -2.565  12.824  22.393  0.00  0.00    +0.000 A 
ATOM     34  C   UNL     1      -3.154  12.220  23.504  0.00  0.00    +0.000 A 
ATOM     35  C   UNL     1      -4.024  12.963  24.301  0.00  0.00    +0.000 A 
ATOM     36  C   UNL     1      -4.289  14.282  23.964  0.00  0.00    +0.000 A 
ATOM     37  C   UNL     1      -3.683  14.798  22.830  0.00  0.00    +0.000 A 
ATOM     38  N   UNL     1      -2.831  14.104  22.039  0.00  0.00    +0.000 NA
ENDBRANCH  32  33
ENDBRANCH  25  31
ENDBRANCH  20  21
ENDBRANCH   6  20
TORSDOF 7
ENDMDL
MODEL 8
REMARK VINA RESULT:      -8.3      3.939      8.972
REMARK  Name = 
REMARK  8 active torsions:
REMARK  status: ('A' for Active; 'I' for Inactive)
REMARK    1  A    between atoms: C_1  and  C_2
REMARK    2  A    between atoms: C_2  and  C_4
REMARK    3  A    between atoms: C_9  and  N_10
REMARK    4  A    between atoms: C_11  and  C_13
REMARK    5  A    between atoms: C_18  and  S_19
REMARK    6  A    between atoms: S_19  and  C_20
REMARK    7  A    between atoms: C_24  and  C_25
REMARK    8  A    between atoms: C_26  and  C_27
REMARK                            x       y       z     vdW  Elec       q    Type
REMARK                         _______ _______ _______ _____ _____    ______ ____
ROOT
ATOM      1  C   UNL     1       2.427   4.128  18.615  0.00  0.00    +0.000 A 
ATOM      2  C   UNL     1       1.831   2.950  19.112  0.00  0.00    +0.000 A 
ATOM      3  C   UNL     1       1.147   2.948  20.324  0.00  0.00    +0.000 A 
ATOM      4  C   UNL     1       1.085   4.122  21.070  0.00  0.00    +0.000 A 
ATOM      5  C   UNL     1       1.673   5.298  20.588  0.00  0.00    +0.000 A 
ATOM      6  C   UNL     1       2.348   5.334  19.348  0.00  0.00    +0.000 A 
ENDROOT
BRANCH   1   8
ATOM      7  N   UNL     1       4.574   4.362  17.463  0.00  0.00    +0.000 N 
ATOM      8  C   UNL     1       3.236   3.978  17.379  0.00  0.00    +0.000 C 
ATOM      9  O   UNL     1       2.700   3.583  16.350  0.00  0.00    +0.000 OA
ATOM     10  H   UNL     1       5.060   4.211  18.349  0.00  0.00    +0.000 HD
BRANCH   7  16
ATOM     11  C   UNL     1       6.675   5.046  16.373  0.00  0.00    +0.000 A 
ATOM     12  C   UNL     1       7.484   5.067  15.225  0.00  0.00    +0.000 A 
ATOM     13  C   UNL     1       6.998   4.584  14.009  0.00  0.00    +0.000 A 
ATOM     14  C   UNL     1       5.701   4.089  13.928  0.00  0.00    +0.000 A 
ATOM     15  C   UNL     1       4.904   4.032  15.073  0.00  0.00    +0.000 A 
ATOM     16  C   UNL     1       5.388   4.485  16.309  0.00  0.00    +0.000 A 
BRANCH  11  18
ATOM     17  C   UNL     1       7.463   7.028  17.809  0.00  0.00    +0.000 C 
ATOM     18  C   UNL     1       7.215   5.547  17.665  0.00  0.00    +0.000 C 
ATOM     19  O   UNL     1       7.451   4.755  18.576  0.00  0.00    +0.000 OA
ENDBRANCH  11  18
ENDBRANCH   7  16
ENDBRANCH   1   8
BRANCH   6  20
ATOM     20  S   UNL     1       2.663   6.981  18.702  0.00  0.00    +0.000 S 
BRANCH  20  21
ATOM     21  C   UNL     1       1.643   8.139  19.605  0.00  0.00    +0.000 A 
ATOM     22  C   UNL     1       0.939   9.186  18.997  0.00  0.00    +0.000 A 
ATOM     23  C   UNL     1       0.210  10.126  19.764  0.00  0.00    +0.000 A 
ATOM     24  C   UNL     1       0.191  10.008  21.172  0.00  0.00    +0.000 A 
ATOM     25  C   UNL     1      -0.470  10.637  22.282  0.00  0.00    +0.000 A 
ATOM     26  N   UNL     1      -0.041  10.126  23.449  0.00  0.00    +0.000 NA
ATOM     27  N   UNL     1       0.823   9.166  23.093  0.00  0.00    +0.000 N 
ATOM     28  C   UNL     1       0.972   9.013  21.745  0.00  0.00    +0.000 A 
ATOM     29  C   UNL     1       1.710   8.084  21.004  0.00  0.00    +0.000 A 
ATOM     30  H   UNL     1       1.268   8.626  23.825  0.00  0.00    +0.000 HD
BRANCH  25  31
ATOM     31  C   UNL     1      -1.491  11.647  22.205  0.00  0.00    +0.000 C 
ATOM     32  C   UNL     1      -2.345  11.930  23.209  0.00  0.00    +0.000 C 
BRANCH  32  33
ATOM     33  C   UNL     1      -3.407  12.938  23.189  0.00  0.00    +0.000 A 
ATOM     34  C   UNL     1      -4.643  12.649  23.767  0.00  0.00    +0.000 A 
ATOM     35  C   UNL     1      -5.627  13.637  23.797  0.00  0.00    +0.000 A 
ATOM     36  C   UNL     1      -5.355  14.879  23.244  0.00  0.00    +0.000 A 
ATOM     37  C   UNL     1      -4.110  15.075  22.667  0.00  0.00    +0.000 A 
ATOM     38  N   UNL     1      -3.133  14.139  22.626  0.00  0.00    +0.000 NA
ENDBRANCH  32  33
ENDBRANCH  25  31
ENDBRANCH  20  21
ENDBRANCH   6  20
TORSDOF 7
ENDMDL
MODEL 9
REMARK VINA RESULT:      -8.2      5.763      9.700
REMARK  Name = 
REMARK  8 active torsions:
REMARK  status: ('A' for Active; 'I' for Inactive)
REMARK    1  A    between atoms: C_1  and  C_2
REMARK    2  A    between atoms: C_2  and  C_4
REMARK    3  A    between atoms: C_9  and  N_10
REMARK    4  A    between atoms: C_11  and  C_13
REMARK    5  A    between atoms: C_18  and  S_19
REMARK    6  A    between atoms: S_19  and  C_20
REMARK    7  A    between atoms: C_24  and  C_25
REMARK    8  A    between atoms: C_26  and  C_27
REMARK                            x       y       z     vdW  Elec       q    Type
REMARK                         _______ _______ _______ _____ _____    ______ ____
ROOT
ATOM      1  C   UNL     1      -4.319  12.600  20.536  0.00  0.00    +0.000 A 
ATOM      2  C   UNL     1      -5.466  12.175  19.833  0.00  0.00    +0.000 A 
ATOM      3  C   UNL     1      -5.361  11.580  18.580  0.00  0.00    +0.000 A 
ATOM      4  C   UNL     1      -4.103  11.436  18.001  0.00  0.00    +0.000 A 
ATOM      5  C   UNL     1      -2.956  11.854  18.688  0.00  0.00    +0.000 A 
ATOM      6  C   UNL     1      -3.034  12.435  19.973  0.00  0.00    +0.000 A 
ENDROOT
BRANCH   1   8
ATOM      7  N   UNL     1      -4.534  14.727  21.728  0.00  0.00    +0.000 N 
ATOM      8  C   UNL     1      -4.566  13.334  21.803  0.00  0.00    +0.000 C 
ATOM      9  O   UNL     1      -4.731  12.708  22.843  0.00  0.00    +0.000 OA
ATOM     10  H   UNL     1      -4.872  15.167  20.870  0.00  0.00    +0.000 HD
BRANCH   7  16
ATOM     11  C   UNL     1      -3.324  15.913  23.516  0.00  0.00    +0.000 A 
ATOM     12  C   UNL     1      -3.354  16.788  24.614  0.00  0.00    +0.000 A 
ATOM     13  C   UNL     1      -4.572  17.244  25.122  0.00  0.00    +0.000 A 
ATOM     14  C   UNL     1      -5.765  16.819  24.546  0.00  0.00    +0.000 A 
ATOM     15  C   UNL     1      -5.741  15.977  23.433  0.00  0.00    +0.000 A 
ATOM     16  C   UNL     1      -4.525  15.536  22.892  0.00  0.00    +0.000 A 
BRANCH  11  18
ATOM     17  C   UNL     1      -1.149  14.584  23.850  0.00  0.00    +0.000 C 
ATOM     18  C   UNL     1      -2.017  15.453  22.976  0.00  0.00    +0.000 C 
ATOM     19  O   UNL     1      -1.672  15.790  21.844  0.00  0.00    +0.000 OA
ENDBRANCH  11  18
ENDBRANCH   7  16
ENDBRANCH   1   8
BRANCH   6  20
ATOM     20  S   UNL     1      -1.475  12.517  20.864  0.00  0.00    +0.000 S 
BRANCH  20  21
ATOM     21  C   UNL     1      -0.481  11.113  20.381  0.00  0.00    +0.000 A 
ATOM     22  C   UNL     1      -0.251  10.007  21.208  0.00  0.00    +0.000 A 
ATOM     23  C   UNL     1       0.611   8.957  20.811  0.00  0.00    +0.000 A 
ATOM     24  C   UNL     1       1.253   9.022  19.555  0.00  0.00    +0.000 A 
ATOM     25  C   UNL     1       2.081   8.177  18.740  0.00  0.00    +0.000 A 
ATOM     26  N   UNL     1       2.457   8.813  17.616  0.00  0.00    +0.000 NA
ATOM     27  N   UNL     1       1.845  10.002  17.687  0.00  0.00    +0.000 N 
ATOM     28  C   UNL     1       1.073  10.174  18.800  0.00  0.00    +0.000 A 
ATOM     29  C   UNL     1       0.237  11.229  19.182  0.00  0.00    +0.000 A 
ATOM     30  H   UNL     1       1.977  10.656  16.925  0.00  0.00    +0.000 HD
BRANCH  25  31
ATOM     31  C   UNL     1       2.446   6.815  19.020  0.00  0.00    +0.000 C 
ATOM     32  C   UNL     1       2.496   5.843  18.087  0.00  0.00    +0.000 C 
BRANCH  32  33
ATOM     33  C   UNL     1       2.852   4.441  18.311  0.00  0.00    +0.000 A 
ATOM     34  C   UNL     1       2.160   3.436  17.635  0.00  0.00    +0.000 A 
ATOM     35  C   UNL     1       2.547   2.107  17.809  0.00  0.00    +0.000 A 
ATOM     36  C   UNL     1       3.606   1.818  18.656  0.00  0.00    +0.000 A 
ATOM     37  C   UNL     1       4.224   2.872  19.308  0.00  0.00    +0.000 A 
ATOM     38  N   UNL     1       3.875   4.171  19.158  0.00  0.00    +0.000 NA
ENDBRANCH  32  33
ENDBRANCH  25  31
ENDBRANCH  20  21
ENDBRANCH   6  20
TORSDOF 7
ENDMDL
