MODEL 1
REMARK VINA RESULT:      -8.7      0.000      0.000
REMARK  Name = 
REMARK  4 active torsions:
REMARK  status: ('A' for Active; 'I' for Inactive)
REMARK    1  A    between atoms: C_9  and  C_11
REMARK    2  A    between atoms: C_11  and  O_12
REMARK    3  A    between atoms: O_12  and  C_13
REMARK    4  A    between atoms: C_24  and  C_25
REMARK                            x       y       z     vdW  Elec       q    Type
REMARK                         _______ _______ _______ _____ _____    ______ ____
ROOT
ATOM      1  N   UNL     1       2.216   2.911  21.934  0.00  0.00    +0.000 N 
ATOM      2  C   UNL     1       2.706   3.634  20.864  0.00  0.00    +0.000 A 
ATOM      3  N   UNL     1       2.307   4.916  20.767  0.00  0.00    +0.000 NA
ATOM      4  C   UNL     1       2.699   5.685  19.705  0.00  0.00    +0.000 A 
ATOM      5  N   UNL     1       2.213   6.979  19.556  0.00  0.00    +0.000 N 
ATOM      6  C   UNL     1       3.009   7.960  18.803  0.00  0.00    +0.000 C 
ATOM      7  C   UNL     1       2.088   9.042  18.229  0.00  0.00    +0.000 C 
ATOM      8  N   UNL     1       1.235   9.633  19.263  0.00  0.00    +0.000 N 
ATOM      9  C   UNL     1       1.047  10.991  19.451  0.00  0.00    +0.000 C 
ATOM     10  O   UNL     1       0.312  11.432  20.338  0.00  0.00    +0.000 OA
ATOM     11  C   UNL     1       0.497   8.651  20.077  0.00  0.00    +0.000 C 
ATOM     12  C   UNL     1       1.431   7.566  20.655  0.00  0.00    +0.000 C 
ATOM     13  C   UNL     1       3.527   5.052  18.752  0.00  0.00    +0.000 A 
ATOM     14  N   UNL     1       4.051   5.467  17.550  0.00  0.00    +0.000 NA
ATOM     15  C   UNL     1       4.752   4.456  17.083  0.00  0.00    +0.000 A 
ATOM     16  N   UNL     1       4.685   3.389  17.949  0.00  0.00    +0.000 N 
ATOM     17  C   UNL     1       3.890   3.745  19.001  0.00  0.00    +0.000 A 
ATOM     18  N   UNL     1       3.536   2.980  20.037  0.00  0.00    +0.000 NA
ATOM     19  H   UNL     1       1.955   3.530  22.688  0.00  0.00    +0.000 HD
ATOM     20  H   UNL     1       2.822   2.132  22.145  0.00  0.00    +0.000 HD
ATOM     21  H   UNL     1       5.089   2.477  17.815  0.00  0.00    +0.000 HD
ENDROOT
BRANCH  15  22
ATOM     22  C   UNL     1       5.462   4.456  15.809  0.00  0.00    +0.000 A 
ATOM     23  C   UNL     1       4.977   3.749  14.699  0.00  0.00    +0.000 A 
ATOM     24  C   UNL     1       5.675   3.770  13.489  0.00  0.00    +0.000 A 
ATOM     25  C   UNL     1       6.861   4.495  13.393  0.00  0.00    +0.000 A 
ATOM     26  F   UNL     1       7.522   4.516  12.228  0.00  0.00    +0.000 F 
ATOM     27  C   UNL     1       7.367   5.189  14.481  0.00  0.00    +0.000 A 
ATOM     28  C   UNL     1       6.673   5.163  15.691  0.00  0.00    +0.000 A 
ENDBRANCH  15  22
BRANCH   9  29
ATOM     29  C   UNL     1       1.775  11.953  18.503  0.00  0.00    +0.000 C 
BRANCH  29  30
ATOM     30  O   UNL     1       2.421  12.984  19.244  0.00  0.00    +0.000 OA
BRANCH  30  31
ATOM     31  C   UNL     1       2.174  14.273  18.852  0.00  0.00    +0.000 A 
ATOM     32  C   UNL     1       3.092  15.128  18.239  0.00  0.00    +0.000 A 
ATOM     33  C   UNL     1       2.722  16.434  17.897  0.00  0.00    +0.000 A 
ATOM     34  C   UNL     1       1.431  16.885  18.163  0.00  0.00    +0.000 A 
ATOM     35 CL   UNL     1       0.981  18.488  17.727  0.00  0.00    +0.000 Cl
ATOM     36  C   UNL     1       0.507  16.043  18.774  0.00  0.00    +0.000 A 
ATOM     37  C   UNL     1       0.882  14.740  19.120  0.00  0.00    +0.000 A 
ENDBRANCH  30  31
ENDBRANCH  29  30
ENDBRANCH   9  29
TORSDOF 4
ENDMDL
MODEL 2
REMARK VINA RESULT:      -8.7      0.617      1.031
REMARK  Name = 
REMARK  4 active torsions:
REMARK  status: ('A' for Active; 'I' for Inactive)
REMARK    1  A    between atoms: C_9  and  C_11
REMARK    2  A    between atoms: C_11  and  O_12
REMARK    3  A    between atoms: O_12  and  C_13
REMARK    4  A    between atoms: C_24  and  C_25
REMARK                            x       y       z     vdW  Elec       q    Type
REMARK                         _______ _______ _______ _____ _____    ______ ____
ROOT
ATOM      1  N   UNL     1       2.794   2.650  21.448  0.00  0.00    +0.000 N 
ATOM      2  C   UNL     1       3.208   3.387  20.356  0.00  0.00    +0.000 A 
ATOM      3  N   UNL     1       2.779   4.662  20.289  0.00  0.00    +0.000 NA
ATOM      4  C   UNL     1       3.095   5.444  19.211  0.00  0.00    +0.000 A 
ATOM      5  N   UNL     1       2.576   6.729  19.098  0.00  0.00    +0.000 N 
ATOM      6  C   UNL     1       3.309   7.729  18.307  0.00  0.00    +0.000 C 
ATOM      7  C   UNL     1       2.336   8.795  17.792  0.00  0.00    +0.000 C 
ATOM      8  N   UNL     1       1.532   9.364  18.876  0.00  0.00    +0.000 N 
ATOM      9  C   UNL     1       1.329  10.717  19.083  0.00  0.00    +0.000 C 
ATOM     10  O   UNL     1       0.637  11.139  20.013  0.00  0.00    +0.000 OA
ATOM     11  C   UNL     1       0.860   8.364  19.725  0.00  0.00    +0.000 C 
ATOM     12  C   UNL     1       1.847   7.294  20.243  0.00  0.00    +0.000 C 
ATOM     13  C   UNL     1       3.880   4.831  18.210  0.00  0.00    +0.000 A 
ATOM     14  N   UNL     1       4.327   5.263  16.982  0.00  0.00    +0.000 NA
ATOM     15  C   UNL     1       5.021   4.268  16.470  0.00  0.00    +0.000 A 
ATOM     16  N   UNL     1       5.023   3.196  17.332  0.00  0.00    +0.000 N 
ATOM     17  C   UNL     1       4.282   3.531  18.429  0.00  0.00    +0.000 A 
ATOM     18  N   UNL     1       4.002   2.754  19.479  0.00  0.00    +0.000 NA
ATOM     19  H   UNL     1       2.563   3.259  22.219  0.00  0.00    +0.000 HD
ATOM     20  H   UNL     1       3.425   1.882  21.619  0.00  0.00    +0.000 HD
ATOM     21  H   UNL     1       5.437   2.293  17.170  0.00  0.00    +0.000 HD
ENDROOT
BRANCH  15  22
ATOM     22  C   UNL     1       5.656   4.289  15.158  0.00  0.00    +0.000 A 
ATOM     23  C   UNL     1       5.103   3.609  14.064  0.00  0.00    +0.000 A 
ATOM     24  C   UNL     1       5.731   3.648  12.817  0.00  0.00    +0.000 A 
ATOM     25  C   UNL     1       6.917   4.365  12.667  0.00  0.00    +0.000 A 
ATOM     26  F   UNL     1       7.511   4.405  11.468  0.00  0.00    +0.000 F 
ATOM     27  C   UNL     1       7.491   5.032  13.739  0.00  0.00    +0.000 A 
ATOM     28  C   UNL     1       6.866   4.987  14.986  0.00  0.00    +0.000 A 
ENDBRANCH  15  22
BRANCH   9  29
ATOM     29  C   UNL     1       1.983  11.698  18.101  0.00  0.00    +0.000 C 
BRANCH  29  30
ATOM     30  O   UNL     1       2.683  12.715  18.810  0.00  0.00    +0.000 OA
BRANCH  30  31
ATOM     31  C   UNL     1       2.210  13.994  18.683  0.00  0.00    +0.000 A 
ATOM     32  C   UNL     1       0.905  14.410  18.954  0.00  0.00    +0.000 A 
ATOM     33  C   UNL     1       0.538  15.748  18.773  0.00  0.00    +0.000 A 
ATOM     34  C   UNL     1       1.476  16.674  18.324  0.00  0.00    +0.000 A 
ATOM     35 CL   UNL     1       1.019  18.320  18.115  0.00  0.00    +0.000 Cl
ATOM     36  C   UNL     1       2.780  16.272  18.049  0.00  0.00    +0.000 A 
ATOM     37  C   UNL     1       3.142  14.933  18.226  0.00  0.00    +0.000 A 
ENDBRANCH  30  31
ENDBRANCH  29  30
ENDBRANCH   9  29
TORSDOF 4
ENDMDL
MODEL 3
REMARK VINA RESULT:      -8.7      0.181      1.180
REMARK  Name = 
REMARK  4 active torsions:
REMARK  status: ('A' for Active; 'I' for Inactive)
REMARK    1  A    between atoms: C_9  and  C_11
REMARK    2  A    between atoms: C_11  and  O_12
REMARK    3  A    between atoms: O_12  and  C_13
REMARK    4  A    between atoms: C_24  and  C_25
REMARK                            x       y       z     vdW  Elec       q    Type
REMARK                         _______ _______ _______ _____ _____    ______ ____
ROOT
ATOM      1  N   UNL     1       2.223   2.917  22.014  0.00  0.00    +0.000 N 
ATOM      2  C   UNL     1       2.707   3.637  20.939  0.00  0.00    +0.000 A 
ATOM      3  N   UNL     1       2.301   4.918  20.837  0.00  0.00    +0.000 NA
ATOM      4  C   UNL     1       2.687   5.684  19.771  0.00  0.00    +0.000 A 
ATOM      5  N   UNL     1       2.194   6.974  19.618  0.00  0.00    +0.000 N 
ATOM      6  C   UNL     1       2.984   7.956  18.859  0.00  0.00    +0.000 C 
ATOM      7  C   UNL     1       2.056   9.031  18.282  0.00  0.00    +0.000 C 
ATOM      8  N   UNL     1       1.203   9.622  19.315  0.00  0.00    +0.000 N 
ATOM      9  C   UNL     1       1.009  10.980  19.498  0.00  0.00    +0.000 C 
ATOM     10  O   UNL     1       0.274  11.421  20.385  0.00  0.00    +0.000 OA
ATOM     11  C   UNL     1       0.471   8.640  20.135  0.00  0.00    +0.000 C 
ATOM     12  C   UNL     1       1.412   7.562  20.716  0.00  0.00    +0.000 C 
ATOM     13  C   UNL     1       3.516   5.050  18.820  0.00  0.00    +0.000 A 
ATOM     14  N   UNL     1       4.036   5.463  17.615  0.00  0.00    +0.000 NA
ATOM     15  C   UNL     1       4.741   4.453  17.151  0.00  0.00    +0.000 A 
ATOM     16  N   UNL     1       4.681   3.390  18.021  0.00  0.00    +0.000 N 
ATOM     17  C   UNL     1       3.886   3.746  19.073  0.00  0.00    +0.000 A 
ATOM     18  N   UNL     1       3.538   2.984  20.113  0.00  0.00    +0.000 NA
ATOM     19  H   UNL     1       1.960   3.538  22.766  0.00  0.00    +0.000 HD
ATOM     20  H   UNL     1       2.832   2.142  22.226  0.00  0.00    +0.000 HD
ATOM     21  H   UNL     1       5.089   2.479  17.891  0.00  0.00    +0.000 HD
ENDROOT
BRANCH  15  22
ATOM     22  C   UNL     1       5.447   4.451  15.874  0.00  0.00    +0.000 A 
ATOM     23  C   UNL     1       6.722   5.019  15.740  0.00  0.00    +0.000 A 
ATOM     24  C   UNL     1       7.377   5.000  14.507  0.00  0.00    +0.000 A 
ATOM     25  C   UNL     1       6.753   4.416  13.406  0.00  0.00    +0.000 A 
ATOM     26  F   UNL     1       7.389   4.394  12.228  0.00  0.00    +0.000 F 
ATOM     27  C   UNL     1       5.487   3.861  13.512  0.00  0.00    +0.000 A 
ATOM     28  C   UNL     1       4.830   3.886  14.743  0.00  0.00    +0.000 A 
ENDBRANCH  15  22
BRANCH   9  29
ATOM     29  C   UNL     1       1.730  11.942  18.544  0.00  0.00    +0.000 C 
BRANCH  29  30
ATOM     30  O   UNL     1       2.299  13.026  19.271  0.00  0.00    +0.000 OA
BRANCH  30  31
ATOM     31  C   UNL     1       1.845  14.281  18.963  0.00  0.00    +0.000 A 
ATOM     32  C   UNL     1       0.520  14.712  19.049  0.00  0.00    +0.000 A 
ATOM     33  C   UNL     1       0.178  16.021  18.693  0.00  0.00    +0.000 A 
ATOM     34  C   UNL     1       1.161  16.904  18.253  0.00  0.00    +0.000 A 
ATOM     35 CL   UNL     1       0.733  18.515  17.828  0.00  0.00    +0.000 Cl
ATOM     36  C   UNL     1       2.486  16.487  18.161  0.00  0.00    +0.000 A 
ATOM     37  C   UNL     1       2.824  15.176  18.514  0.00  0.00    +0.000 A 
ENDBRANCH  30  31
ENDBRANCH  29  30
ENDBRANCH   9  29
TORSDOF 4
ENDMDL
MODEL 4
REMARK VINA RESULT:      -8.5      1.247      1.536
REMARK  Name = 
REMARK  4 active torsions:
REMARK  status: ('A' for Active; 'I' for Inactive)
REMARK    1  A    between atoms: C_9  and  C_11
REMARK    2  A    between atoms: C_11  and  O_12
REMARK    3  A    between atoms: O_12  and  C_13
REMARK    4  A    between atoms: C_24  and  C_25
REMARK                            x       y       z     vdW  Elec       q    Type
REMARK                         _______ _______ _______ _____ _____    ______ ____
ROOT
ATOM      1  N   UNL     1       2.527   2.816  21.486  0.00  0.00    +0.000 N 
ATOM      2  C   UNL     1       2.992   3.535  20.403  0.00  0.00    +0.000 A 
ATOM      3  N   UNL     1       2.612   4.825  20.325  0.00  0.00    +0.000 NA
ATOM      4  C   UNL     1       2.980   5.592  19.253  0.00  0.00    +0.000 A 
ATOM      5  N   UNL     1       2.511   6.895  19.127  0.00  0.00    +0.000 N 
ATOM      6  C   UNL     1       3.298   7.866  18.351  0.00  0.00    +0.000 C 
ATOM      7  C   UNL     1       2.376   8.966  17.813  0.00  0.00    +0.000 C 
ATOM      8  N   UNL     1       1.570   9.566  18.879  0.00  0.00    +0.000 N 
ATOM      9  C   UNL     1       1.413  10.927  19.079  0.00  0.00    +0.000 C 
ATOM     10  O   UNL     1       0.717  11.376  19.994  0.00  0.00    +0.000 OA
ATOM     11  C   UNL     1       0.844   8.594  19.714  0.00  0.00    +0.000 C 
ATOM     12  C   UNL     1       1.779   7.489  20.255  0.00  0.00    +0.000 C 
ATOM     13  C   UNL     1       3.763   4.949  18.270  0.00  0.00    +0.000 A 
ATOM     14  N   UNL     1       4.252   5.361  17.051  0.00  0.00    +0.000 NA
ATOM     15  C   UNL     1       4.919   4.340  16.556  0.00  0.00    +0.000 A 
ATOM     16  N   UNL     1       4.864   3.271  17.419  0.00  0.00    +0.000 N 
ATOM     17  C   UNL     1       4.112   3.635  18.499  0.00  0.00    +0.000 A 
ATOM     18  N   UNL     1       3.781   2.871  19.544  0.00  0.00    +0.000 NA
ATOM     19  H   UNL     1       2.303   3.435  22.252  0.00  0.00    +0.000 HD
ATOM     20  H   UNL     1       3.126   2.025  21.672  0.00  0.00    +0.000 HD
ATOM     21  H   UNL     1       5.247   2.352  17.268  0.00  0.00    +0.000 HD
ENDROOT
BRANCH  15  22
ATOM     22  C   UNL     1       5.583   4.334  15.257  0.00  0.00    +0.000 A 
ATOM     23  C   UNL     1       5.054   3.633  14.165  0.00  0.00    +0.000 A 
ATOM     24  C   UNL     1       5.709   3.647  12.932  0.00  0.00    +0.000 A 
ATOM     25  C   UNL     1       6.898   4.361  12.794  0.00  0.00    +0.000 A 
ATOM     26  F   UNL     1       7.518   4.377  11.607  0.00  0.00    +0.000 F 
ATOM     27  C   UNL     1       7.449   5.049  13.864  0.00  0.00    +0.000 A 
ATOM     28  C   UNL     1       6.797   5.029  15.098  0.00  0.00    +0.000 A 
ENDBRANCH  15  22
BRANCH   9  29
ATOM     29  C   UNL     1       2.123  11.881  18.110  0.00  0.00    +0.000 C 
BRANCH  29  30
ATOM     30  O   UNL     1       1.581  13.193  18.221  0.00  0.00    +0.000 OA
BRANCH  30  31
ATOM     31  C   UNL     1       2.444  14.187  18.602  0.00  0.00    +0.000 A 
ATOM     32  C   UNL     1       2.185  15.165  19.565  0.00  0.00    +0.000 A 
ATOM     33  C   UNL     1       3.146  16.139  19.859  0.00  0.00    +0.000 A 
ATOM     34  C   UNL     1       4.370  16.134  19.193  0.00  0.00    +0.000 A 
ATOM     35 CL   UNL     1       5.550  17.328  19.570  0.00  0.00    +0.000 Cl
ATOM     36  C   UNL     1       4.639  15.166  18.231  0.00  0.00    +0.000 A 
ATOM     37  C   UNL     1       3.675  14.197  17.936  0.00  0.00    +0.000 A 
ENDBRANCH  30  31
ENDBRANCH  29  30
ENDBRANCH   9  29
TORSDOF 4
ENDMDL
MODEL 5
REMARK VINA RESULT:      -8.5      1.587      2.095
REMARK  Name = 
REMARK  4 active torsions:
REMARK  status: ('A' for Active; 'I' for Inactive)
REMARK    1  A    between atoms: C_9  and  C_11
REMARK    2  A    between atoms: C_11  and  O_12
REMARK    3  A    between atoms: O_12  and  C_13
REMARK    4  A    between atoms: C_24  and  C_25
REMARK                            x       y       z     vdW  Elec       q    Type
REMARK                         _______ _______ _______ _____ _____    ______ ____
ROOT
ATOM      1  N   UNL     1       2.248   3.116  21.827  0.00  0.00    +0.000 N 
ATOM      2  C   UNL     1       2.741   3.805  20.737  0.00  0.00    +0.000 A 
ATOM      3  N   UNL     1       2.360   5.091  20.611  0.00  0.00    +0.000 NA
ATOM      4  C   UNL     1       2.757   5.829  19.529  0.00  0.00    +0.000 A 
ATOM      5  N   UNL     1       2.289   7.126  19.353  0.00  0.00    +0.000 N 
ATOM      6  C   UNL     1       3.094   8.077  18.572  0.00  0.00    +0.000 C 
ATOM      7  C   UNL     1       2.186   9.158  17.978  0.00  0.00    +0.000 C 
ATOM      8  N   UNL     1       1.349   9.786  19.002  0.00  0.00    +0.000 N 
ATOM      9  C   UNL     1       1.182  11.151  19.159  0.00  0.00    +0.000 C 
ATOM     10  O   UNL     1       0.460  11.624  20.040  0.00  0.00    +0.000 OA
ATOM     11  C   UNL     1       0.601   8.835  19.844  0.00  0.00    +0.000 C 
ATOM     12  C   UNL     1       1.523   7.750  20.442  0.00  0.00    +0.000 C 
ATOM     13  C   UNL     1       3.569   5.160  18.587  0.00  0.00    +0.000 A 
ATOM     14  N   UNL     1       4.092   5.539  17.372  0.00  0.00    +0.000 NA
ATOM     15  C   UNL     1       4.775   4.507  16.925  0.00  0.00    +0.000 A 
ATOM     16  N   UNL     1       4.698   3.462  17.816  0.00  0.00    +0.000 N 
ATOM     17  C   UNL     1       3.915   3.855  18.864  0.00  0.00    +0.000 A 
ATOM     18  N   UNL     1       3.556   3.120  19.920  0.00  0.00    +0.000 NA
ATOM     19  H   UNL     1       2.000   3.756  22.568  0.00  0.00    +0.000 HD
ATOM     20  H   UNL     1       2.843   2.333  22.052  0.00  0.00    +0.000 HD
ATOM     21  H   UNL     1       5.087   2.541  17.702  0.00  0.00    +0.000 HD
ENDROOT
BRANCH  15  22
ATOM     22  C   UNL     1       5.476   4.466  15.646  0.00  0.00    +0.000 A 
ATOM     23  C   UNL     1       6.740   5.049  15.484  0.00  0.00    +0.000 A 
ATOM     24  C   UNL     1       7.390   4.993  14.249  0.00  0.00    +0.000 A 
ATOM     25  C   UNL     1       6.771   4.355  13.175  0.00  0.00    +0.000 A 
ATOM     26  F   UNL     1       7.402   4.298  11.995  0.00  0.00    +0.000 F 
ATOM     27  C   UNL     1       5.514   3.785  13.309  0.00  0.00    +0.000 A 
ATOM     28  C   UNL     1       4.862   3.848  14.541  0.00  0.00    +0.000 A 
ENDBRANCH  15  22
BRANCH   9  29
ATOM     29  C   UNL     1       1.918  12.080  18.184  0.00  0.00    +0.000 C 
BRANCH  29  30
ATOM     30  O   UNL     1       1.833  13.431  18.627  0.00  0.00    +0.000 OA
BRANCH  30  31
ATOM     31  C   UNL     1       2.985  13.997  19.103  0.00  0.00    +0.000 A 
ATOM     32  C   UNL     1       3.287  14.222  20.448  0.00  0.00    +0.000 A 
ATOM     33  C   UNL     1       4.498  14.823  20.809  0.00  0.00    +0.000 A 
ATOM     34  C   UNL     1       5.412  15.198  19.827  0.00  0.00    +0.000 A 
ATOM     35 CL   UNL     1       6.903  15.925  20.281  0.00  0.00    +0.000 Cl
ATOM     36  C   UNL     1       5.122  14.981  18.483  0.00  0.00    +0.000 A 
ATOM     37  C   UNL     1       3.908  14.384  18.124  0.00  0.00    +0.000 A 
ENDBRANCH  30  31
ENDBRANCH  29  30
ENDBRANCH   9  29
TORSDOF 4
ENDMDL
MODEL 6
REMARK VINA RESULT:      -8.4      1.594      1.800
REMARK  Name = 
REMARK  4 active torsions:
REMARK  status: ('A' for Active; 'I' for Inactive)
REMARK    1  A    between atoms: C_9  and  C_11
REMARK    2  A    between atoms: C_11  and  O_12
REMARK    3  A    between atoms: O_12  and  C_13
REMARK    4  A    between atoms: C_24  and  C_25
REMARK                            x       y       z     vdW  Elec       q    Type
REMARK                         _______ _______ _______ _____ _____    ______ ____
ROOT
ATOM      1  N   UNL     1       1.854   2.533  22.181  0.00  0.00    +0.000 N 
ATOM      2  C   UNL     1       2.380   3.325  21.179  0.00  0.00    +0.000 A 
ATOM      3  N   UNL     1       1.965   4.605  21.140  0.00  0.00    +0.000 NA
ATOM      4  C   UNL     1       2.392   5.442  20.144  0.00  0.00    +0.000 A 
ATOM      5  N   UNL     1       1.891   6.735  20.051  0.00  0.00    +0.000 N 
ATOM      6  C   UNL     1       2.704   7.771  19.394  0.00  0.00    +0.000 C 
ATOM      7  C   UNL     1       1.793   8.872  18.844  0.00  0.00    +0.000 C 
ATOM      8  N   UNL     1       0.885   9.388  19.870  0.00  0.00    +0.000 N 
ATOM      9  C   UNL     1       0.667  10.731  20.130  0.00  0.00    +0.000 C 
ATOM     10  O   UNL     1      -0.114  11.107  21.007  0.00  0.00    +0.000 OA
ATOM     11  C   UNL     1       0.127   8.350  20.591  0.00  0.00    +0.000 C 
ATOM     12  C   UNL     1       1.052   7.244  21.145  0.00  0.00    +0.000 C 
ATOM     13  C   UNL     1       3.271   4.877  19.195  0.00  0.00    +0.000 A 
ATOM     14  N   UNL     1       3.842   5.371  18.045  0.00  0.00    +0.000 NA
ATOM     15  C   UNL     1       4.580   4.399  17.551  0.00  0.00    +0.000 A 
ATOM     16  N   UNL     1       4.492   3.282  18.348  0.00  0.00    +0.000 N 
ATOM     17  C   UNL     1       3.644   3.563  19.382  0.00  0.00    +0.000 A 
ATOM     18  N   UNL     1       3.257   2.733  20.353  0.00  0.00    +0.000 NA
ATOM     19  H   UNL     1       1.549   3.101  22.958  0.00  0.00    +0.000 HD
ATOM     20  H   UNL     1       2.463   1.750  22.373  0.00  0.00    +0.000 HD
ATOM     21  H   UNL     1       4.916   2.385  18.180  0.00  0.00    +0.000 HD
ENDROOT
BRANCH  15  22
ATOM     22  C   UNL     1       5.346   4.485  16.313  0.00  0.00    +0.000 A 
ATOM     23  C   UNL     1       4.828   4.020  15.096  0.00  0.00    +0.000 A 
ATOM     24  C   UNL     1       5.581   4.119  13.924  0.00  0.00    +0.000 A 
ATOM     25  C   UNL     1       6.856   4.678  13.972  0.00  0.00    +0.000 A 
ATOM     26  F   UNL     1       7.572   4.776  12.844  0.00  0.00    +0.000 F 
ATOM     27  C   UNL     1       7.395   5.131  15.167  0.00  0.00    +0.000 A 
ATOM     28  C   UNL     1       6.645   5.027  16.339  0.00  0.00    +0.000 A 
ENDBRANCH  15  22
BRANCH   9  29
ATOM     29  C   UNL     1       1.421  11.758  19.275  0.00  0.00    +0.000 C 
BRANCH  29  30
ATOM     30  O   UNL     1       1.551  12.988  19.980  0.00  0.00    +0.000 OA
BRANCH  30  31
ATOM     31  C   UNL     1       2.707  13.695  19.779  0.00  0.00    +0.000 A 
ATOM     32  C   UNL     1       3.489  14.278  20.779  0.00  0.00    +0.000 A 
ATOM     33  C   UNL     1       4.647  14.988  20.445  0.00  0.00    +0.000 A 
ATOM     34  C   UNL     1       5.029  15.114  19.112  0.00  0.00    +0.000 A 
ATOM     35 CL   UNL     1       6.461  15.979  18.712  0.00  0.00    +0.000 Cl
ATOM     36  C   UNL     1       4.257  14.539  18.106  0.00  0.00    +0.000 A 
ATOM     37  C   UNL     1       3.097  13.833  18.442  0.00  0.00    +0.000 A 
ENDBRANCH  30  31
ENDBRANCH  29  30
ENDBRANCH   9  29
TORSDOF 4
ENDMDL
MODEL 7
REMARK VINA RESULT:      -8.3      2.679      3.240
REMARK  Name = 
REMARK  4 active torsions:
REMARK  status: ('A' for Active; 'I' for Inactive)
REMARK    1  A    between atoms: C_9  and  C_11
REMARK    2  A    between atoms: C_11  and  O_12
REMARK    3  A    between atoms: O_12  and  C_13
REMARK    4  A    between atoms: C_24  and  C_25
REMARK                            x       y       z     vdW  Elec       q    Type
REMARK                         _______ _______ _______ _____ _____    ______ ____
ROOT
ATOM      1  N   UNL     1       2.121   2.139  22.238  0.00  0.00    +0.000 N 
ATOM      2  C   UNL     1       2.590   2.992  21.258  0.00  0.00    +0.000 A 
ATOM      3  N   UNL     1       2.111   4.250  21.271  0.00  0.00    +0.000 NA
ATOM      4  C   UNL     1       2.479   5.142  20.300  0.00  0.00    +0.000 A 
ATOM      5  N   UNL     1       1.914   6.411  20.260  0.00  0.00    +0.000 N 
ATOM      6  C   UNL     1       2.664   7.509  19.630  0.00  0.00    +0.000 C 
ATOM      7  C   UNL     1       1.690   8.582  19.133  0.00  0.00    +0.000 C 
ATOM      8  N   UNL     1       0.775   9.015  20.191  0.00  0.00    +0.000 N 
ATOM      9  C   UNL     1       0.494  10.335  20.502  0.00  0.00    +0.000 C 
ATOM     10  O   UNL     1      -0.290  10.640  21.404  0.00  0.00    +0.000 OA
ATOM     11  C   UNL     1       0.081   7.915  20.884  0.00  0.00    +0.000 C 
ATOM     12  C   UNL     1       1.069   6.839  21.385  0.00  0.00    +0.000 C 
ATOM     13  C   UNL     1       3.371   4.656  19.318  0.00  0.00    +0.000 A 
ATOM     14  N   UNL     1       3.898   5.219  18.178  0.00  0.00    +0.000 NA
ATOM     15  C   UNL     1       4.675   4.303  17.640  0.00  0.00    +0.000 A 
ATOM     16  N   UNL     1       4.655   3.155  18.397  0.00  0.00    +0.000 N 
ATOM     17  C   UNL     1       3.811   3.357  19.452  0.00  0.00    +0.000 A 
ATOM     18  N   UNL     1       3.481   2.474  20.399  0.00  0.00    +0.000 NA
ATOM     19  H   UNL     1       1.800   2.664  23.039  0.00  0.00    +0.000 HD
ATOM     20  H   UNL     1       2.770   1.382  22.392  0.00  0.00    +0.000 HD
ATOM     21  H   UNL     1       5.120   2.287  18.190  0.00  0.00    +0.000 HD
ENDROOT
BRANCH  15  22
ATOM     22  C   UNL     1       5.415   4.471  16.394  0.00  0.00    +0.000 A 
ATOM     23  C   UNL     1       4.866   4.100  15.158  0.00  0.00    +0.000 A 
ATOM     24  C   UNL     1       5.596   4.276  13.980  0.00  0.00    +0.000 A 
ATOM     25  C   UNL     1       6.878   4.819  14.041  0.00  0.00    +0.000 A 
ATOM     26  F   UNL     1       7.570   4.991  12.908  0.00  0.00    +0.000 F 
ATOM     27  C   UNL     1       7.447   5.179  15.253  0.00  0.00    +0.000 A 
ATOM     28  C   UNL     1       6.720   4.997  16.430  0.00  0.00    +0.000 A 
ENDBRANCH  15  22
BRANCH   9  29
ATOM     29  C   UNL     1       1.182  11.428  19.674  0.00  0.00    +0.000 C 
BRANCH  29  30
ATOM     30  O   UNL     1       0.589  11.518  18.382  0.00  0.00    +0.000 OA
BRANCH  30  31
ATOM     31  C   UNL     1      -0.778  11.442  18.325  0.00  0.00    +0.000 A 
ATOM     32  C   UNL     1      -1.669  12.338  18.920  0.00  0.00    +0.000 A 
ATOM     33  C   UNL     1      -3.049  12.146  18.800  0.00  0.00    +0.000 A 
ATOM     34  C   UNL     1      -3.543  11.060  18.081  0.00  0.00    +0.000 A 
ATOM     35 CL   UNL     1      -5.242  10.838  17.929  0.00  0.00    +0.000 Cl
ATOM     36  C   UNL     1      -2.666  10.159  17.484  0.00  0.00    +0.000 A 
ATOM     37  C   UNL     1      -1.286  10.351  17.610  0.00  0.00    +0.000 A 
ENDBRANCH  30  31
ENDBRANCH  29  30
ENDBRANCH   9  29
TORSDOF 4
ENDMDL
MODEL 8
REMARK VINA RESULT:      -8.1      0.947      1.088
REMARK  Name = 
REMARK  4 active torsions:
REMARK  status: ('A' for Active; 'I' for Inactive)
REMARK    1  A    between atoms: C_9  and  C_11
REMARK    2  A    between atoms: C_11  and  O_12
REMARK    3  A    between atoms: O_12  and  C_13
REMARK    4  A    between atoms: C_24  and  C_25
REMARK                            x       y       z     vdW  Elec       q    Type
REMARK                         _______ _______ _______ _____ _____    ______ ____
ROOT
ATOM      1  N   UNL     1       2.208   3.174  21.939  0.00  0.00    +0.000 N 
ATOM      2  C   UNL     1       2.697   3.860  20.844  0.00  0.00    +0.000 A 
ATOM      3  N   UNL     1       2.298   5.139  20.706  0.00  0.00    +0.000 NA
ATOM      4  C   UNL     1       2.689   5.873  19.619  0.00  0.00    +0.000 A 
ATOM      5  N   UNL     1       2.204   7.161  19.429  0.00  0.00    +0.000 N 
ATOM      6  C   UNL     1       2.999   8.116  18.642  0.00  0.00    +0.000 C 
ATOM      7  C   UNL     1       2.078   9.179  18.035  0.00  0.00    +0.000 C 
ATOM      8  N   UNL     1       1.228   9.805  19.050  0.00  0.00    +0.000 N 
ATOM      9  C   UNL     1       1.042  11.169  19.194  0.00  0.00    +0.000 C 
ATOM     10  O   UNL     1       0.309  11.639  20.068  0.00  0.00    +0.000 OA
ATOM     11  C   UNL     1       0.490   8.851  19.898  0.00  0.00    +0.000 C 
ATOM     12  C   UNL     1       1.425   7.784  20.509  0.00  0.00    +0.000 C 
ATOM     13  C   UNL     1       3.514   5.207  18.686  0.00  0.00    +0.000 A 
ATOM     14  N   UNL     1       4.036   5.582  17.469  0.00  0.00    +0.000 NA
ATOM     15  C   UNL     1       4.735   4.555  17.035  0.00  0.00    +0.000 A 
ATOM     16  N   UNL     1       4.669   3.518  17.935  0.00  0.00    +0.000 N 
ATOM     17  C   UNL     1       3.877   3.909  18.976  0.00  0.00    +0.000 A 
ATOM     18  N   UNL     1       3.524   3.179  20.037  0.00  0.00    +0.000 NA
ATOM     19  H   UNL     1       1.949   3.817  22.673  0.00  0.00    +0.000 HD
ATOM     20  H   UNL     1       2.813   2.401  22.174  0.00  0.00    +0.000 HD
ATOM     21  H   UNL     1       5.072   2.601  17.831  0.00  0.00    +0.000 HD
ENDROOT
BRANCH  15  22
ATOM     22  C   UNL     1       5.442   4.513  15.759  0.00  0.00    +0.000 A 
ATOM     23  C   UNL     1       4.939   3.796  14.665  0.00  0.00    +0.000 A 
ATOM     24  C   UNL     1       5.634   3.775  13.454  0.00  0.00    +0.000 A 
ATOM     25  C   UNL     1       6.837   4.470  13.341  0.00  0.00    +0.000 A 
ATOM     26  F   UNL     1       7.496   4.452  12.175  0.00  0.00    +0.000 F 
ATOM     27  C   UNL     1       7.362   5.173  14.414  0.00  0.00    +0.000 A 
ATOM     28  C   UNL     1       6.670   5.188  15.626  0.00  0.00    +0.000 A 
ENDBRANCH  15  22
BRANCH   9  29
ATOM     29  C   UNL     1       1.768  12.099  18.214  0.00  0.00    +0.000 C 
BRANCH  29  30
ATOM     30  O   UNL     1       2.876  12.725  18.853  0.00  0.00    +0.000 OA
BRANCH  30  31
ATOM     31  C   UNL     1       2.657  13.964  19.394  0.00  0.00    +0.000 A 
ATOM     32  C   UNL     1       2.810  14.305  20.739  0.00  0.00    +0.000 A 
ATOM     33  C   UNL     1       2.542  15.608  21.174  0.00  0.00    +0.000 A 
ATOM     34  C   UNL     1       2.123  16.574  20.262  0.00  0.00    +0.000 A 
ATOM     35 CL   UNL     1       1.807  18.176  20.803  0.00  0.00    +0.000 Cl
ATOM     36  C   UNL     1       1.965  16.247  18.919  0.00  0.00    +0.000 A 
ATOM     37  C   UNL     1       2.229  14.943  18.489  0.00  0.00    +0.000 A 
ENDBRANCH  30  31
ENDBRANCH  29  30
ENDBRANCH   9  29
TORSDOF 4
ENDMDL
MODEL 9
REMARK VINA RESULT:      -8.0      4.718      7.630
REMARK  Name = 
REMARK  4 active torsions:
REMARK  status: ('A' for Active; 'I' for Inactive)
REMARK    1  A    between atoms: C_9  and  C_11
REMARK    2  A    between atoms: C_11  and  O_12
REMARK    3  A    between atoms: O_12  and  C_13
REMARK    4  A    between atoms: C_24  and  C_25
REMARK                            x       y       z     vdW  Elec       q    Type
REMARK                         _______ _______ _______ _____ _____    ______ ____
ROOT
ATOM      1  N   UNL     1      -3.456  13.375  19.845  0.00  0.00    +0.000 N 
ATOM      2  C   UNL     1      -2.191  12.825  19.770  0.00  0.00    +0.000 A 
ATOM      3  N   UNL     1      -1.156  13.687  19.785  0.00  0.00    +0.000 NA
ATOM      4  C   UNL     1       0.128  13.229  19.657  0.00  0.00    +0.000 A 
ATOM      5  N   UNL     1       1.189  14.124  19.580  0.00  0.00    +0.000 N 
ATOM      6  C   UNL     1       2.528  13.683  20.000  0.00  0.00    +0.000 C 
ATOM      7  C   UNL     1       3.595  14.516  19.282  0.00  0.00    +0.000 C 
ATOM      8  N   UNL     1       3.361  15.952  19.444  0.00  0.00    +0.000 N 
ATOM      9  C   UNL     1       4.327  16.873  19.811  0.00  0.00    +0.000 C 
ATOM     10  O   UNL     1       4.073  18.075  19.929  0.00  0.00    +0.000 OA
ATOM     11  C   UNL     1       1.996  16.389  19.104  0.00  0.00    +0.000 C 
ATOM     12  C   UNL     1       0.925  15.548  19.834  0.00  0.00    +0.000 C 
ATOM     13  C   UNL     1       0.276  11.832  19.513  0.00  0.00    +0.000 A 
ATOM     14  N   UNL     1       1.372  11.029  19.296  0.00  0.00    +0.000 NA
ATOM     15  C   UNL     1       0.921   9.794  19.242  0.00  0.00    +0.000 A 
ATOM     16  N   UNL     1      -0.444   9.777  19.407  0.00  0.00    +0.000 N 
ATOM     17  C   UNL     1      -0.870  11.067  19.555  0.00  0.00    +0.000 A 
ATOM     18  N   UNL     1      -2.129  11.487  19.697  0.00  0.00    +0.000 NA
ATOM     19  H   UNL     1      -3.422  14.283  20.285  0.00  0.00    +0.000 HD
ATOM     20  H   UNL     1      -4.118  12.700  20.196  0.00  0.00    +0.000 HD
ATOM     21  H   UNL     1      -1.048   8.974  19.363  0.00  0.00    +0.000 HD
ENDROOT
BRANCH  15  22
ATOM     22  C   UNL     1       1.749   8.618  18.999  0.00  0.00    +0.000 A 
ATOM     23  C   UNL     1       2.456   8.454  17.800  0.00  0.00    +0.000 A 
ATOM     24  C   UNL     1       3.244   7.319  17.594  0.00  0.00    +0.000 A 
ATOM     25  C   UNL     1       3.320   6.346  18.589  0.00  0.00    +0.000 A 
ATOM     26  F   UNL     1       4.083   5.263  18.389  0.00  0.00    +0.000 F 
ATOM     27  C   UNL     1       2.617   6.479  19.776  0.00  0.00    +0.000 A 
ATOM     28  C   UNL     1       1.824   7.610  19.978  0.00  0.00    +0.000 A 
ENDBRANCH  15  22
BRANCH   9  29
ATOM     29  C   UNL     1       5.752  16.359  20.056  0.00  0.00    +0.000 C 
BRANCH  29  30
ATOM     30  O   UNL     1       6.458  16.251  18.824  0.00  0.00    +0.000 OA
BRANCH  30  31
ATOM     31  C   UNL     1       7.277  15.163  18.675  0.00  0.00    +0.000 A 
ATOM     32  C   UNL     1       8.398  14.874  19.456  0.00  0.00    +0.000 A 
ATOM     33  C   UNL     1       9.165  13.733  19.197  0.00  0.00    +0.000 A 
ATOM     34  C   UNL     1       8.810  12.875  18.158  0.00  0.00    +0.000 A 
ATOM     35 CL   UNL     1       9.752  11.469  17.853  0.00  0.00    +0.000 Cl
ATOM     36  C   UNL     1       7.696  13.153  17.371  0.00  0.00    +0.000 A 
ATOM     37  C   UNL     1       6.934  14.297  17.630  0.00  0.00    +0.000 A 
ENDBRANCH  30  31
ENDBRANCH  29  30
ENDBRANCH   9  29
TORSDOF 4
ENDMDL
