MODEL 1
REMARK VINA RESULT:      -8.7      0.000      0.000
REMARK  Name = 
REMARK  5 active torsions:
REMARK  status: ('A' for Active; 'I' for Inactive)
REMARK    1  A    between atoms: C_1  and  C_2
REMARK    2  A    between atoms: C_5  and  C_6
REMARK    3  A    between atoms: C_15  and  C_16
REMARK    4  A    between atoms: C_21  and  N_22
REMARK    5  A    between atoms: C_23  and  C_25
REMARK                            x       y       z     vdW  Elec       q    Type
REMARK                         _______ _______ _______ _____ _____    ______ ____
ROOT
ATOM      1  C   UNL     1       2.531   7.033  18.526  0.00  0.00    +0.000 A 
ATOM      2  C   UNL     1       2.058   8.028  17.659  0.00  0.00    +0.000 A 
ATOM      3  C   UNL     1       1.482   9.223  18.109  0.00  0.00    +0.000 A 
ATOM      4  C   UNL     1       1.268   9.421  19.467  0.00  0.00    +0.000 A 
ATOM      5  C   UNL     1       0.643  10.578  19.959  0.00  0.00    +0.000 A 
ATOM      6  C   UNL     1       0.434  10.688  21.327  0.00  0.00    +0.000 A 
ATOM      7  N   UNL     1       0.800   9.736  22.196  0.00  0.00    +0.000 NA
ATOM      8  C   UNL     1       1.408   8.628  21.711  0.00  0.00    +0.000 A 
ATOM      9  C   UNL     1       1.673   8.418  20.363  0.00  0.00    +0.000 A 
ATOM     10  C   UNL     1       2.316   7.264  19.902  0.00  0.00    +0.000 A 
ENDROOT
BRANCH   1  17
ATOM     11  C   UNL     1       1.468   4.170  19.077  0.00  0.00    +0.000 C 
ATOM     12  C   UNL     1       2.733   4.480  18.320  0.00  0.00    +0.000 A 
ATOM     13  C   UNL     1       3.427   3.369  17.821  0.00  0.00    +0.000 A 
ATOM     14  C   UNL     1       4.530   3.525  17.001  0.00  0.00    +0.000 A 
ATOM     15  C   UNL     1       5.071   4.793  16.765  0.00  0.00    +0.000 A 
ATOM     16  C   UNL     1       4.381   5.906  17.262  0.00  0.00    +0.000 A 
ATOM     17  C   UNL     1       3.207   5.795  18.047  0.00  0.00    +0.000 A 
BRANCH  15  18
ATOM     18  C   UNL     1       6.328   5.001  15.971  0.00  0.00    +0.000 C 
ATOM     19  O   UNL     1       7.362   5.274  16.574  0.00  0.00    +0.000 OA
ATOM     20  N   UNL     1       6.284   4.842  14.576  0.00  0.00    +0.000 N 
ATOM     21  C   UNL     1       5.138   4.419  13.759  0.00  0.00    +0.000 C 
ATOM     22  C   UNL     1       5.519   3.386  12.715  0.00  0.00    +0.000 C 
ATOM     23  O   UNL     1       6.596   3.849  11.901  0.00  0.00    +0.000 OA
ATOM     24  C   UNL     1       7.750   4.134  12.715  0.00  0.00    +0.000 C 
ATOM     25  C   UNL     1       7.446   5.217  13.762  0.00  0.00    +0.000 C 
ENDBRANCH  15  18
ENDBRANCH   1  17
BRANCH   6  26
ATOM     26  N   UNL     1      -0.178  11.860  21.803  0.00  0.00    +0.000 N 
ATOM     27  C   UNL     1      -1.172  11.897  22.748  0.00  0.00    +0.000 C 
ATOM     28  O   UNL     1      -1.731  10.958  23.295  0.00  0.00    +0.000 OA
ATOM     29  H   UNL     1       0.150  12.730  21.416  0.00  0.00    +0.000 HD
BRANCH  27  30
ATOM     30  C   UNL     1      -1.588  13.293  23.096  0.00  0.00    +0.000 C 
ATOM     31  C   UNL     1      -2.812  13.893  22.441  0.00  0.00    +0.000 C 
ATOM     32  C   UNL     1      -2.842  13.549  23.901  0.00  0.00    +0.000 C 
ENDBRANCH  27  30
ENDBRANCH   6  26
TORSDOF 4
ENDMDL
MODEL 2
REMARK VINA RESULT:      -8.6      0.982      1.090
REMARK  Name = 
REMARK  5 active torsions:
REMARK  status: ('A' for Active; 'I' for Inactive)
REMARK    1  A    between atoms: C_1  and  C_2
REMARK    2  A    between atoms: C_5  and  C_6
REMARK    3  A    between atoms: C_15  and  C_16
REMARK    4  A    between atoms: C_21  and  N_22
REMARK    5  A    between atoms: C_23  and  C_25
REMARK                            x       y       z     vdW  Elec       q    Type
REMARK                         _______ _______ _______ _____ _____    ______ ____
ROOT
ATOM      1  C   UNL     1       2.511   7.095  18.486  0.00  0.00    +0.000 A 
ATOM      2  C   UNL     1       2.106   8.107  17.605  0.00  0.00    +0.000 A 
ATOM      3  C   UNL     1       1.471   9.282  18.030  0.00  0.00    +0.000 A 
ATOM      4  C   UNL     1       1.126   9.438  19.366  0.00  0.00    +0.000 A 
ATOM      5  C   UNL     1       0.439  10.572  19.827  0.00  0.00    +0.000 A 
ATOM      6  C   UNL     1       0.100  10.641  21.172  0.00  0.00    +0.000 A 
ATOM      7  N   UNL     1       0.396   9.669  22.046  0.00  0.00    +0.000 NA
ATOM      8  C   UNL     1       1.066   8.584  21.591  0.00  0.00    +0.000 A 
ATOM      9  C   UNL     1       1.461   8.416  20.269  0.00  0.00    +0.000 A 
ATOM     10  C   UNL     1       2.163   7.284  19.840  0.00  0.00    +0.000 A 
ENDROOT
BRANCH   1  17
ATOM     11  C   UNL     1       1.616   4.199  19.150  0.00  0.00    +0.000 C 
ATOM     12  C   UNL     1       2.853   4.551  18.366  0.00  0.00    +0.000 A 
ATOM     13  C   UNL     1       3.602   3.464  17.895  0.00  0.00    +0.000 A 
ATOM     14  C   UNL     1       4.684   3.652  17.054  0.00  0.00    +0.000 A 
ATOM     15  C   UNL     1       5.151   4.938  16.768  0.00  0.00    +0.000 A 
ATOM     16  C   UNL     1       4.406   6.028  17.236  0.00  0.00    +0.000 A 
ATOM     17  C   UNL     1       3.249   5.880  18.040  0.00  0.00    +0.000 A 
BRANCH  15  18
ATOM     18  C   UNL     1       6.384   5.188  15.949  0.00  0.00    +0.000 C 
ATOM     19  O   UNL     1       7.404   5.554  16.526  0.00  0.00    +0.000 OA
ATOM     20  N   UNL     1       6.337   4.960  14.564  0.00  0.00    +0.000 N 
ATOM     21  C   UNL     1       5.213   4.427  13.782  0.00  0.00    +0.000 C 
ATOM     22  C   UNL     1       5.649   3.372  12.782  0.00  0.00    +0.000 C 
ATOM     23  O   UNL     1       6.687   3.863  11.934  0.00  0.00    +0.000 OA
ATOM     24  C   UNL     1       7.827   4.259  12.719  0.00  0.00    +0.000 C 
ATOM     25  C   UNL     1       7.465   5.369  13.718  0.00  0.00    +0.000 C 
ENDBRANCH  15  18
ENDBRANCH   1  17
BRANCH   6  26
ATOM     26  N   UNL     1      -0.574  11.790  21.618  0.00  0.00    +0.000 N 
ATOM     27  C   UNL     1       0.011  13.016  21.815  0.00  0.00    +0.000 C 
ATOM     28  O   UNL     1       1.189  13.318  21.698  0.00  0.00    +0.000 OA
ATOM     29  H   UNL     1      -1.560  11.694  21.799  0.00  0.00    +0.000 HD
BRANCH  27  30
ATOM     30  C   UNL     1      -0.971  14.065  22.238  0.00  0.00    +0.000 C 
ATOM     31  C   UNL     1      -1.256  14.270  23.710  0.00  0.00    +0.000 C 
ATOM     32  C   UNL     1      -0.506  15.319  22.942  0.00  0.00    +0.000 C 
ENDBRANCH  27  30
ENDBRANCH   6  26
TORSDOF 4
ENDMDL
MODEL 3
REMARK VINA RESULT:      -8.5      1.538      1.918
REMARK  Name = 
REMARK  5 active torsions:
REMARK  status: ('A' for Active; 'I' for Inactive)
REMARK    1  A    between atoms: C_1  and  C_2
REMARK    2  A    between atoms: C_5  and  C_6
REMARK    3  A    between atoms: C_15  and  C_16
REMARK    4  A    between atoms: C_21  and  N_22
REMARK    5  A    between atoms: C_23  and  C_25
REMARK                            x       y       z     vdW  Elec       q    Type
REMARK                         _______ _______ _______ _____ _____    ______ ____
ROOT
ATOM      1  C   UNL     1       1.914   7.350  20.076  0.00  0.00    +0.000 A 
ATOM      2  C   UNL     1       1.639   8.305  19.088  0.00  0.00    +0.000 A 
ATOM      3  C   UNL     1       1.053   9.547  19.366  0.00  0.00    +0.000 A 
ATOM      4  C   UNL     1       0.626   9.838  20.656  0.00  0.00    +0.000 A 
ATOM      5  C   UNL     1      -0.015  11.046  20.970  0.00  0.00    +0.000 A 
ATOM      6  C   UNL     1      -0.443  11.250  22.275  0.00  0.00    +0.000 A 
ATOM      7  N   UNL     1      -0.272  10.341  23.246  0.00  0.00    +0.000 NA
ATOM      8  C   UNL     1       0.355   9.183  22.932  0.00  0.00    +0.000 A 
ATOM      9  C   UNL     1       0.830   8.879  21.662  0.00  0.00    +0.000 A 
ATOM     10  C   UNL     1       1.485   7.675  21.381  0.00  0.00    +0.000 A 
ENDROOT
BRANCH   1  17
ATOM     11  C   UNL     1       0.634   4.569  20.585  0.00  0.00    +0.000 C 
ATOM     12  C   UNL     1       2.023   4.783  20.044  0.00  0.00    +0.000 A 
ATOM     13  C   UNL     1       2.737   3.618  19.732  0.00  0.00    +0.000 A 
ATOM     14  C   UNL     1       3.971   3.681  19.108  0.00  0.00    +0.000 A 
ATOM     15  C   UNL     1       4.605   4.909  18.903  0.00  0.00    +0.000 A 
ATOM     16  C   UNL     1       3.896   6.077  19.214  0.00  0.00    +0.000 A 
ATOM     17  C   UNL     1       2.600   6.060  19.787  0.00  0.00    +0.000 A 
BRANCH  15  18
ATOM     18  C   UNL     1       5.988   5.020  18.329  0.00  0.00    +0.000 C 
ATOM     19  O   UNL     1       6.945   4.800  19.065  0.00  0.00    +0.000 OA
ATOM     20  N   UNL     1       6.134   5.335  16.968  0.00  0.00    +0.000 N 
ATOM     21  C   UNL     1       5.070   5.517  15.972  0.00  0.00    +0.000 C 
ATOM     22  C   UNL     1       5.372   4.812  14.662  0.00  0.00    +0.000 C 
ATOM     23  O   UNL     1       6.643   5.208  14.146  0.00  0.00    +0.000 OA
ATOM     24  C   UNL     1       7.684   4.900  15.092  0.00  0.00    +0.000 C 
ATOM     25  C   UNL     1       7.466   5.629  16.426  0.00  0.00    +0.000 C 
ENDBRANCH  15  18
ENDBRANCH   1  17
BRANCH   6  26
ATOM     26  N   UNL     1      -1.069  12.471  22.575  0.00  0.00    +0.000 N 
ATOM     27  C   UNL     1      -2.301  12.597  23.169  0.00  0.00    +0.000 C 
ATOM     28  O   UNL     1      -3.079  11.711  23.487  0.00  0.00    +0.000 OA
ATOM     29  H   UNL     1      -0.564  13.309  22.334  0.00  0.00    +0.000 HD
BRANCH  27  30
ATOM     30  C   UNL     1      -2.682  14.024  23.414  0.00  0.00    +0.000 C 
ATOM     31  C   UNL     1      -3.712  14.685  22.525  0.00  0.00    +0.000 C 
ATOM     32  C   UNL     1      -4.049  14.377  23.955  0.00  0.00    +0.000 C 
ENDBRANCH  27  30
ENDBRANCH   6  26
TORSDOF 4
ENDMDL
MODEL 4
REMARK VINA RESULT:      -8.5      2.921     11.976
REMARK  Name = 
REMARK  5 active torsions:
REMARK  status: ('A' for Active; 'I' for Inactive)
REMARK    1  A    between atoms: C_1  and  C_2
REMARK    2  A    between atoms: C_5  and  C_6
REMARK    3  A    between atoms: C_15  and  C_16
REMARK    4  A    between atoms: C_21  and  N_22
REMARK    5  A    between atoms: C_23  and  C_25
REMARK                            x       y       z     vdW  Elec       q    Type
REMARK                         _______ _______ _______ _____ _____    ______ ____
ROOT
ATOM      1  C   UNL     1      -0.208  10.877  21.721  0.00  0.00    +0.000 A 
ATOM      2  C   UNL     1       0.138   9.757  22.489  0.00  0.00    +0.000 A 
ATOM      3  C   UNL     1       0.858   8.670  21.976  0.00  0.00    +0.000 A 
ATOM      4  C   UNL     1       1.177   8.626  20.625  0.00  0.00    +0.000 A 
ATOM      5  C   UNL     1       1.847   7.533  20.055  0.00  0.00    +0.000 A 
ATOM      6  C   UNL     1       2.101   7.547  18.690  0.00  0.00    +0.000 A 
ATOM      7  N   UNL     1       1.728   8.558  17.893  0.00  0.00    +0.000 NA
ATOM      8  C   UNL     1       1.089   9.611  18.455  0.00  0.00    +0.000 A 
ATOM      9  C   UNL     1       0.792   9.703  19.810  0.00  0.00    +0.000 A 
ATOM     10  C   UNL     1       0.140  10.815  20.355  0.00  0.00    +0.000 A 
ENDROOT
BRANCH   1  17
ATOM     11  C   UNL     1       0.898  13.772  21.562  0.00  0.00    +0.000 C 
ATOM     12  C   UNL     1      -0.393  13.387  22.236  0.00  0.00    +0.000 A 
ATOM     13  C   UNL     1      -1.127  14.446  22.786  0.00  0.00    +0.000 A 
ATOM     14  C   UNL     1      -2.389  14.242  23.317  0.00  0.00    +0.000 A 
ATOM     15  C   UNL     1      -2.906  12.950  23.452  0.00  0.00    +0.000 A 
ATOM     16  C   UNL     1      -2.175  11.888  22.904  0.00  0.00    +0.000 A 
ATOM     17  C   UNL     1      -0.912  12.061  22.287  0.00  0.00    +0.000 A 
BRANCH  15  18
ATOM     18  C   UNL     1      -4.222  12.670  24.118  0.00  0.00    +0.000 C 
ATOM     19  O   UNL     1      -4.215  12.259  25.275  0.00  0.00    +0.000 OA
ATOM     20  N   UNL     1      -5.409  12.922  23.410  0.00  0.00    +0.000 N 
ATOM     21  C   UNL     1      -5.543  13.507  22.069  0.00  0.00    +0.000 C 
ATOM     22  C   UNL     1      -6.632  14.563  22.002  0.00  0.00    +0.000 C 
ATOM     23  O   UNL     1      -7.877  14.049  22.474  0.00  0.00    +0.000 OA
ATOM     24  C   UNL     1      -7.747  13.601  23.837  0.00  0.00    +0.000 C 
ATOM     25  C   UNL     1      -6.696  12.488  23.965  0.00  0.00    +0.000 C 
ENDBRANCH  15  18
ENDBRANCH   1  17
BRANCH   6  26
ATOM     26  N   UNL     1       2.787   6.451  18.141  0.00  0.00    +0.000 N 
ATOM     27  C   UNL     1       4.060   6.498  17.629  0.00  0.00    +0.000 C 
ATOM     28  O   UNL     1       4.789   7.471  17.506  0.00  0.00    +0.000 OA
ATOM     29  H   UNL     1       2.298   5.570  18.133  0.00  0.00    +0.000 HD
BRANCH  27  30
ATOM     30  C   UNL     1       4.548   5.160  17.167  0.00  0.00    +0.000 C 
ATOM     31  C   UNL     1       5.097   4.176  18.177  0.00  0.00    +0.000 C 
ATOM     32  C   UNL     1       3.784   3.900  17.504  0.00  0.00    +0.000 C 
ENDBRANCH  27  30
ENDBRANCH   6  26
TORSDOF 4
ENDMDL
MODEL 5
REMARK VINA RESULT:      -8.4      1.638      1.885
REMARK  Name = 
REMARK  5 active torsions:
REMARK  status: ('A' for Active; 'I' for Inactive)
REMARK    1  A    between atoms: C_1  and  C_2
REMARK    2  A    between atoms: C_5  and  C_6
REMARK    3  A    between atoms: C_15  and  C_16
REMARK    4  A    between atoms: C_21  and  N_22
REMARK    5  A    between atoms: C_23  and  C_25
REMARK                            x       y       z     vdW  Elec       q    Type
REMARK                         _______ _______ _______ _____ _____    ______ ____
ROOT
ATOM      1  C   UNL     1       2.200   7.213  19.731  0.00  0.00    +0.000 A 
ATOM      2  C   UNL     1       1.870   8.080  18.681  0.00  0.00    +0.000 A 
ATOM      3  C   UNL     1       1.280   9.335  18.882  0.00  0.00    +0.000 A 
ATOM      4  C   UNL     1       0.904   9.727  20.161  0.00  0.00    +0.000 A 
ATOM      5  C   UNL     1       0.259  10.949  20.403  0.00  0.00    +0.000 A 
ATOM      6  C   UNL     1      -0.116  11.255  21.705  0.00  0.00    +0.000 A 
ATOM      7  N   UNL     1       0.108  10.431  22.738  0.00  0.00    +0.000 NA
ATOM      8  C   UNL     1       0.738   9.258  22.493  0.00  0.00    +0.000 A 
ATOM      9  C   UNL     1       1.163   8.856  21.232  0.00  0.00    +0.000 A 
ATOM     10  C   UNL     1       1.822   7.640  21.022  0.00  0.00    +0.000 A 
ENDROOT
BRANCH   1  17
ATOM     11  C   UNL     1       1.037   4.481  20.633  0.00  0.00    +0.000 C 
ATOM     12  C   UNL     1       2.370   4.659  19.955  0.00  0.00    +0.000 A 
ATOM     13  C   UNL     1       3.084   3.479  19.705  0.00  0.00    +0.000 A 
ATOM     14  C   UNL     1       4.259   3.496  18.974  0.00  0.00    +0.000 A 
ATOM     15  C   UNL     1       4.844   4.706  18.590  0.00  0.00    +0.000 A 
ATOM     16  C   UNL     1       4.134   5.888  18.838  0.00  0.00    +0.000 A 
ATOM     17  C   UNL     1       2.892   5.911  19.519  0.00  0.00    +0.000 A 
BRANCH  15  18
ATOM     18  C   UNL     1       6.170   4.778  17.890  0.00  0.00    +0.000 C 
ATOM     19  O   UNL     1       7.188   4.581  18.548  0.00  0.00    +0.000 OA
ATOM     20  N   UNL     1       6.197   5.032  16.509  0.00  0.00    +0.000 N 
ATOM     21  C   UNL     1       5.048   5.181  15.605  0.00  0.00    +0.000 C 
ATOM     22  C   UNL     1       5.229   4.417  14.306  0.00  0.00    +0.000 C 
ATOM     23  O   UNL     1       6.451   4.777  13.661  0.00  0.00    +0.000 OA
ATOM     24  C   UNL     1       7.571   4.500  14.524  0.00  0.00    +0.000 C 
ATOM     25  C   UNL     1       7.477   5.289  15.839  0.00  0.00    +0.000 C 
ENDBRANCH  15  18
ENDBRANCH   1  17
BRANCH   6  26
ATOM     26  N   UNL     1      -0.746  12.490  21.930  0.00  0.00    +0.000 N 
ATOM     27  C   UNL     1      -0.095  13.689  22.079  0.00  0.00    +0.000 C 
ATOM     28  O   UNL     1       1.109  13.897  22.099  0.00  0.00    +0.000 OA
ATOM     29  H   UNL     1      -1.753  12.482  21.980  0.00  0.00    +0.000 HD
BRANCH  27  30
ATOM     30  C   UNL     1      -1.035  14.843  22.249  0.00  0.00    +0.000 C 
ATOM     31  C   UNL     1      -1.357  15.344  23.640  0.00  0.00    +0.000 C 
ATOM     32  C   UNL     1      -0.529  16.189  22.716  0.00  0.00    +0.000 C 
ENDBRANCH  27  30
ENDBRANCH   6  26
TORSDOF 4
ENDMDL
MODEL 6
REMARK VINA RESULT:      -8.4      1.336      1.846
REMARK  Name = 
REMARK  5 active torsions:
REMARK  status: ('A' for Active; 'I' for Inactive)
REMARK    1  A    between atoms: C_1  and  C_2
REMARK    2  A    between atoms: C_5  and  C_6
REMARK    3  A    between atoms: C_15  and  C_16
REMARK    4  A    between atoms: C_21  and  N_22
REMARK    5  A    between atoms: C_23  and  C_25
REMARK                            x       y       z     vdW  Elec       q    Type
REMARK                         _______ _______ _______ _____ _____    ______ ____
ROOT
ATOM      1  C   UNL     1       2.559   6.656  18.826  0.00  0.00    +0.000 A 
ATOM      2  C   UNL     1       2.196   6.626  20.179  0.00  0.00    +0.000 A 
ATOM      3  C   UNL     1       1.507   7.670  20.810  0.00  0.00    +0.000 A 
ATOM      4  C   UNL     1       1.240   8.843  20.116  0.00  0.00    +0.000 A 
ATOM      5  C   UNL     1       0.602   9.935  20.722  0.00  0.00    +0.000 A 
ATOM      6  C   UNL     1       0.399  11.086  19.971  0.00  0.00    +0.000 A 
ATOM      7  N   UNL     1       0.791  11.198  18.694  0.00  0.00    +0.000 NA
ATOM      8  C   UNL     1       1.398  10.134  18.118  0.00  0.00    +0.000 A 
ATOM      9  C   UNL     1       1.643   8.933  18.773  0.00  0.00    +0.000 A 
ATOM     10  C   UNL     1       2.263   7.851  18.138  0.00  0.00    +0.000 A 
ENDROOT
BRANCH   1  17
ATOM     11  C   UNL     1       1.498   3.740  18.905  0.00  0.00    +0.000 C 
ATOM     12  C   UNL     1       2.756   4.172  18.197  0.00  0.00    +0.000 A 
ATOM     13  C   UNL     1       3.444   3.160  17.514  0.00  0.00    +0.000 A 
ATOM     14  C   UNL     1       4.539   3.451  16.720  0.00  0.00    +0.000 A 
ATOM     15  C   UNL     1       5.080   4.740  16.693  0.00  0.00    +0.000 A 
ATOM     16  C   UNL     1       4.396   5.755  17.375  0.00  0.00    +0.000 A 
ATOM     17  C   UNL     1       3.229   5.515  18.141  0.00  0.00    +0.000 A 
BRANCH  15  18
ATOM     18  C   UNL     1       6.329   5.078  15.932  0.00  0.00    +0.000 C 
ATOM     19  O   UNL     1       7.311   5.460  16.562  0.00  0.00    +0.000 OA
ATOM     20  N   UNL     1       6.340   4.912  14.537  0.00  0.00    +0.000 N 
ATOM     21  C   UNL     1       5.268   4.369  13.692  0.00  0.00    +0.000 C 
ATOM     22  C   UNL     1       5.783   3.380  12.663  0.00  0.00    +0.000 C 
ATOM     23  O   UNL     1       6.828   3.952  11.876  0.00  0.00    +0.000 OA
ATOM     24  C   UNL     1       7.922   4.359  12.720  0.00  0.00    +0.000 C 
ATOM     25  C   UNL     1       7.478   5.406  13.753  0.00  0.00    +0.000 C 
ENDBRANCH  15  18
ENDBRANCH   1  17
BRANCH   6  26
ATOM     26  N   UNL     1      -0.254  12.164  20.590  0.00  0.00    +0.000 N 
ATOM     27  C   UNL     1       0.374  13.173  21.279  0.00  0.00    +0.000 C 
ATOM     28  O   UNL     1       1.565  13.292  21.523  0.00  0.00    +0.000 OA
ATOM     29  H   UNL     1      -1.258  12.189  20.512  0.00  0.00    +0.000 HD
BRANCH  27  30
ATOM     30  C   UNL     1      -0.580  14.214  21.779  0.00  0.00    +0.000 C 
ATOM     31  C   UNL     1      -1.000  14.205  23.232  0.00  0.00    +0.000 C 
ATOM     32  C   UNL     1      -0.113  15.302  22.718  0.00  0.00    +0.000 C 
ENDBRANCH  27  30
ENDBRANCH   6  26
TORSDOF 4
ENDMDL
MODEL 7
REMARK VINA RESULT:      -8.4      3.160     11.817
REMARK  Name = 
REMARK  5 active torsions:
REMARK  status: ('A' for Active; 'I' for Inactive)
REMARK    1  A    between atoms: C_1  and  C_2
REMARK    2  A    between atoms: C_5  and  C_6
REMARK    3  A    between atoms: C_15  and  C_16
REMARK    4  A    between atoms: C_21  and  N_22
REMARK    5  A    between atoms: C_23  and  C_25
REMARK                            x       y       z     vdW  Elec       q    Type
REMARK                         _______ _______ _______ _____ _____    ______ ____
ROOT
ATOM      1  C   UNL     1      -0.433  11.076  20.710  0.00  0.00    +0.000 A 
ATOM      2  C   UNL     1      -0.278  10.082  21.685  0.00  0.00    +0.000 A 
ATOM      3  C   UNL     1       0.533   8.953  21.504  0.00  0.00    +0.000 A 
ATOM      4  C   UNL     1       1.149   8.732  20.279  0.00  0.00    +0.000 A 
ATOM      5  C   UNL     1       1.925   7.589  20.034  0.00  0.00    +0.000 A 
ATOM      6  C   UNL     1       2.481   7.422  18.772  0.00  0.00    +0.000 A 
ATOM      7  N   UNL     1       2.305   8.304  17.779  0.00  0.00    +0.000 NA
ATOM      8  C   UNL     1       1.561   9.408  18.030  0.00  0.00    +0.000 A 
ATOM      9  C   UNL     1       0.966   9.678  19.256  0.00  0.00    +0.000 A 
ATOM     10  C   UNL     1       0.215  10.837  19.480  0.00  0.00    +0.000 A 
ENDROOT
BRANCH   1  17
ATOM     11  C   UNL     1       0.799  13.827  21.450  0.00  0.00    +0.000 C 
ATOM     12  C   UNL     1      -0.676  13.566  21.296  0.00  0.00    +0.000 A 
ATOM     13  C   UNL     1      -1.510  14.679  21.476  0.00  0.00    +0.000 A 
ATOM     14  C   UNL     1      -2.870  14.600  21.234  0.00  0.00    +0.000 A 
ATOM     15  C   UNL     1      -3.474  13.373  20.946  0.00  0.00    +0.000 A 
ATOM     16  C   UNL     1      -2.646  12.258  20.766  0.00  0.00    +0.000 A 
ATOM     17  C   UNL     1      -1.240  12.309  20.932  0.00  0.00    +0.000 A 
BRANCH  15  18
ATOM     18  C   UNL     1      -4.959  13.220  20.783  0.00  0.00    +0.000 C 
ATOM     19  O   UNL     1      -5.405  13.021  19.657  0.00  0.00    +0.000 OA
ATOM     20  N   UNL     1      -5.776  13.273  21.924  0.00  0.00    +0.000 N 
ATOM     21  C   UNL     1      -5.350  13.402  23.325  0.00  0.00    +0.000 C 
ATOM     22  C   UNL     1      -6.090  12.450  24.246  0.00  0.00    +0.000 C 
ATOM     23  O   UNL     1      -7.503  12.599  24.115  0.00  0.00    +0.000 OA
ATOM     24  C   UNL     1      -7.909  12.341  22.757  0.00  0.00    +0.000 C 
ATOM     25  C   UNL     1      -7.235  13.312  21.775  0.00  0.00    +0.000 C 
ENDBRANCH  15  18
ENDBRANCH   1  17
BRANCH   6  26
ATOM     26  N   UNL     1       3.267   6.279  18.550  0.00  0.00    +0.000 N 
ATOM     27  C   UNL     1       2.802   5.095  18.033  0.00  0.00    +0.000 C 
ATOM     28  O   UNL     1       1.655   4.802  17.731  0.00  0.00    +0.000 OA
ATOM     29  H   UNL     1       4.243   6.348  18.788  0.00  0.00    +0.000 HD
BRANCH  27  30
ATOM     30  C   UNL     1       3.885   4.076  17.857  0.00  0.00    +0.000 C 
ATOM     31  C   UNL     1       4.732   4.095  16.603  0.00  0.00    +0.000 C 
ATOM     32  C   UNL     1       5.341   4.476  17.921  0.00  0.00    +0.000 C 
ENDBRANCH  27  30
ENDBRANCH   6  26
TORSDOF 4
ENDMDL
MODEL 8
REMARK VINA RESULT:      -8.3      3.506     11.571
REMARK  Name = 
REMARK  5 active torsions:
REMARK  status: ('A' for Active; 'I' for Inactive)
REMARK    1  A    between atoms: C_1  and  C_2
REMARK    2  A    between atoms: C_5  and  C_6
REMARK    3  A    between atoms: C_15  and  C_16
REMARK    4  A    between atoms: C_21  and  N_22
REMARK    5  A    between atoms: C_23  and  C_25
REMARK                            x       y       z     vdW  Elec       q    Type
REMARK                         _______ _______ _______ _____ _____    ______ ____
ROOT
ATOM      1  C   UNL     1       0.139  10.730  20.532  0.00  0.00    +0.000 A 
ATOM      2  C   UNL     1       0.199   9.794  21.574  0.00  0.00    +0.000 A 
ATOM      3  C   UNL     1       0.910   8.590  21.481  0.00  0.00    +0.000 A 
ATOM      4  C   UNL     1       1.513   8.233  20.282  0.00  0.00    +0.000 A 
ATOM      5  C   UNL     1       2.187   7.012  20.125  0.00  0.00    +0.000 A 
ATOM      6  C   UNL     1       2.737   6.712  18.885  0.00  0.00    +0.000 A 
ATOM      7  N   UNL     1       2.646   7.536  17.833  0.00  0.00    +0.000 NA
ATOM      8  C   UNL     1       2.001   8.715  17.998  0.00  0.00    +0.000 A 
ATOM      9  C   UNL     1       1.422   9.119  19.195  0.00  0.00    +0.000 A 
ATOM     10  C   UNL     1       0.773  10.351  19.330  0.00  0.00    +0.000 A 
ENDROOT
BRANCH   1  17
ATOM     11  C   UNL     1       1.619  13.447  20.774  0.00  0.00    +0.000 C 
ATOM     12  C   UNL     1       0.122  13.286  20.795  0.00  0.00    +0.000 A 
ATOM     13  C   UNL     1      -0.614  14.474  20.900  0.00  0.00    +0.000 A 
ATOM     14  C   UNL     1      -1.994  14.472  20.800  0.00  0.00    +0.000 A 
ATOM     15  C   UNL     1      -2.704  13.269  20.739  0.00  0.00    +0.000 A 
ATOM     16  C   UNL     1      -1.973  12.079  20.635  0.00  0.00    +0.000 A 
ATOM     17  C   UNL     1      -0.557  12.040  20.660  0.00  0.00    +0.000 A 
BRANCH  15  18
ATOM     18  C   UNL     1      -4.204  13.214  20.738  0.00  0.00    +0.000 C 
ATOM     19  O   UNL     1      -4.781  13.023  19.671  0.00  0.00    +0.000 OA
ATOM     20  N   UNL     1      -4.889  13.346  21.957  0.00  0.00    +0.000 N 
ATOM     21  C   UNL     1      -4.308  13.473  23.301  0.00  0.00    +0.000 C 
ATOM     22  C   UNL     1      -5.005  12.592  24.321  0.00  0.00    +0.000 C 
ATOM     23  O   UNL     1      -6.412  12.834  24.336  0.00  0.00    +0.000 OA
ATOM     24  C   UNL     1      -6.976  12.577  23.036  0.00  0.00    +0.000 C 
ATOM     25  C   UNL     1      -6.350  13.480  21.962  0.00  0.00    +0.000 C 
ENDBRANCH  15  18
ENDBRANCH   1  17
BRANCH   6  26
ATOM     26  N   UNL     1       3.421   5.492  18.751  0.00  0.00    +0.000 N 
ATOM     27  C   UNL     1       2.906   4.364  18.163  0.00  0.00    +0.000 C 
ATOM     28  O   UNL     1       1.783   4.193  17.712  0.00  0.00    +0.000 OA
ATOM     29  H   UNL     1       4.360   5.458  19.114  0.00  0.00    +0.000 HD
BRANCH  27  30
ATOM     30  C   UNL     1       3.889   3.236  18.114  0.00  0.00    +0.000 C 
ATOM     31  C   UNL     1       4.110   2.384  19.345  0.00  0.00    +0.000 C 
ATOM     32  C   UNL     1       3.420   1.799  18.148  0.00  0.00    +0.000 C 
ENDBRANCH  27  30
ENDBRANCH   6  26
TORSDOF 4
ENDMDL
MODEL 9
REMARK VINA RESULT:      -8.3      4.572      9.703
REMARK  Name = 
REMARK  5 active torsions:
REMARK  status: ('A' for Active; 'I' for Inactive)
REMARK    1  A    between atoms: C_1  and  C_2
REMARK    2  A    between atoms: C_5  and  C_6
REMARK    3  A    between atoms: C_15  and  C_16
REMARK    4  A    between atoms: C_21  and  N_22
REMARK    5  A    between atoms: C_23  and  C_25
REMARK                            x       y       z     vdW  Elec       q    Type
REMARK                         _______ _______ _______ _____ _____    ______ ____
ROOT
ATOM      1  C   UNL     1       1.142  10.886  19.542  0.00  0.00    +0.000 A 
ATOM      2  C   UNL     1       0.750  10.231  20.717  0.00  0.00    +0.000 A 
ATOM      3  C   UNL     1       1.023   8.879  20.967  0.00  0.00    +0.000 A 
ATOM      4  C   UNL     1       1.624   8.101  19.986  0.00  0.00    +0.000 A 
ATOM      5  C   UNL     1       1.866   6.731  20.170  0.00  0.00    +0.000 A 
ATOM      6  C   UNL     1       2.440   6.013  19.130  0.00  0.00    +0.000 A 
ATOM      7  N   UNL     1       2.769   6.571  17.957  0.00  0.00    +0.000 NA
ATOM      8  C   UNL     1       2.538   7.895  17.794  0.00  0.00    +0.000 A 
ATOM      9  C   UNL     1       1.976   8.709  18.770  0.00  0.00    +0.000 A 
ATOM     10  C   UNL     1       1.765  10.078  18.567  0.00  0.00    +0.000 A 
ENDROOT
BRANCH   1  17
ATOM     11  C   UNL     1      -1.410  12.030  18.196  0.00  0.00    +0.000 C 
ATOM     12  C   UNL     1      -0.248  12.863  18.670  0.00  0.00    +0.000 A 
ATOM     13  C   UNL     1      -0.386  14.247  18.500  0.00  0.00    +0.000 A 
ATOM     14  C   UNL     1       0.552  15.128  19.010  0.00  0.00    +0.000 A 
ATOM     15  C   UNL     1       1.737  14.656  19.581  0.00  0.00    +0.000 A 
ATOM     16  C   UNL     1       1.881  13.273  19.752  0.00  0.00    +0.000 A 
ATOM     17  C   UNL     1       0.913  12.339  19.310  0.00  0.00    +0.000 A 
BRANCH  15  18
ATOM     18  C   UNL     1       2.830  15.573  20.050  0.00  0.00    +0.000 C 
ATOM     19  O   UNL     1       2.719  16.097  21.154  0.00  0.00    +0.000 OA
ATOM     20  N   UNL     1       3.951  15.769  19.227  0.00  0.00    +0.000 N 
ATOM     21  C   UNL     1       4.242  15.120  17.941  0.00  0.00    +0.000 C 
ATOM     22  C   UNL     1       5.681  14.649  17.839  0.00  0.00    +0.000 C 
ATOM     23  O   UNL     1       6.592  15.716  18.103  0.00  0.00    +0.000 OA
ATOM     24  C   UNL     1       6.369  16.248  19.423  0.00  0.00    +0.000 C 
ATOM     25  C   UNL     1       4.941  16.795  19.575  0.00  0.00    +0.000 C 
ENDBRANCH  15  18
ENDBRANCH   1  17
BRANCH   6  26
ATOM     26  N   UNL     1       2.689   4.646  19.338  0.00  0.00    +0.000 N 
ATOM     27  C   UNL     1       2.052   3.623  18.681  0.00  0.00    +0.000 C 
ATOM     28  O   UNL     1       1.147   3.698  17.864  0.00  0.00    +0.000 OA
ATOM     29  H   UNL     1       3.393   4.413  20.020  0.00  0.00    +0.000 HD
BRANCH  27  30
ATOM     30  C   UNL     1       2.569   2.273  19.072  0.00  0.00    +0.000 C 
ATOM     31  C   UNL     1       3.582   1.577  18.190  0.00  0.00    +0.000 C 
ATOM     32  C   UNL     1       3.997   2.096  19.535  0.00  0.00    +0.000 C 
ENDBRANCH  27  30
ENDBRANCH   6  26
TORSDOF 4
ENDMDL
