MODEL 1
REMARK VINA RESULT:      -8.2      0.000      0.000
REMARK  Name = 
REMARK  9 active torsions:
REMARK  status: ('A' for Active; 'I' for Inactive)
REMARK    1  A    between atoms: C_1  and  C_2
REMARK    2  A    between atoms: C_2  and  C_3
REMARK    3  A    between atoms: C_3  and  C_4
REMARK    4  A    between atoms: C_4  and  O_5
REMARK    5  A    between atoms: O_5  and  C_6
REMARK    6  A    between atoms: N_8  and  C_9
REMARK    7  A    between atoms: C_13  and  C_14
REMARK    8  A    between atoms: C_19  and  C_20
REMARK    9  A    between atoms: C_20  and  C_22
REMARK                            x       y       z     vdW  Elec       q    Type
REMARK                         _______ _______ _______ _____ _____    ______ ____
ROOT
ATOM      1  C   UNL     1       2.017   7.694  19.319  0.00  0.00    +0.000 A 
ATOM      2  C   UNL     1       2.196   8.108  18.054  0.00  0.00    +0.000 A 
ATOM      3  C   UNL     1       1.729   9.483  17.753  0.00  0.00    +0.000 A 
ATOM      4  N   UNL     1       1.173  10.301  18.591  0.00  0.00    +0.000 NA
ATOM      5  C   UNL     1       0.985   9.837  19.868  0.00  0.00    +0.000 A 
ATOM      6  C   UNL     1       0.448  10.429  20.998  0.00  0.00    +0.000 A 
ATOM      7  C   UNL     1       0.587   9.446  21.997  0.00  0.00    +0.000 A 
ATOM      8  N   UNL     1       1.126   8.309  21.557  0.00  0.00    +0.000 NA
ATOM      9  N   UNL     1       1.398   8.549  20.247  0.00  0.00    +0.000 N 
ENDROOT
BRANCH   1  14
ATOM     10  C   UNL     1       4.166   4.591  19.388  0.00  0.00    +0.000 A 
ATOM     11  C   UNL     1       3.384   3.754  20.188  0.00  0.00    +0.000 A 
ATOM     12  C   UNL     1       2.181   4.208  20.732  0.00  0.00    +0.000 A 
ATOM     13  C   UNL     1       1.739   5.503  20.469  0.00  0.00    +0.000 A 
ATOM     14  C   UNL     1       2.518   6.361  19.684  0.00  0.00    +0.000 A 
ATOM     15  C   UNL     1       3.744   5.907  19.170  0.00  0.00    +0.000 A 
BRANCH  10  18
ATOM     16  C   UNL     1       6.618   4.695  19.000  0.00  0.00    +0.000 C 
ATOM     17  O   UNL     1       6.953   5.530  19.828  0.00  0.00    +0.000 OA
ATOM     18  N   UNL     1       5.371   4.168  18.794  0.00  0.00    +0.000 N 
ATOM     19  H   UNL     1       5.337   3.429  18.107  0.00  0.00    +0.000 HD
BRANCH  16  20
ATOM     20  O   UNL     1       7.463   4.194  18.061  0.00  0.00    +0.000 OA
BRANCH  20  21
ATOM     21  C   UNL     1       7.379   4.894  16.814  0.00  0.00    +0.000 C 
BRANCH  21  22
ATOM     22  C   UNL     1       6.560   4.164  15.756  0.00  0.00    +0.000 C 
BRANCH  22  24
ATOM     23  C   UNL     1       5.217   6.317  15.892  0.00  0.00    +0.000 C 
ATOM     24  C   UNL     1       5.689   5.177  15.007  0.00  0.00    +0.000 C 
ENDBRANCH  22  24
ENDBRANCH  21  22
ENDBRANCH  20  21
ENDBRANCH  16  20
ENDBRANCH  10  18
ENDBRANCH   1  14
BRANCH   6  25
ATOM     25  C   UNL     1      -0.062  11.782  21.206  0.00  0.00    +0.000 C 
ATOM     26  O   UNL     1       0.657  12.607  21.767  0.00  0.00    +0.000 OA
BRANCH  25  27
ATOM     27  C   UNL     1      -1.419  12.072  20.772  0.00  0.00    +0.000 A 
ATOM     28  C   UNL     1      -2.035  11.911  19.542  0.00  0.00    +0.000 A 
ATOM     29  C   UNL     1      -3.397  12.329  19.543  0.00  0.00    +0.000 A 
ATOM     30  C   UNL     1      -3.799  12.767  20.783  0.00  0.00    +0.000 A 
ATOM     31  S   UNL     1      -2.542  12.671  21.935  0.00  0.00    +0.000 S 
ENDBRANCH  25  27
ENDBRANCH   6  25
TORSDOF 8
ENDMDL
MODEL 2
REMARK VINA RESULT:      -8.2      2.213      2.949
REMARK  Name = 
REMARK  9 active torsions:
REMARK  status: ('A' for Active; 'I' for Inactive)
REMARK    1  A    between atoms: C_1  and  C_2
REMARK    2  A    between atoms: C_2  and  C_3
REMARK    3  A    between atoms: C_3  and  C_4
REMARK    4  A    between atoms: C_4  and  O_5
REMARK    5  A    between atoms: O_5  and  C_6
REMARK    6  A    between atoms: N_8  and  C_9
REMARK    7  A    between atoms: C_13  and  C_14
REMARK    8  A    between atoms: C_19  and  C_20
REMARK    9  A    between atoms: C_20  and  C_22
REMARK                            x       y       z     vdW  Elec       q    Type
REMARK                         _______ _______ _______ _____ _____    ______ ____
ROOT
ATOM      1  C   UNL     1       2.084   6.742  19.461  0.00  0.00    +0.000 A 
ATOM      2  C   UNL     1       1.684   6.494  20.720  0.00  0.00    +0.000 A 
ATOM      3  C   UNL     1       1.109   7.648  21.453  0.00  0.00    +0.000 A 
ATOM      4  N   UNL     1       0.965   8.852  20.991  0.00  0.00    +0.000 NA
ATOM      5  C   UNL     1       1.406   9.073  19.712  0.00  0.00    +0.000 A 
ATOM      6  C   UNL     1       1.396  10.205  18.913  0.00  0.00    +0.000 A 
ATOM      7  C   UNL     1       1.946   9.765  17.693  0.00  0.00    +0.000 A 
ATOM      8  N   UNL     1       2.313   8.484  17.703  0.00  0.00    +0.000 NA
ATOM      9  N   UNL     1       1.961   8.041  18.938  0.00  0.00    +0.000 N 
ENDROOT
BRANCH   1  14
ATOM     10  C   UNL     1       4.352   4.689  17.249  0.00  0.00    +0.000 A 
ATOM     11  C   UNL     1       3.530   3.590  16.989  0.00  0.00    +0.000 A 
ATOM     12  C   UNL     1       2.259   3.498  17.559  0.00  0.00    +0.000 A 
ATOM     13  C   UNL     1       1.789   4.516  18.385  0.00  0.00    +0.000 A 
ATOM     14  C   UNL     1       2.604   5.617  18.671  0.00  0.00    +0.000 A 
ATOM     15  C   UNL     1       3.895   5.684  18.122  0.00  0.00    +0.000 A 
BRANCH  10  18
ATOM     16  C   UNL     1       6.003   5.760  15.733  0.00  0.00    +0.000 C 
ATOM     17  O   UNL     1       5.357   6.708  15.311  0.00  0.00    +0.000 OA
ATOM     18  N   UNL     1       5.629   4.839  16.674  0.00  0.00    +0.000 N 
ATOM     19  H   UNL     1       6.354   4.186  16.933  0.00  0.00    +0.000 HD
BRANCH  16  20
ATOM     20  O   UNL     1       7.227   5.417  15.251  0.00  0.00    +0.000 OA
BRANCH  20  21
ATOM     21  C   UNL     1       7.170   4.914  13.912  0.00  0.00    +0.000 C 
BRANCH  21  22
ATOM     22  C   UNL     1       6.153   3.793  13.721  0.00  0.00    +0.000 C 
BRANCH  22  24
ATOM     23  C   UNL     1       4.737   3.257  11.680  0.00  0.00    +0.000 C 
ATOM     24  C   UNL     1       6.140   3.373  12.248  0.00  0.00    +0.000 C 
ENDBRANCH  22  24
ENDBRANCH  21  22
ENDBRANCH  20  21
ENDBRANCH  16  20
ENDBRANCH  10  18
ENDBRANCH   1  14
BRANCH   6  25
ATOM     25  C   UNL     1       0.865  11.541  19.171  0.00  0.00    +0.000 C 
ATOM     26  O   UNL     1       1.649  12.453  19.419  0.00  0.00    +0.000 OA
BRANCH  25  27
ATOM     27  C   UNL     1      -0.579  11.712  19.158  0.00  0.00    +0.000 A 
ATOM     28  C   UNL     1      -1.409  12.504  19.934  0.00  0.00    +0.000 A 
ATOM     29  C   UNL     1      -2.785  12.371  19.591  0.00  0.00    +0.000 A 
ATOM     30  C   UNL     1      -2.972  11.507  18.539  0.00  0.00    +0.000 A 
ATOM     31  S   UNL     1      -1.495  10.865  17.968  0.00  0.00    +0.000 S 
ENDBRANCH  25  27
ENDBRANCH   6  25
TORSDOF 8
ENDMDL
MODEL 3
REMARK VINA RESULT:      -8.1      0.995      1.353
REMARK  Name = 
REMARK  9 active torsions:
REMARK  status: ('A' for Active; 'I' for Inactive)
REMARK    1  A    between atoms: C_1  and  C_2
REMARK    2  A    between atoms: C_2  and  C_3
REMARK    3  A    between atoms: C_3  and  C_4
REMARK    4  A    between atoms: C_4  and  O_5
REMARK    5  A    between atoms: O_5  and  C_6
REMARK    6  A    between atoms: N_8  and  C_9
REMARK    7  A    between atoms: C_13  and  C_14
REMARK    8  A    between atoms: C_19  and  C_20
REMARK    9  A    between atoms: C_20  and  C_22
REMARK                            x       y       z     vdW  Elec       q    Type
REMARK                         _______ _______ _______ _____ _____    ______ ____
ROOT
ATOM      1  C   UNL     1       1.843   8.033  19.424  0.00  0.00    +0.000 A 
ATOM      2  C   UNL     1       1.914   8.493  18.163  0.00  0.00    +0.000 A 
ATOM      3  C   UNL     1       1.439   9.882  17.956  0.00  0.00    +0.000 A 
ATOM      4  N   UNL     1       0.969  10.673  18.870  0.00  0.00    +0.000 NA
ATOM      5  C   UNL     1       0.890  10.163  20.140  0.00  0.00    +0.000 A 
ATOM      6  C   UNL     1       0.463  10.717  21.335  0.00  0.00    +0.000 A 
ATOM      7  C   UNL     1       0.677   9.695  22.281  0.00  0.00    +0.000 A 
ATOM      8  N   UNL     1       1.162   8.572  21.753  0.00  0.00    +0.000 NA
ATOM      9  N   UNL     1       1.319   8.858  20.434  0.00  0.00    +0.000 N 
ENDROOT
BRANCH   1  14
ATOM     10  C   UNL     1       3.936   4.901  19.170  0.00  0.00    +0.000 A 
ATOM     11  C   UNL     1       3.230   4.051  20.024  0.00  0.00    +0.000 A 
ATOM     12  C   UNL     1       2.100   4.503  20.708  0.00  0.00    +0.000 A 
ATOM     13  C   UNL     1       1.654   5.811  20.533  0.00  0.00    +0.000 A 
ATOM     14  C   UNL     1       2.359   6.683  19.694  0.00  0.00    +0.000 A 
ATOM     15  C   UNL     1       3.514   6.229  19.037  0.00  0.00    +0.000 A 
BRANCH  10  18
ATOM     16  C   UNL     1       6.372   4.781  18.702  0.00  0.00    +0.000 C 
ATOM     17  O   UNL     1       6.831   5.345  19.684  0.00  0.00    +0.000 OA
ATOM     18  N   UNL     1       5.063   4.481  18.437  0.00  0.00    +0.000 N 
ATOM     19  H   UNL     1       4.918   3.937  17.599  0.00  0.00    +0.000 HD
BRANCH  16  20
ATOM     20  O   UNL     1       7.127   4.413  17.632  0.00  0.00    +0.000 OA
BRANCH  20  21
ATOM     21  C   UNL     1       6.333   4.015  16.509  0.00  0.00    +0.000 C 
BRANCH  21  22
ATOM     22  C   UNL     1       6.821   4.586  15.181  0.00  0.00    +0.000 C 
BRANCH  22  24
ATOM     23  C   UNL     1       6.276   3.625  12.893  0.00  0.00    +0.000 C 
ATOM     24  C   UNL     1       5.748   4.359  14.113  0.00  0.00    +0.000 C 
ENDBRANCH  22  24
ENDBRANCH  21  22
ENDBRANCH  20  21
ENDBRANCH  16  20
ENDBRANCH  10  18
ENDBRANCH   1  14
BRANCH   6  25
ATOM     25  C   UNL     1      -0.011  12.066  21.637  0.00  0.00    +0.000 C 
ATOM     26  O   UNL     1       0.796  12.993  21.629  0.00  0.00    +0.000 OA
BRANCH  25  27
ATOM     27  C   UNL     1      -1.415  12.234  21.974  0.00  0.00    +0.000 A 
ATOM     28  C   UNL     1      -2.085  12.104  23.178  0.00  0.00    +0.000 A 
ATOM     29  C   UNL     1      -3.482  12.358  23.070  0.00  0.00    +0.000 A 
ATOM     30  C   UNL     1      -3.842  12.711  21.790  0.00  0.00    +0.000 A 
ATOM     31  S   UNL     1      -2.501  12.737  20.732  0.00  0.00    +0.000 S 
ENDBRANCH  25  27
ENDBRANCH   6  25
TORSDOF 8
ENDMDL
MODEL 4
REMARK VINA RESULT:      -7.8      1.390      1.676
REMARK  Name = 
REMARK  9 active torsions:
REMARK  status: ('A' for Active; 'I' for Inactive)
REMARK    1  A    between atoms: C_1  and  C_2
REMARK    2  A    between atoms: C_2  and  C_3
REMARK    3  A    between atoms: C_3  and  C_4
REMARK    4  A    between atoms: C_4  and  O_5
REMARK    5  A    between atoms: O_5  and  C_6
REMARK    6  A    between atoms: N_8  and  C_9
REMARK    7  A    between atoms: C_13  and  C_14
REMARK    8  A    between atoms: C_19  and  C_20
REMARK    9  A    between atoms: C_20  and  C_22
REMARK                            x       y       z     vdW  Elec       q    Type
REMARK                         _______ _______ _______ _____ _____    ______ ____
ROOT
ATOM      1  C   UNL     1       1.932   7.822  19.417  0.00  0.00    +0.000 A 
ATOM      2  C   UNL     1       2.012   8.270  18.153  0.00  0.00    +0.000 A 
ATOM      3  C   UNL     1       1.500   9.642  17.921  0.00  0.00    +0.000 A 
ATOM      4  N   UNL     1       0.991  10.429  18.818  0.00  0.00    +0.000 NA
ATOM      5  C   UNL     1       0.904   9.931  20.092  0.00  0.00    +0.000 A 
ATOM      6  C   UNL     1       0.439  10.485  21.272  0.00  0.00    +0.000 A 
ATOM      7  C   UNL     1       0.666   9.481  22.233  0.00  0.00    +0.000 A 
ATOM      8  N   UNL     1       1.193   8.366  21.728  0.00  0.00    +0.000 NA
ATOM      9  N   UNL     1       1.366   8.643  20.408  0.00  0.00    +0.000 N 
ENDROOT
BRANCH   1  14
ATOM     10  C   UNL     1       4.156   4.775  19.278  0.00  0.00    +0.000 A 
ATOM     11  C   UNL     1       3.433   3.892  20.083  0.00  0.00    +0.000 A 
ATOM     12  C   UNL     1       2.246   4.296  20.698  0.00  0.00    +0.000 A 
ATOM     13  C   UNL     1       1.761   5.587  20.502  0.00  0.00    +0.000 A 
ATOM     14  C   UNL     1       2.482   6.491  19.712  0.00  0.00    +0.000 A 
ATOM     15  C   UNL     1       3.692   6.086  19.126  0.00  0.00    +0.000 A 
BRANCH  10  18
ATOM     16  C   UNL     1       6.614   4.806  18.918  0.00  0.00    +0.000 C 
ATOM     17  O   UNL     1       6.987   5.445  19.891  0.00  0.00    +0.000 OA
ATOM     18  N   UNL     1       5.341   4.404  18.614  0.00  0.00    +0.000 N 
ATOM     19  H   UNL     1       5.272   3.814  17.798  0.00  0.00    +0.000 HD
BRANCH  16  20
ATOM     20  O   UNL     1       7.439   4.445  17.900  0.00  0.00    +0.000 OA
BRANCH  20  21
ATOM     21  C   UNL     1       6.724   4.052  16.724  0.00  0.00    +0.000 C 
BRANCH  21  22
ATOM     22  C   UNL     1       7.025   4.918  15.505  0.00  0.00    +0.000 C 
BRANCH  22  24
ATOM     23  C   UNL     1       5.113   6.555  15.856  0.00  0.00    +0.000 C 
ATOM     24  C   UNL     1       5.713   5.488  14.958  0.00  0.00    +0.000 C 
ENDBRANCH  22  24
ENDBRANCH  21  22
ENDBRANCH  20  21
ENDBRANCH  16  20
ENDBRANCH  10  18
ENDBRANCH   1  14
BRANCH   6  25
ATOM     25  C   UNL     1      -0.079  11.823  21.550  0.00  0.00    +0.000 C 
ATOM     26  O   UNL     1      -0.747  12.000  22.567  0.00  0.00    +0.000 OA
BRANCH  25  27
ATOM     27  C   UNL     1       0.193  12.872  20.581  0.00  0.00    +0.000 A 
ATOM     28  C   UNL     1      -0.620  13.467  19.632  0.00  0.00    +0.000 A 
ATOM     29  C   UNL     1       0.050  14.470  18.873  0.00  0.00    +0.000 A 
ATOM     30  C   UNL     1       1.351  14.640  19.284  0.00  0.00    +0.000 A 
ATOM     31  S   UNL     1       1.756  13.601  20.578  0.00  0.00    +0.000 S 
ENDBRANCH  25  27
ENDBRANCH   6  25
TORSDOF 8
ENDMDL
MODEL 5
REMARK VINA RESULT:      -7.7      1.557      1.915
REMARK  Name = 
REMARK  9 active torsions:
REMARK  status: ('A' for Active; 'I' for Inactive)
REMARK    1  A    between atoms: C_1  and  C_2
REMARK    2  A    between atoms: C_2  and  C_3
REMARK    3  A    between atoms: C_3  and  C_4
REMARK    4  A    between atoms: C_4  and  O_5
REMARK    5  A    between atoms: O_5  and  C_6
REMARK    6  A    between atoms: N_8  and  C_9
REMARK    7  A    between atoms: C_13  and  C_14
REMARK    8  A    between atoms: C_19  and  C_20
REMARK    9  A    between atoms: C_20  and  C_22
REMARK                            x       y       z     vdW  Elec       q    Type
REMARK                         _______ _______ _______ _____ _____    ______ ____
ROOT
ATOM      1  C   UNL     1       1.904   7.971  19.327  0.00  0.00    +0.000 A 
ATOM      2  C   UNL     1       1.954   8.480  18.084  0.00  0.00    +0.000 A 
ATOM      3  C   UNL     1       1.409   9.850  17.925  0.00  0.00    +0.000 A 
ATOM      4  N   UNL     1       0.895  10.581  18.865  0.00  0.00    +0.000 NA
ATOM      5  C   UNL     1       0.839  10.021  20.115  0.00  0.00    +0.000 A 
ATOM      6  C   UNL     1       0.379  10.508  21.327  0.00  0.00    +0.000 A 
ATOM      7  C   UNL     1       0.643   9.465  22.236  0.00  0.00    +0.000 A 
ATOM      8  N   UNL     1       1.188   8.388  21.670  0.00  0.00    +0.000 NA
ATOM      9  N   UNL     1       1.334   8.730  20.363  0.00  0.00    +0.000 N 
ENDROOT
BRANCH   1  14
ATOM     10  C   UNL     1       4.050   4.900  18.869  0.00  0.00    +0.000 A 
ATOM     11  C   UNL     1       3.472   4.040  19.806  0.00  0.00    +0.000 A 
ATOM     12  C   UNL     1       2.412   4.468  20.608  0.00  0.00    +0.000 A 
ATOM     13  C   UNL     1       1.909   5.759  20.471  0.00  0.00    +0.000 A 
ATOM     14  C   UNL     1       2.487   6.641  19.550  0.00  0.00    +0.000 A 
ATOM     15  C   UNL     1       3.576   6.213  18.772  0.00  0.00    +0.000 A 
BRANCH  10  18
ATOM     16  C   UNL     1       6.442   4.668  18.238  0.00  0.00    +0.000 C 
ATOM     17  O   UNL     1       6.994   5.057  19.256  0.00  0.00    +0.000 OA
ATOM     18  N   UNL     1       5.101   4.504  18.019  0.00  0.00    +0.000 N 
ATOM     19  H   UNL     1       4.869   4.092  17.126  0.00  0.00    +0.000 HD
BRANCH  16  20
ATOM     20  O   UNL     1       7.108   4.397  17.084  0.00  0.00    +0.000 OA
BRANCH  20  21
ATOM     21  C   UNL     1       6.230   4.023  16.016  0.00  0.00    +0.000 C 
BRANCH  21  22
ATOM     22  C   UNL     1       6.747   4.410  14.635  0.00  0.00    +0.000 C 
BRANCH  22  24
ATOM     23  C   UNL     1       6.411   3.503  12.285  0.00  0.00    +0.000 C 
ATOM     24  C   UNL     1       5.744   3.944  13.575  0.00  0.00    +0.000 C 
ENDBRANCH  22  24
ENDBRANCH  21  22
ENDBRANCH  20  21
ENDBRANCH  16  20
ENDBRANCH  10  18
ENDBRANCH   1  14
BRANCH   6  25
ATOM     25  C   UNL     1      -0.164  11.819  21.676  0.00  0.00    +0.000 C 
ATOM     26  O   UNL     1      -0.794  11.939  22.724  0.00  0.00    +0.000 OA
BRANCH  25  27
ATOM     27  C   UNL     1       0.037  12.910  20.737  0.00  0.00    +0.000 A 
ATOM     28  C   UNL     1      -0.816  13.479  19.806  0.00  0.00    +0.000 A 
ATOM     29  C   UNL     1      -0.213  14.543  19.075  0.00  0.00    +0.000 A 
ATOM     30  C   UNL     1       1.076  14.784  19.488  0.00  0.00    +0.000 A 
ATOM     31  S   UNL     1       1.551  13.736  20.751  0.00  0.00    +0.000 S 
ENDBRANCH  25  27
ENDBRANCH   6  25
TORSDOF 8
ENDMDL
MODEL 6
REMARK VINA RESULT:      -7.7      3.604      9.528
REMARK  Name = 
REMARK  9 active torsions:
REMARK  status: ('A' for Active; 'I' for Inactive)
REMARK    1  A    between atoms: C_1  and  C_2
REMARK    2  A    between atoms: C_2  and  C_3
REMARK    3  A    between atoms: C_3  and  C_4
REMARK    4  A    between atoms: C_4  and  O_5
REMARK    5  A    between atoms: O_5  and  C_6
REMARK    6  A    between atoms: N_8  and  C_9
REMARK    7  A    between atoms: C_13  and  C_14
REMARK    8  A    between atoms: C_19  and  C_20
REMARK    9  A    between atoms: C_20  and  C_22
REMARK                            x       y       z     vdW  Elec       q    Type
REMARK                         _______ _______ _______ _____ _____    ______ ____
ROOT
ATOM      1  C   UNL     1       0.907   9.400  19.630  0.00  0.00    +0.000 A 
ATOM      2  C   UNL     1       0.601   8.981  20.869  0.00  0.00    +0.000 A 
ATOM      3  C   UNL     1       1.237   7.711  21.295  0.00  0.00    +0.000 A 
ATOM      4  N   UNL     1       2.045   6.985  20.585  0.00  0.00    +0.000 NA
ATOM      5  C   UNL     1       2.315   7.432  19.318  0.00  0.00    +0.000 A 
ATOM      6  C   UNL     1       3.124   6.929  18.313  0.00  0.00    +0.000 A 
ATOM      7  C   UNL     1       3.008   7.875  17.276  0.00  0.00    +0.000 A 
ATOM      8  N   UNL     1       2.177   8.878  17.558  0.00  0.00    +0.000 NA
ATOM      9  N   UNL     1       1.762   8.626  18.827  0.00  0.00    +0.000 N 
ENDROOT
BRANCH   1  14
ATOM     10  C   UNL     1      -1.461  11.930  18.130  0.00  0.00    +0.000 A 
ATOM     11  C   UNL     1      -0.652  13.068  18.126  0.00  0.00    +0.000 A 
ATOM     12  C   UNL     1       0.645  13.024  18.641  0.00  0.00    +0.000 A 
ATOM     13  C   UNL     1       1.153  11.833  19.154  0.00  0.00    +0.000 A 
ATOM     14  C   UNL     1       0.350  10.686  19.182  0.00  0.00    +0.000 A 
ATOM     15  C   UNL     1      -0.965  10.749  18.694  0.00  0.00    +0.000 A 
BRANCH  10  18
ATOM     16  C   UNL     1      -3.197  11.217  16.502  0.00  0.00    +0.000 C 
ATOM     17  O   UNL     1      -2.590  10.369  15.865  0.00  0.00    +0.000 OA
ATOM     18  N   UNL     1      -2.764  11.918  17.595  0.00  0.00    +0.000 N 
ATOM     19  H   UNL     1      -3.463  12.514  18.015  0.00  0.00    +0.000 HD
BRANCH  16  20
ATOM     20  O   UNL     1      -4.432  11.669  16.157  0.00  0.00    +0.000 OA
BRANCH  20  21
ATOM     21  C   UNL     1      -5.328  11.729  17.272  0.00  0.00    +0.000 C 
BRANCH  21  22
ATOM     22  C   UNL     1      -6.316  12.889  17.201  0.00  0.00    +0.000 C 
BRANCH  22  24
ATOM     23  C   UNL     1      -5.459  13.012  19.591  0.00  0.00    +0.000 C 
ATOM     24  C   UNL     1      -6.533  13.449  18.610  0.00  0.00    +0.000 C 
ENDBRANCH  22  24
ENDBRANCH  21  22
ENDBRANCH  20  21
ENDBRANCH  16  20
ENDBRANCH  10  18
ENDBRANCH   1  14
BRANCH   6  25
ATOM     25  C   UNL     1       3.999   5.760  18.299  0.00  0.00    +0.000 C 
ATOM     26  O   UNL     1       5.215   5.930  18.228  0.00  0.00    +0.000 OA
BRANCH  25  27
ATOM     27  C   UNL     1       3.379   4.445  18.328  0.00  0.00    +0.000 A 
ATOM     28  C   UNL     1       2.307   3.928  17.621  0.00  0.00    +0.000 A 
ATOM     29  C   UNL     1       2.018   2.574  17.958  0.00  0.00    +0.000 A 
ATOM     30  C   UNL     1       2.897   2.078  18.892  0.00  0.00    +0.000 A 
ATOM     31  S   UNL     1       4.064   3.238  19.352  0.00  0.00    +0.000 S 
ENDBRANCH  25  27
ENDBRANCH   6  25
TORSDOF 8
ENDMDL
MODEL 7
REMARK VINA RESULT:      -7.7      4.153      8.932
REMARK  Name = 
REMARK  9 active torsions:
REMARK  status: ('A' for Active; 'I' for Inactive)
REMARK    1  A    between atoms: C_1  and  C_2
REMARK    2  A    between atoms: C_2  and  C_3
REMARK    3  A    between atoms: C_3  and  C_4
REMARK    4  A    between atoms: C_4  and  O_5
REMARK    5  A    between atoms: O_5  and  C_6
REMARK    6  A    between atoms: N_8  and  C_9
REMARK    7  A    between atoms: C_13  and  C_14
REMARK    8  A    between atoms: C_19  and  C_20
REMARK    9  A    between atoms: C_20  and  C_22
REMARK                            x       y       z     vdW  Elec       q    Type
REMARK                         _______ _______ _______ _____ _____    ______ ____
ROOT
ATOM      1  C   UNL     1       0.926   9.110  19.881  0.00  0.00    +0.000 A 
ATOM      2  C   UNL     1       0.584   8.522  21.040  0.00  0.00    +0.000 A 
ATOM      3  C   UNL     1       1.225   7.212  21.312  0.00  0.00    +0.000 A 
ATOM      4  N   UNL     1       2.068   6.600  20.540  0.00  0.00    +0.000 NA
ATOM      5  C   UNL     1       2.376   7.218  19.356  0.00  0.00    +0.000 A 
ATOM      6  C   UNL     1       3.228   6.866  18.323  0.00  0.00    +0.000 A 
ATOM      7  C   UNL     1       3.133   7.944  17.421  0.00  0.00    +0.000 A 
ATOM      8  N   UNL     1       2.277   8.890  17.806  0.00  0.00    +0.000 NA
ATOM      9  N   UNL     1       1.821   8.462  19.013  0.00  0.00    +0.000 N 
ENDROOT
BRANCH   1  14
ATOM     10  C   UNL     1      -1.015  11.866  18.181  0.00  0.00    +0.000 A 
ATOM     11  C   UNL     1      -0.549  12.979  18.884  0.00  0.00    +0.000 A 
ATOM     12  C   UNL     1       0.364  12.833  19.930  0.00  0.00    +0.000 A 
ATOM     13  C   UNL     1       0.834  11.567  20.275  0.00  0.00    +0.000 A 
ATOM     14  C   UNL     1       0.365  10.438  19.593  0.00  0.00    +0.000 A 
ATOM     15  C   UNL     1      -0.579  10.592  18.565  0.00  0.00    +0.000 A 
BRANCH  10  18
ATOM     16  C   UNL     1      -3.102  11.306  16.956  0.00  0.00    +0.000 C 
ATOM     17  O   UNL     1      -3.682  10.614  17.780  0.00  0.00    +0.000 OA
ATOM     18  N   UNL     1      -1.912  11.967  17.100  0.00  0.00    +0.000 N 
ATOM     19  H   UNL     1      -1.658  12.548  16.315  0.00  0.00    +0.000 HD
BRANCH  16  20
ATOM     20  O   UNL     1      -3.539  11.470  15.679  0.00  0.00    +0.000 OA
BRANCH  20  21
ATOM     21  C   UNL     1      -3.082  10.433  14.803  0.00  0.00    +0.000 C 
BRANCH  21  22
ATOM     22  C   UNL     1      -4.203   9.745  14.031  0.00  0.00    +0.000 C 
BRANCH  22  24
ATOM     23  C   UNL     1      -5.127   9.644  11.666  0.00  0.00    +0.000 C 
ATOM     24  C   UNL     1      -3.891   9.806  12.533  0.00  0.00    +0.000 C 
ENDBRANCH  22  24
ENDBRANCH  21  22
ENDBRANCH  20  21
ENDBRANCH  16  20
ENDBRANCH  10  18
ENDBRANCH   1  14
BRANCH   6  25
ATOM     25  C   UNL     1       4.122   5.720  18.182  0.00  0.00    +0.000 C 
ATOM     26  O   UNL     1       5.319   5.921  17.991  0.00  0.00    +0.000 OA
BRANCH  25  27
ATOM     27  C   UNL     1       3.536   4.390  18.236  0.00  0.00    +0.000 A 
ATOM     28  C   UNL     1       2.455   3.843  17.565  0.00  0.00    +0.000 A 
ATOM     29  C   UNL     1       2.211   2.484  17.916  0.00  0.00    +0.000 A 
ATOM     30  C   UNL     1       3.133   2.014  18.822  0.00  0.00    +0.000 A 
ATOM     31  S   UNL     1       4.285   3.204  19.240  0.00  0.00    +0.000 S 
ENDBRANCH  25  27
ENDBRANCH   6  25
TORSDOF 8
ENDMDL
MODEL 8
REMARK VINA RESULT:      -7.6      3.494      9.212
REMARK  Name = 
REMARK  9 active torsions:
REMARK  status: ('A' for Active; 'I' for Inactive)
REMARK    1  A    between atoms: C_1  and  C_2
REMARK    2  A    between atoms: C_2  and  C_3
REMARK    3  A    between atoms: C_3  and  C_4
REMARK    4  A    between atoms: C_4  and  O_5
REMARK    5  A    between atoms: O_5  and  C_6
REMARK    6  A    between atoms: N_8  and  C_9
REMARK    7  A    between atoms: C_13  and  C_14
REMARK    8  A    between atoms: C_19  and  C_20
REMARK    9  A    between atoms: C_20  and  C_22
REMARK                            x       y       z     vdW  Elec       q    Type
REMARK                         _______ _______ _______ _____ _____    ______ ____
ROOT
ATOM      1  C   UNL     1       2.754   5.931  18.170  0.00  0.00    +0.000 A 
ATOM      2  C   UNL     1       2.102   4.762  18.058  0.00  0.00    +0.000 A 
ATOM      3  C   UNL     1       2.819   3.691  17.324  0.00  0.00    +0.000 A 
ATOM      4  N   UNL     1       3.998   3.788  16.791  0.00  0.00    +0.000 NA
ATOM      5  C   UNL     1       4.624   5.002  16.906  0.00  0.00    +0.000 A 
ATOM      6  C   UNL     1       5.864   5.448  16.479  0.00  0.00    +0.000 A 
ATOM      7  C   UNL     1       5.929   6.774  16.948  0.00  0.00    +0.000 A 
ATOM      8  N   UNL     1       4.828   7.171  17.586  0.00  0.00    +0.000 NA
ATOM      9  N   UNL     1       4.024   6.075  17.585  0.00  0.00    +0.000 N 
ENDROOT
BRANCH   1  14
ATOM     10  C   UNL     1       1.325   9.308  19.069  0.00  0.00    +0.000 A 
ATOM     11  C   UNL     1       1.093   9.134  20.435  0.00  0.00    +0.000 A 
ATOM     12  C   UNL     1       1.365   7.913  21.055  0.00  0.00    +0.000 A 
ATOM     13  C   UNL     1       1.889   6.855  20.315  0.00  0.00    +0.000 A 
ATOM     14  C   UNL     1       2.112   7.006  18.941  0.00  0.00    +0.000 A 
ATOM     15  C   UNL     1       1.802   8.226  18.320  0.00  0.00    +0.000 A 
BRANCH  10  18
ATOM     16  C   UNL     1       1.223  11.786  18.931  0.00  0.00    +0.000 C 
ATOM     17  O   UNL     1       1.690  12.103  20.016  0.00  0.00    +0.000 OA
ATOM     18  N   UNL     1       1.093  10.529  18.406  0.00  0.00    +0.000 N 
ATOM     19  H   UNL     1       0.753  10.505  17.455  0.00  0.00    +0.000 HD
BRANCH  16  20
ATOM     20  O   UNL     1       0.665  12.678  18.070  0.00  0.00    +0.000 OA
BRANCH  20  21
ATOM     21  C   UNL     1      -0.727  12.894  18.327  0.00  0.00    +0.000 C 
BRANCH  21  22
ATOM     22  C   UNL     1      -1.649  12.044  17.460  0.00  0.00    +0.000 C 
BRANCH  22  24
ATOM     23  C   UNL     1      -2.781   9.797  17.819  0.00  0.00    +0.000 C 
ATOM     24  C   UNL     1      -2.546  11.194  18.365  0.00  0.00    +0.000 C 
ENDBRANCH  22  24
ENDBRANCH  21  22
ENDBRANCH  20  21
ENDBRANCH  16  20
ENDBRANCH  10  18
ENDBRANCH   1  14
BRANCH   6  25
ATOM     25  C   UNL     1       6.941   4.737  15.795  0.00  0.00    +0.000 C 
ATOM     26  O   UNL     1       7.964   4.468  16.419  0.00  0.00    +0.000 OA
BRANCH  25  27
ATOM     27  C   UNL     1       6.759   4.419  14.387  0.00  0.00    +0.000 A 
ATOM     28  C   UNL     1       5.794   3.665  13.742  0.00  0.00    +0.000 A 
ATOM     29  C   UNL     1       5.987   3.603  12.331  0.00  0.00    +0.000 A 
ATOM     30  C   UNL     1       7.077   4.339  11.929  0.00  0.00    +0.000 A 
ATOM     31  S   UNL     1       7.856   5.102  13.244  0.00  0.00    +0.000 S 
ENDBRANCH  25  27
ENDBRANCH   6  25
TORSDOF 8
ENDMDL
MODEL 9
REMARK VINA RESULT:      -7.6      3.558      9.646
REMARK  Name = 
REMARK  9 active torsions:
REMARK  status: ('A' for Active; 'I' for Inactive)
REMARK    1  A    between atoms: C_1  and  C_2
REMARK    2  A    between atoms: C_2  and  C_3
REMARK    3  A    between atoms: C_3  and  C_4
REMARK    4  A    between atoms: C_4  and  O_5
REMARK    5  A    between atoms: O_5  and  C_6
REMARK    6  A    between atoms: N_8  and  C_9
REMARK    7  A    between atoms: C_13  and  C_14
REMARK    8  A    between atoms: C_19  and  C_20
REMARK    9  A    between atoms: C_20  and  C_22
REMARK                            x       y       z     vdW  Elec       q    Type
REMARK                         _______ _______ _______ _____ _____    ______ ____
ROOT
ATOM      1  C   UNL     1       0.823   9.449  19.673  0.00  0.00    +0.000 A 
ATOM      2  C   UNL     1       0.504   9.044  20.914  0.00  0.00    +0.000 A 
ATOM      3  C   UNL     1       1.132   7.777  21.360  0.00  0.00    +0.000 A 
ATOM      4  N   UNL     1       1.944   7.041  20.666  0.00  0.00    +0.000 NA
ATOM      5  C   UNL     1       2.228   7.473  19.397  0.00  0.00    +0.000 A 
ATOM      6  C   UNL     1       3.046   6.957  18.406  0.00  0.00    +0.000 A 
ATOM      7  C   UNL     1       2.943   7.892  17.357  0.00  0.00    +0.000 A 
ATOM      8  N   UNL     1       2.113   8.901  17.621  0.00  0.00    +0.000 NA
ATOM      9  N   UNL     1       1.684   8.663  18.888  0.00  0.00    +0.000 N 
ENDROOT
BRANCH   1  14
ATOM     10  C   UNL     1      -1.576  11.991  18.246  0.00  0.00    +0.000 A 
ATOM     11  C   UNL     1      -0.731  13.095  18.113  0.00  0.00    +0.000 A 
ATOM     12  C   UNL     1       0.603  13.026  18.519  0.00  0.00    +0.000 A 
ATOM     13  C   UNL     1       1.111  11.843  19.050  0.00  0.00    +0.000 A 
ATOM     14  C   UNL     1       0.275  10.731  19.206  0.00  0.00    +0.000 A 
ATOM     15  C   UNL     1      -1.074  10.821  18.828  0.00  0.00    +0.000 A 
BRANCH  10  18
ATOM     16  C   UNL     1      -3.427  11.443  16.682  0.00  0.00    +0.000 C 
ATOM     17  O   UNL     1      -2.856  10.714  15.885  0.00  0.00    +0.000 OA
ATOM     18  N   UNL     1      -2.919  12.004  17.823  0.00  0.00    +0.000 N 
ATOM     19  H   UNL     1      -3.594  12.509  18.378  0.00  0.00    +0.000 HD
BRANCH  16  20
ATOM     20  O   UNL     1      -4.699  11.891  16.506  0.00  0.00    +0.000 OA
BRANCH  20  21
ATOM     21  C   UNL     1      -5.554  11.567  17.608  0.00  0.00    +0.000 C 
BRANCH  21  22
ATOM     22  C   UNL     1      -6.893  12.296  17.578  0.00  0.00    +0.000 C 
BRANCH  22  24
ATOM     23  C   UNL     1      -7.261  14.515  16.396  0.00  0.00    +0.000 C 
ATOM     24  C   UNL     1      -6.643  13.807  17.588  0.00  0.00    +0.000 C 
ENDBRANCH  22  24
ENDBRANCH  21  22
ENDBRANCH  20  21
ENDBRANCH  16  20
ENDBRANCH  10  18
ENDBRANCH   1  14
BRANCH   6  25
ATOM     25  C   UNL     1       3.918   5.785  18.413  0.00  0.00    +0.000 C 
ATOM     26  O   UNL     1       5.115   5.935  18.178  0.00  0.00    +0.000 OA
BRANCH  25  27
ATOM     27  C   UNL     1       3.311   4.487  18.660  0.00  0.00    +0.000 A 
ATOM     28  C   UNL     1       3.636   3.487  19.561  0.00  0.00    +0.000 A 
ATOM     29  C   UNL     1       2.773   2.357  19.473  0.00  0.00    +0.000 A 
ATOM     30  C   UNL     1       1.789   2.534  18.530  0.00  0.00    +0.000 A 
ATOM     31  S   UNL     1       1.904   4.055  17.761  0.00  0.00    +0.000 S 
ENDBRANCH  25  27
ENDBRANCH   6  25
TORSDOF 8
ENDMDL
