MODEL 1
REMARK VINA RESULT:      -7.6      0.000      0.000
REMARK  Name = 
REMARK  13 active torsions:
REMARK  status: ('A' for Active; 'I' for Inactive)
REMARK    1  A    between atoms: C_1  and  C_2
REMARK    2  A    between atoms: C_2  and  O_3
REMARK    3  A    between atoms: C_2  and  C_4
REMARK    4  A    between atoms: C_8  and  C_9
REMARK    5  A    between atoms: C_9  and  O_11
REMARK    6  A    between atoms: C_12  and  S_13
REMARK    7  A    between atoms: S_13  and  C_14
REMARK    8  A    between atoms: C_17  and  C_18
REMARK    9  A    between atoms: C_18  and  N_19
REMARK   10  A    between atoms: N_19  and  C_20
REMARK   11  A    between atoms: C_23  and  C_24
REMARK   12  A    between atoms: C_24  and  N_25
REMARK   13  A    between atoms: C_29  and  C_30
REMARK                            x       y       z     vdW  Elec       q    Type
REMARK                         _______ _______ _______ _____ _____    ______ ____
ROOT
ATOM      1  C   UNL     1       1.419   5.213  20.553  0.00  0.00    +0.000 C 
ATOM      2  C   UNL     1       2.171   4.291  21.506  0.00  0.00    +0.000 C 
ATOM      3  N   UNL     1       1.803   2.898  21.216  0.00  0.00    +0.000 NA
ATOM      4  C   UNL     1       1.205   2.852  19.863  0.00  0.00    +0.000 C 
ATOM      5  C   UNL     1       1.009   4.297  19.391  0.00  0.00    +0.000 C 
ATOM      6  H   UNL     1       1.098   2.588  21.887  0.00  0.00    +0.000 HD
ENDROOT
BRANCH   1   7
ATOM      7  S   UNL     1       2.462   6.588  19.935  0.00  0.00    +0.000 S 
BRANCH   7  13
ATOM      8  C   UNL     1      -0.442  10.985  20.968  0.00  0.00    +0.000 C 
ATOM      9  C   UNL     1      -0.387  10.504  19.490  0.00  0.00    +0.000 C 
ATOM     10  O   UNL     1      -1.122  10.347  18.541  0.00  0.00    +0.000 OA
ATOM     11  N   UNL     1       0.936  10.202  19.632  0.00  0.00    +0.000 N 
ATOM     12  C   UNL     1       1.483   9.053  19.107  0.00  0.00    +0.000 C 
ATOM     13  C   UNL     1       1.545   8.053  20.001  0.00  0.00    +0.000 C 
ATOM     14  C   UNL     1       0.960   8.526  21.338  0.00  0.00    +0.000 C 
ATOM     15  C   UNL     1      -0.365   7.898  21.752  0.00  0.00    +0.000 C 
ATOM     16  C   UNL     1       0.823  10.052  21.113  0.00  0.00    +0.000 C 
BRANCH   8  18
ATOM     17  C   UNL     1      -1.017  13.377  20.332  0.00  0.00    +0.000 C 
ATOM     18  C   UNL     1      -0.102  12.468  21.134  0.00  0.00    +0.000 C 
BRANCH  18  19
ATOM     19  O   UNL     1      -0.153  12.800  22.519  0.00  0.00    +0.000 OA
ATOM     20  H   UNL     1      -1.063  13.055  22.750  0.00  0.00    +0.000 HD
ENDBRANCH  18  19
ENDBRANCH   8  18
BRANCH  12  21
ATOM     21  C   UNL     1       2.103   9.180  17.771  0.00  0.00    +0.000 C 
ATOM     22  O   UNL     1       2.619   8.257  17.164  0.00  0.00    +0.000 OA
BRANCH  21  23
ATOM     23  O   UNL     1       2.081  10.453  17.313  0.00  0.00    +0.000 OA
ATOM     24  H   UNL     1       2.499  10.573  16.428  0.00  0.00    +0.000 HD
ENDBRANCH  21  23
ENDBRANCH  12  21
ENDBRANCH   7  13
ENDBRANCH   1   7
BRANCH   4  25
ATOM     25  C   UNL     1       2.038   1.997  18.859  0.00  0.00    +0.000 C 
BRANCH  25  26
ATOM     26  N   UNL     1       3.471   2.147  19.145  0.00  0.00    +0.000 N 
ATOM     27  H   UNL     1       3.606   2.189  20.155  0.00  0.00    +0.000 HD
BRANCH  26  28
ATOM     28  C   UNL     1       4.206   3.144  18.489  0.00  0.00    +0.000 A 
ATOM     29  C   UNL     1       5.140   3.890  19.231  0.00  0.00    +0.000 A 
ATOM     30  C   UNL     1       5.951   4.861  18.636  0.00  0.00    +0.000 A 
ATOM     31  C   UNL     1       5.895   5.094  17.252  0.00  0.00    +0.000 A 
ATOM     32  C   UNL     1       5.002   4.329  16.507  0.00  0.00    +0.000 A 
ATOM     33  C   UNL     1       4.188   3.350  17.107  0.00  0.00    +0.000 A 
BRANCH  31  34
ATOM     34  C   UNL     1       6.736   6.195  16.649  0.00  0.00    +0.000 C 
BRANCH  34  35
ATOM     35  N   UNL     1       7.519   5.766  15.491  0.00  0.00    +0.000 NA
ATOM     36  H   UNL     1       7.829   6.594  14.987  0.00  0.00    +0.000 HD
ATOM     37  H   UNL     1       6.912   5.256  14.857  0.00  0.00    +0.000 HD
ENDBRANCH  34  35
ENDBRANCH  31  34
ENDBRANCH  26  28
ENDBRANCH  25  26
ENDBRANCH   4  25
TORSDOF 11
ENDMDL
MODEL 2
REMARK VINA RESULT:      -7.2      2.116      3.397
REMARK  Name = 
REMARK  13 active torsions:
REMARK  status: ('A' for Active; 'I' for Inactive)
REMARK    1  A    between atoms: C_1  and  C_2
REMARK    2  A    between atoms: C_2  and  O_3
REMARK    3  A    between atoms: C_2  and  C_4
REMARK    4  A    between atoms: C_8  and  C_9
REMARK    5  A    between atoms: C_9  and  O_11
REMARK    6  A    between atoms: C_12  and  S_13
REMARK    7  A    between atoms: S_13  and  C_14
REMARK    8  A    between atoms: C_17  and  C_18
REMARK    9  A    between atoms: C_18  and  N_19
REMARK   10  A    between atoms: N_19  and  C_20
REMARK   11  A    between atoms: C_23  and  C_24
REMARK   12  A    between atoms: C_24  and  N_25
REMARK   13  A    between atoms: C_29  and  C_30
REMARK                            x       y       z     vdW  Elec       q    Type
REMARK                         _______ _______ _______ _____ _____    ______ ____
ROOT
ATOM      1  C   UNL     1       1.674   5.742  19.192  0.00  0.00    +0.000 C 
ATOM      2  C   UNL     1       1.318   4.305  19.555  0.00  0.00    +0.000 C 
ATOM      3  N   UNL     1       2.023   3.392  18.645  0.00  0.00    +0.000 NA
ATOM      4  C   UNL     1       3.136   4.138  18.015  0.00  0.00    +0.000 C 
ATOM      5  C   UNL     1       2.979   5.614  18.393  0.00  0.00    +0.000 C 
ATOM      6  H   UNL     1       1.385   3.089  17.907  0.00  0.00    +0.000 HD
ENDROOT
BRANCH   1   7
ATOM      7  S   UNL     1       1.937   6.796  20.668  0.00  0.00    +0.000 S 
BRANCH   7  13
ATOM      8  C   UNL     1       0.308  11.531  18.731  0.00  0.00    +0.000 C 
ATOM      9  C   UNL     1       0.899  11.520  20.170  0.00  0.00    +0.000 C 
ATOM     10  O   UNL     1       1.656  12.163  20.863  0.00  0.00    +0.000 OA
ATOM     11  N   UNL     1       0.257  10.346  20.431  0.00  0.00    +0.000 N 
ATOM     12  C   UNL     1       0.864   9.319  21.118  0.00  0.00    +0.000 C 
ATOM     13  C   UNL     1       1.413   8.403  20.303  0.00  0.00    +0.000 C 
ATOM     14  C   UNL     1       1.189   8.818  18.844  0.00  0.00    +0.000 C 
ATOM     15  C   UNL     1       2.430   9.249  18.071  0.00  0.00    +0.000 C 
ATOM     16  C   UNL     1       0.174   9.978  18.986  0.00  0.00    +0.000 C 
BRANCH   8  18
ATOM     17  C   UNL     1      -1.132  13.475  19.510  0.00  0.00    +0.000 C 
ATOM     18  C   UNL     1      -1.051  12.231  18.641  0.00  0.00    +0.000 C 
BRANCH  18  19
ATOM     19  O   UNL     1      -1.314  12.553  17.278  0.00  0.00    +0.000 OA
ATOM     20  H   UNL     1      -0.653  13.199  16.972  0.00  0.00    +0.000 HD
ENDBRANCH  18  19
ENDBRANCH   8  18
BRANCH  12  21
ATOM     21  C   UNL     1       0.614   9.275  22.575  0.00  0.00    +0.000 C 
ATOM     22  O   UNL     1       1.454   9.524  23.422  0.00  0.00    +0.000 OA
BRANCH  21  23
ATOM     23  O   UNL     1      -0.644   8.875  22.869  0.00  0.00    +0.000 OA
ATOM     24  H   UNL     1      -0.772   8.592  23.804  0.00  0.00    +0.000 HD
ENDBRANCH  21  23
ENDBRANCH  12  21
ENDBRANCH   7  13
ENDBRANCH   1   7
BRANCH   4  25
ATOM     25  C   UNL     1       4.538   3.565  18.385  0.00  0.00    +0.000 C 
BRANCH  25  26
ATOM     26  N   UNL     1       5.541   4.033  17.418  0.00  0.00    +0.000 N 
ATOM     27  H   UNL     1       6.176   3.266  17.201  0.00  0.00    +0.000 HD
BRANCH  26  28
ATOM     28  C   UNL     1       6.240   5.222  17.669  0.00  0.00    +0.000 A 
ATOM     29  C   UNL     1       7.242   5.217  18.657  0.00  0.00    +0.000 A 
ATOM     30  C   UNL     1       8.021   6.347  18.924  0.00  0.00    +0.000 A 
ATOM     31  C   UNL     1       7.863   7.523  18.174  0.00  0.00    +0.000 A 
ATOM     32  C   UNL     1       6.902   7.518  17.167  0.00  0.00    +0.000 A 
ATOM     33  C   UNL     1       6.119   6.380  16.897  0.00  0.00    +0.000 A 
BRANCH  31  34
ATOM     34  C   UNL     1       8.674   8.747  18.530  0.00  0.00    +0.000 C 
BRANCH  34  35
ATOM     35  N   UNL     1       8.236   9.960  17.842  0.00  0.00    +0.000 NA
ATOM     36  H   UNL     1       7.387  10.297  18.292  0.00  0.00    +0.000 HD
ATOM     37  H   UNL     1       7.979   9.721  16.890  0.00  0.00    +0.000 HD
ENDBRANCH  34  35
ENDBRANCH  31  34
ENDBRANCH  26  28
ENDBRANCH  25  26
ENDBRANCH   4  25
TORSDOF 11
ENDMDL
MODEL 3
REMARK VINA RESULT:      -7.2      0.630      1.193
REMARK  Name = 
REMARK  13 active torsions:
REMARK  status: ('A' for Active; 'I' for Inactive)
REMARK    1  A    between atoms: C_1  and  C_2
REMARK    2  A    between atoms: C_2  and  O_3
REMARK    3  A    between atoms: C_2  and  C_4
REMARK    4  A    between atoms: C_8  and  C_9
REMARK    5  A    between atoms: C_9  and  O_11
REMARK    6  A    between atoms: C_12  and  S_13
REMARK    7  A    between atoms: S_13  and  C_14
REMARK    8  A    between atoms: C_17  and  C_18
REMARK    9  A    between atoms: C_18  and  N_19
REMARK   10  A    between atoms: N_19  and  C_20
REMARK   11  A    between atoms: C_23  and  C_24
REMARK   12  A    between atoms: C_24  and  N_25
REMARK   13  A    between atoms: C_29  and  C_30
REMARK                            x       y       z     vdW  Elec       q    Type
REMARK                         _______ _______ _______ _____ _____    ______ ____
ROOT
ATOM      1  C   UNL     1       1.282   5.064  20.438  0.00  0.00    +0.000 C 
ATOM      2  C   UNL     1       1.802   3.885  21.254  0.00  0.00    +0.000 C 
ATOM      3  N   UNL     1       1.456   2.635  20.563  0.00  0.00    +0.000 NA
ATOM      4  C   UNL     1       1.136   2.960  19.155  0.00  0.00    +0.000 C 
ATOM      5  C   UNL     1       1.081   4.486  19.030  0.00  0.00    +0.000 C 
ATOM      6  H   UNL     1       0.623   2.230  20.993  0.00  0.00    +0.000 HD
ENDROOT
BRANCH   1   7
ATOM      7  S   UNL     1       2.468   6.460  20.386  0.00  0.00    +0.000 S 
BRANCH   7  13
ATOM      8  C   UNL     1      -0.335  11.026  20.752  0.00  0.00    +0.000 C 
ATOM      9  C   UNL     1      -0.313  10.317  19.367  0.00  0.00    +0.000 C 
ATOM     10  O   UNL     1      -1.067  10.029  18.464  0.00  0.00    +0.000 OA
ATOM     11  N   UNL     1       1.005  10.013  19.537  0.00  0.00    +0.000 N 
ATOM     12  C   UNL     1       1.522   8.785  19.193  0.00  0.00    +0.000 C 
ATOM     13  C   UNL     1       1.579   7.937  20.233  0.00  0.00    +0.000 C 
ATOM     14  C   UNL     1       1.026   8.626  21.486  0.00  0.00    +0.000 C 
ATOM     15  C   UNL     1      -0.304   8.099  22.011  0.00  0.00    +0.000 C 
ATOM     16  C   UNL     1       0.914  10.100  21.025  0.00  0.00    +0.000 C 
BRANCH   8  18
ATOM     17  C   UNL     1      -1.042  13.355  20.023  0.00  0.00    +0.000 C 
ATOM     18  C   UNL     1       0.036  12.509  20.678  0.00  0.00    +0.000 C 
BRANCH  18  19
ATOM     19  O   UNL     1       0.313  12.981  21.994  0.00  0.00    +0.000 OA
ATOM     20  H   UNL     1       0.979  12.402  22.405  0.00  0.00    +0.000 HD
ENDBRANCH  18  19
ENDBRANCH   8  18
BRANCH  12  21
ATOM     21  C   UNL     1       2.122   8.687  17.845  0.00  0.00    +0.000 C 
ATOM     22  O   UNL     1       2.455   9.646  17.171  0.00  0.00    +0.000 OA
BRANCH  21  23
ATOM     23  O   UNL     1       2.217   7.407  17.417  0.00  0.00    +0.000 OA
ATOM     24  H   UNL     1       2.714   7.298  16.573  0.00  0.00    +0.000 HD
ENDBRANCH  21  23
ENDBRANCH  12  21
ENDBRANCH   7  13
ENDBRANCH   1   7
BRANCH   4  25
ATOM     25  C   UNL     1       2.125   2.306  18.141  0.00  0.00    +0.000 C 
BRANCH  25  26
ATOM     26  N   UNL     1       3.495   2.367  18.668  0.00  0.00    +0.000 N 
ATOM     27  H   UNL     1       3.475   2.167  19.668  0.00  0.00    +0.000 HD
BRANCH  26  28
ATOM     28  C   UNL     1       4.295   3.483  18.385  0.00  0.00    +0.000 A 
ATOM     29  C   UNL     1       4.173   4.097  17.125  0.00  0.00    +0.000 A 
ATOM     30  C   UNL     1       4.894   5.246  16.791  0.00  0.00    +0.000 A 
ATOM     31  C   UNL     1       5.739   5.864  17.728  0.00  0.00    +0.000 A 
ATOM     32  C   UNL     1       5.830   5.284  18.990  0.00  0.00    +0.000 A 
ATOM     33  C   UNL     1       5.102   4.127  19.327  0.00  0.00    +0.000 A 
BRANCH  31  34
ATOM     34  C   UNL     1       6.554   7.067  17.314  0.00  0.00    +0.000 C 
BRANCH  34  35
ATOM     35  N   UNL     1       7.694   6.735  16.461  0.00  0.00    +0.000 NA
ATOM     36  H   UNL     1       8.473   6.462  17.057  0.00  0.00    +0.000 HD
ATOM     37  H   UNL     1       7.990   7.574  15.972  0.00  0.00    +0.000 HD
ENDBRANCH  34  35
ENDBRANCH  31  34
ENDBRANCH  26  28
ENDBRANCH  25  26
ENDBRANCH   4  25
TORSDOF 11
ENDMDL
MODEL 4
REMARK VINA RESULT:      -7.1      1.847      2.965
REMARK  Name = 
REMARK  13 active torsions:
REMARK  status: ('A' for Active; 'I' for Inactive)
REMARK    1  A    between atoms: C_1  and  C_2
REMARK    2  A    between atoms: C_2  and  O_3
REMARK    3  A    between atoms: C_2  and  C_4
REMARK    4  A    between atoms: C_8  and  C_9
REMARK    5  A    between atoms: C_9  and  O_11
REMARK    6  A    between atoms: C_12  and  S_13
REMARK    7  A    between atoms: S_13  and  C_14
REMARK    8  A    between atoms: C_17  and  C_18
REMARK    9  A    between atoms: C_18  and  N_19
REMARK   10  A    between atoms: N_19  and  C_20
REMARK   11  A    between atoms: C_23  and  C_24
REMARK   12  A    between atoms: C_24  and  N_25
REMARK   13  A    between atoms: C_29  and  C_30
REMARK                            x       y       z     vdW  Elec       q    Type
REMARK                         _______ _______ _______ _____ _____    ______ ____
ROOT
ATOM      1  C   UNL     1       1.496   5.511  19.580  0.00  0.00    +0.000 C 
ATOM      2  C   UNL     1       1.908   4.301  20.413  0.00  0.00    +0.000 C 
ATOM      3  N   UNL     1       1.722   3.083  19.612  0.00  0.00    +0.000 NA
ATOM      4  C   UNL     1       1.635   3.476  18.188  0.00  0.00    +0.000 C 
ATOM      5  C   UNL     1       1.555   5.005  18.132  0.00  0.00    +0.000 C 
ATOM      6  H   UNL     1       0.842   2.637  19.874  0.00  0.00    +0.000 HD
ENDROOT
BRANCH   1   7
ATOM      7  S   UNL     1       2.630   6.934  19.800  0.00  0.00    +0.000 S 
BRANCH   7  13
ATOM      8  C   UNL     1      -0.105  11.329  18.373  0.00  0.00    +0.000 C 
ATOM      9  C   UNL     1       0.461  11.286  19.821  0.00  0.00    +0.000 C 
ATOM     10  O   UNL     1       1.030  12.004  20.613  0.00  0.00    +0.000 OA
ATOM     11  N   UNL     1       0.127   9.967  19.918  0.00  0.00    +0.000 N 
ATOM     12  C   UNL     1       0.964   9.043  20.502  0.00  0.00    +0.000 C 
ATOM     13  C   UNL     1       1.728   8.397  19.606  0.00  0.00    +0.000 C 
ATOM     14  C   UNL     1       1.419   8.922  18.199  0.00  0.00    +0.000 C 
ATOM     15  C   UNL     1       2.521   9.734  17.528  0.00  0.00    +0.000 C 
ATOM     16  C   UNL     1       0.148   9.772  18.438  0.00  0.00    +0.000 C 
BRANCH   8  18
ATOM     17  C   UNL     1      -2.004  12.686  19.379  0.00  0.00    +0.000 C 
ATOM     18  C   UNL     1      -1.593  11.682  18.315  0.00  0.00    +0.000 C 
BRANCH  18  19
ATOM     19  O   UNL     1      -1.899  12.177  17.014  0.00  0.00    +0.000 OA
ATOM     20  H   UNL     1      -2.142  13.116  17.081  0.00  0.00    +0.000 HD
ENDBRANCH  18  19
ENDBRANCH   8  18
BRANCH  12  21
ATOM     21  C   UNL     1       0.722   8.761  21.933  0.00  0.00    +0.000 C 
ATOM     22  O   UNL     1       1.484   9.073  22.832  0.00  0.00    +0.000 OA
BRANCH  21  23
ATOM     23  O   UNL     1      -0.421   8.066  22.134  0.00  0.00    +0.000 OA
ATOM     24  H   UNL     1      -0.679   7.974  23.081  0.00  0.00    +0.000 HD
ENDBRANCH  21  23
ENDBRANCH  12  21
ENDBRANCH   7  13
ENDBRANCH   1   7
BRANCH   4  25
ATOM     25  C   UNL     1       2.800   2.901  17.326  0.00  0.00    +0.000 C 
BRANCH  25  26
ATOM     26  N   UNL     1       4.037   2.863  18.119  0.00  0.00    +0.000 N 
ATOM     27  H   UNL     1       3.805   2.637  19.086  0.00  0.00    +0.000 HD
BRANCH  26  28
ATOM     28  C   UNL     1       4.937   3.937  18.046  0.00  0.00    +0.000 A 
ATOM     29  C   UNL     1       5.101   4.594  16.813  0.00  0.00    +0.000 A 
ATOM     30  C   UNL     1       5.935   5.707  16.676  0.00  0.00    +0.000 A 
ATOM     31  C   UNL     1       6.608   6.244  17.786  0.00  0.00    +0.000 A 
ATOM     32  C   UNL     1       6.414   5.622  19.016  0.00  0.00    +0.000 A 
ATOM     33  C   UNL     1       5.572   4.502  19.154  0.00  0.00    +0.000 A 
BRANCH  31  34
ATOM     34  C   UNL     1       7.552   7.407  17.592  0.00  0.00    +0.000 C 
BRANCH  34  35
ATOM     35  N   UNL     1       8.448   7.628  18.726  0.00  0.00    +0.000 NA
ATOM     36  H   UNL     1       8.892   8.537  18.613  0.00  0.00    +0.000 HD
ATOM     37  H   UNL     1       9.194   6.940  18.692  0.00  0.00    +0.000 HD
ENDBRANCH  34  35
ENDBRANCH  31  34
ENDBRANCH  26  28
ENDBRANCH  25  26
ENDBRANCH   4  25
TORSDOF 11
ENDMDL
MODEL 5
REMARK VINA RESULT:      -7.1      1.338      1.658
REMARK  Name = 
REMARK  13 active torsions:
REMARK  status: ('A' for Active; 'I' for Inactive)
REMARK    1  A    between atoms: C_1  and  C_2
REMARK    2  A    between atoms: C_2  and  O_3
REMARK    3  A    between atoms: C_2  and  C_4
REMARK    4  A    between atoms: C_8  and  C_9
REMARK    5  A    between atoms: C_9  and  O_11
REMARK    6  A    between atoms: C_12  and  S_13
REMARK    7  A    between atoms: S_13  and  C_14
REMARK    8  A    between atoms: C_17  and  C_18
REMARK    9  A    between atoms: C_18  and  N_19
REMARK   10  A    between atoms: N_19  and  C_20
REMARK   11  A    between atoms: C_23  and  C_24
REMARK   12  A    between atoms: C_24  and  N_25
REMARK   13  A    between atoms: C_29  and  C_30
REMARK                            x       y       z     vdW  Elec       q    Type
REMARK                         _______ _______ _______ _____ _____    ______ ____
ROOT
ATOM      1  C   UNL     1       1.475   5.569  19.453  0.00  0.00    +0.000 C 
ATOM      2  C   UNL     1       1.505   4.341  20.357  0.00  0.00    +0.000 C 
ATOM      3  N   UNL     1       1.664   3.139  19.527  0.00  0.00    +0.000 NA
ATOM      4  C   UNL     1       2.173   3.559  18.202  0.00  0.00    +0.000 C 
ATOM      5  C   UNL     1       2.126   5.089  18.148  0.00  0.00    +0.000 C 
ATOM      6  H   UNL     1       0.754   2.697  19.393  0.00  0.00    +0.000 HD
ENDROOT
BRANCH   1   7
ATOM      7  S   UNL     1       2.419   6.977  20.150  0.00  0.00    +0.000 S 
BRANCH   7  13
ATOM      8  C   UNL     1      -0.735  11.271  20.817  0.00  0.00    +0.000 C 
ATOM      9  C   UNL     1      -0.619  10.695  19.377  0.00  0.00    +0.000 C 
ATOM     10  O   UNL     1      -1.323  10.435  18.427  0.00  0.00    +0.000 OA
ATOM     11  N   UNL     1       0.713  10.475  19.566  0.00  0.00    +0.000 N 
ATOM     12  C   UNL     1       1.332   9.324  19.134  0.00  0.00    +0.000 C 
ATOM     13  C   UNL     1       1.425   8.392  20.096  0.00  0.00    +0.000 C 
ATOM     14  C   UNL     1       0.785   8.923  21.385  0.00  0.00    +0.000 C 
ATOM     15  C   UNL     1      -0.515   8.254  21.815  0.00  0.00    +0.000 C 
ATOM     16  C   UNL     1       0.574  10.420  21.052  0.00  0.00    +0.000 C 
BRANCH   8  18
ATOM     17  C   UNL     1      -1.757  13.597  20.910  0.00  0.00    +0.000 C 
ATOM     18  C   UNL     1      -0.476  12.779  20.888  0.00  0.00    +0.000 C 
BRANCH  18  19
ATOM     19  O   UNL     1       0.317  13.057  22.038  0.00  0.00    +0.000 OA
ATOM     20  H   UNL     1       0.660  12.220  22.397  0.00  0.00    +0.000 HD
ENDBRANCH  18  19
ENDBRANCH   8  18
BRANCH  12  21
ATOM     21  C   UNL     1       1.976   9.393  17.804  0.00  0.00    +0.000 C 
ATOM     22  O   UNL     1       2.385   8.423  17.190  0.00  0.00    +0.000 OA
BRANCH  21  23
ATOM     23  O   UNL     1       2.111  10.665  17.364  0.00  0.00    +0.000 OA
ATOM     24  H   UNL     1       2.748  10.771  16.620  0.00  0.00    +0.000 HD
ENDBRANCH  21  23
ENDBRANCH  12  21
ENDBRANCH   7  13
ENDBRANCH   1   7
BRANCH   4  25
ATOM     25  C   UNL     1       3.590   2.987  17.886  0.00  0.00    +0.000 C 
BRANCH  25  26
ATOM     26  N   UNL     1       4.229   3.789  16.834  0.00  0.00    +0.000 N 
ATOM     27  H   UNL     1       4.610   3.163  16.125  0.00  0.00    +0.000 HD
BRANCH  26  28
ATOM     28  C   UNL     1       5.152   4.784  17.188  0.00  0.00    +0.000 A 
ATOM     29  C   UNL     1       6.216   4.441  18.043  0.00  0.00    +0.000 A 
ATOM     30  C   UNL     1       7.207   5.361  18.395  0.00  0.00    +0.000 A 
ATOM     31  C   UNL     1       7.204   6.661  17.862  0.00  0.00    +0.000 A 
ATOM     32  C   UNL     1       6.177   6.991  16.981  0.00  0.00    +0.000 A 
ATOM     33  C   UNL     1       5.180   6.062  16.627  0.00  0.00    +0.000 A 
BRANCH  31  34
ATOM     34  C   UNL     1       8.251   7.652  18.311  0.00  0.00    +0.000 C 
BRANCH  34  35
ATOM     35  N   UNL     1       8.017   9.011  17.828  0.00  0.00    +0.000 NA
ATOM     36  H   UNL     1       7.012   9.171  17.792  0.00  0.00    +0.000 HD
ATOM     37  H   UNL     1       8.351   9.080  16.872  0.00  0.00    +0.000 HD
ENDBRANCH  34  35
ENDBRANCH  31  34
ENDBRANCH  26  28
ENDBRANCH  25  26
ENDBRANCH   4  25
TORSDOF 11
ENDMDL
MODEL 6
REMARK VINA RESULT:      -7.0      3.230      9.487
REMARK  Name = 
REMARK  13 active torsions:
REMARK  status: ('A' for Active; 'I' for Inactive)
REMARK    1  A    between atoms: C_1  and  C_2
REMARK    2  A    between atoms: C_2  and  O_3
REMARK    3  A    between atoms: C_2  and  C_4
REMARK    4  A    between atoms: C_8  and  C_9
REMARK    5  A    between atoms: C_9  and  O_11
REMARK    6  A    between atoms: C_12  and  S_13
REMARK    7  A    between atoms: S_13  and  C_14
REMARK    8  A    between atoms: C_17  and  C_18
REMARK    9  A    between atoms: C_18  and  N_19
REMARK   10  A    between atoms: N_19  and  C_20
REMARK   11  A    between atoms: C_23  and  C_24
REMARK   12  A    between atoms: C_24  and  N_25
REMARK   13  A    between atoms: C_29  and  C_30
REMARK                            x       y       z     vdW  Elec       q    Type
REMARK                         _______ _______ _______ _____ _____    ______ ____
ROOT
ATOM      1  C   UNL     1       1.013   8.986  18.717  0.00  0.00    +0.000 C 
ATOM      2  C   UNL     1       0.043   9.721  17.798  0.00  0.00    +0.000 C 
ATOM      3  N   UNL     1      -0.713  10.703  18.588  0.00  0.00    +0.000 NA
ATOM      4  C   UNL     1       0.020  10.940  19.852  0.00  0.00    +0.000 C 
ATOM      5  C   UNL     1       1.154   9.913  19.932  0.00  0.00    +0.000 C 
ATOM      6  H   UNL     1      -1.630  10.318  18.819  0.00  0.00    +0.000 HD
ENDROOT
BRANCH   1   7
ATOM      7  S   UNL     1       2.650   8.714  17.937  0.00  0.00    +0.000 S 
BRANCH   7  13
ATOM      8  C   UNL     1       3.220   3.450  18.833  0.00  0.00    +0.000 C 
ATOM      9  C   UNL     1       4.521   4.280  18.638  0.00  0.00    +0.000 C 
ATOM     10  O   UNL     1       5.626   4.393  19.120  0.00  0.00    +0.000 OA
ATOM     11  N   UNL     1       3.919   5.000  17.648  0.00  0.00    +0.000 N 
ATOM     12  C   UNL     1       4.077   6.363  17.538  0.00  0.00    +0.000 C 
ATOM     13  C   UNL     1       3.084   7.050  18.126  0.00  0.00    +0.000 C 
ATOM     14  C   UNL     1       2.085   6.068  18.752  0.00  0.00    +0.000 C 
ATOM     15  C   UNL     1       2.040   6.035  20.274  0.00  0.00    +0.000 C 
ATOM     16  C   UNL     1       2.548   4.713  18.165  0.00  0.00    +0.000 C 
BRANCH   8  18
ATOM     17  C   UNL     1       3.959   1.043  18.494  0.00  0.00    +0.000 C 
ATOM     18  C   UNL     1       3.155   2.207  17.942  0.00  0.00    +0.000 C 
BRANCH  18  19
ATOM     19  O   UNL     1       1.791   1.837  17.766  0.00  0.00    +0.000 OA
ATOM     20  H   UNL     1       1.419   1.577  18.627  0.00  0.00    +0.000 HD
ENDBRANCH  18  19
ENDBRANCH   8  18
BRANCH  12  21
ATOM     21  C   UNL     1       5.145   6.822  16.624  0.00  0.00    +0.000 C 
ATOM     22  O   UNL     1       5.082   6.757  15.409  0.00  0.00    +0.000 OA
BRANCH  21  23
ATOM     23  O   UNL     1       6.231   7.278  17.290  0.00  0.00    +0.000 OA
ATOM     24  H   UNL     1       6.259   7.024  18.242  0.00  0.00    +0.000 HD
ENDBRANCH  21  23
ENDBRANCH  12  21
ENDBRANCH   7  13
ENDBRANCH   1   7
BRANCH   4  25
ATOM     25  C   UNL     1       0.524  12.409  19.996  0.00  0.00    +0.000 C 
BRANCH  25  26
ATOM     26  N   UNL     1       0.446  12.828  21.402  0.00  0.00    +0.000 N 
ATOM     27  H   UNL     1       1.160  12.333  21.937  0.00  0.00    +0.000 HD
BRANCH  26  28
ATOM     28  C   UNL     1      -0.792  12.809  22.061  0.00  0.00    +0.000 A 
ATOM     29  C   UNL     1      -1.764  13.757  21.693  0.00  0.00    +0.000 A 
ATOM     30  C   UNL     1      -3.040  13.765  22.263  0.00  0.00    +0.000 A 
ATOM     31  C   UNL     1      -3.417  12.787  23.198  0.00  0.00    +0.000 A 
ATOM     32  C   UNL     1      -2.471  11.821  23.533  0.00  0.00    +0.000 A 
ATOM     33  C   UNL     1      -1.187  11.813  22.957  0.00  0.00    +0.000 A 
BRANCH  31  34
ATOM     34  C   UNL     1      -4.780  12.861  23.844  0.00  0.00    +0.000 C 
BRANCH  34  35
ATOM     35  N   UNL     1      -4.906  12.032  25.042  0.00  0.00    +0.000 NA
ATOM     36  H   UNL     1      -4.043  12.106  25.576  0.00  0.00    +0.000 HD
ATOM     37  H   UNL     1      -4.986  11.060  24.759  0.00  0.00    +0.000 HD
ENDBRANCH  34  35
ENDBRANCH  31  34
ENDBRANCH  26  28
ENDBRANCH  25  26
ENDBRANCH   4  25
TORSDOF 11
ENDMDL
MODEL 7
REMARK VINA RESULT:      -7.0      3.851      9.935
REMARK  Name = 
REMARK  13 active torsions:
REMARK  status: ('A' for Active; 'I' for Inactive)
REMARK    1  A    between atoms: C_1  and  C_2
REMARK    2  A    between atoms: C_2  and  O_3
REMARK    3  A    between atoms: C_2  and  C_4
REMARK    4  A    between atoms: C_8  and  C_9
REMARK    5  A    between atoms: C_9  and  O_11
REMARK    6  A    between atoms: C_12  and  S_13
REMARK    7  A    between atoms: S_13  and  C_14
REMARK    8  A    between atoms: C_17  and  C_18
REMARK    9  A    between atoms: C_18  and  N_19
REMARK   10  A    between atoms: N_19  and  C_20
REMARK   11  A    between atoms: C_23  and  C_24
REMARK   12  A    between atoms: C_24  and  N_25
REMARK   13  A    between atoms: C_29  and  C_30
REMARK                            x       y       z     vdW  Elec       q    Type
REMARK                         _______ _______ _______ _____ _____    ______ ____
ROOT
ATOM      1  C   UNL     1       1.471   8.850  20.916  0.00  0.00    +0.000 C 
ATOM      2  C   UNL     1       1.410   9.646  22.215  0.00  0.00    +0.000 C 
ATOM      3  N   UNL     1       0.842  10.973  21.937  0.00  0.00    +0.000 NA
ATOM      4  C   UNL     1       0.141  10.910  20.635  0.00  0.00    +0.000 C 
ATOM      5  C   UNL     1       0.467   9.557  19.996  0.00  0.00    +0.000 C 
ATOM      6  H   UNL     1       1.599  11.655  21.859  0.00  0.00    +0.000 HD
ENDROOT
BRANCH   1   7
ATOM      7  S   UNL     1       0.993   7.095  21.145  0.00  0.00    +0.000 S 
BRANCH   7  13
ATOM      8  C   UNL     1       4.079   4.818  17.386  0.00  0.00    +0.000 C 
ATOM      9  C   UNL     1       2.820   4.028  17.843  0.00  0.00    +0.000 C 
ATOM     10  O   UNL     1       1.915   3.378  17.369  0.00  0.00    +0.000 OA
ATOM     11  N   UNL     1       3.044   4.405  19.134  0.00  0.00    +0.000 N 
ATOM     12  C   UNL     1       2.021   4.798  19.968  0.00  0.00    +0.000 C 
ATOM     13  C   UNL     1       1.861   6.131  20.001  0.00  0.00    +0.000 C 
ATOM     14  C   UNL     1       2.884   6.791  19.068  0.00  0.00    +0.000 C 
ATOM     15  C   UNL     1       2.324   7.443  17.811  0.00  0.00    +0.000 C 
ATOM     16  C   UNL     1       3.826   5.611  18.729  0.00  0.00    +0.000 C 
BRANCH   8  18
ATOM     17  C   UNL     1       6.246   4.203  16.210  0.00  0.00    +0.000 C 
ATOM     18  C   UNL     1       5.364   3.986  17.427  0.00  0.00    +0.000 C 
BRANCH  18  19
ATOM     19  O   UNL     1       6.075   4.295  18.623  0.00  0.00    +0.000 OA
ATOM     20  H   UNL     1       6.877   4.796  18.395  0.00  0.00    +0.000 HD
ENDBRANCH  18  19
ENDBRANCH   8  18
BRANCH  12  21
ATOM     21  C   UNL     1       1.449   3.744  20.834  0.00  0.00    +0.000 C 
ATOM     22  O   UNL     1       1.896   3.436  21.925  0.00  0.00    +0.000 OA
BRANCH  21  23
ATOM     23  O   UNL     1       0.397   3.120  20.256  0.00  0.00    +0.000 OA
ATOM     24  H   UNL     1      -0.361   2.956  20.864  0.00  0.00    +0.000 HD
ENDBRANCH  21  23
ENDBRANCH  12  21
ENDBRANCH   7  13
ENDBRANCH   1   7
BRANCH   4  25
ATOM     25  C   UNL     1      -1.393  11.166  20.758  0.00  0.00    +0.000 C 
BRANCH  25  26
ATOM     26  N   UNL     1      -1.644  12.240  21.729  0.00  0.00    +0.000 N 
ATOM     27  H   UNL     1      -0.935  12.199  22.460  0.00  0.00    +0.000 HD
BRANCH  26  28
ATOM     28  C   UNL     1      -2.929  12.396  22.269  0.00  0.00    +0.000 A 
ATOM     29  C   UNL     1      -3.067  12.458  23.668  0.00  0.00    +0.000 A 
ATOM     30  C   UNL     1      -4.306  12.670  24.278  0.00  0.00    +0.000 A 
ATOM     31  C   UNL     1      -5.462  12.879  23.508  0.00  0.00    +0.000 A 
ATOM     32  C   UNL     1      -5.321  12.861  22.122  0.00  0.00    +0.000 A 
ATOM     33  C   UNL     1      -4.073  12.650  21.509  0.00  0.00    +0.000 A 
BRANCH  31  34
ATOM     34  C   UNL     1      -6.796  13.041  24.197  0.00  0.00    +0.000 C 
BRANCH  34  35
ATOM     35  N   UNL     1      -7.856  12.214  23.621  0.00  0.00    +0.000 NA
ATOM     36  H   UNL     1      -7.704  12.150  22.617  0.00  0.00    +0.000 HD
ATOM     37  H   UNL     1      -8.744  12.687  23.746  0.00  0.00    +0.000 HD
ENDBRANCH  34  35
ENDBRANCH  31  34
ENDBRANCH  26  28
ENDBRANCH  25  26
ENDBRANCH   4  25
TORSDOF 11
ENDMDL
MODEL 8
REMARK VINA RESULT:      -6.9      1.805      2.830
REMARK  Name = 
REMARK  13 active torsions:
REMARK  status: ('A' for Active; 'I' for Inactive)
REMARK    1  A    between atoms: C_1  and  C_2
REMARK    2  A    between atoms: C_2  and  O_3
REMARK    3  A    between atoms: C_2  and  C_4
REMARK    4  A    between atoms: C_8  and  C_9
REMARK    5  A    between atoms: C_9  and  O_11
REMARK    6  A    between atoms: C_12  and  S_13
REMARK    7  A    between atoms: S_13  and  C_14
REMARK    8  A    between atoms: C_17  and  C_18
REMARK    9  A    between atoms: C_18  and  N_19
REMARK   10  A    between atoms: N_19  and  C_20
REMARK   11  A    between atoms: C_23  and  C_24
REMARK   12  A    between atoms: C_24  and  N_25
REMARK   13  A    between atoms: C_29  and  C_30
REMARK                            x       y       z     vdW  Elec       q    Type
REMARK                         _______ _______ _______ _____ _____    ______ ____
ROOT
ATOM      1  C   UNL     1       1.490   5.520  19.895  0.00  0.00    +0.000 C 
ATOM      2  C   UNL     1       1.811   4.407  20.887  0.00  0.00    +0.000 C 
ATOM      3  N   UNL     1       1.651   3.109  20.217  0.00  0.00    +0.000 NA
ATOM      4  C   UNL     1       1.674   3.338  18.755  0.00  0.00    +0.000 C 
ATOM      5  C   UNL     1       1.637   4.852  18.521  0.00  0.00    +0.000 C 
ATOM      6  H   UNL     1       0.743   2.711  20.463  0.00  0.00    +0.000 HD
ENDROOT
BRANCH   1   7
ATOM      7  S   UNL     1       2.642   6.940  20.034  0.00  0.00    +0.000 S 
BRANCH   7  13
ATOM      8  C   UNL     1      -0.100  11.274  18.443  0.00  0.00    +0.000 C 
ATOM      9  C   UNL     1       0.543  11.323  19.859  0.00  0.00    +0.000 C 
ATOM     10  O   UNL     1       1.165  12.084  20.565  0.00  0.00    +0.000 OA
ATOM     11  N   UNL     1       0.195  10.021  20.068  0.00  0.00    +0.000 N 
ATOM     12  C   UNL     1       1.048   9.125  20.671  0.00  0.00    +0.000 C 
ATOM     13  C   UNL     1       1.752   8.402  19.785  0.00  0.00    +0.000 C 
ATOM     14  C   UNL     1       1.376   8.831  18.361  0.00  0.00    +0.000 C 
ATOM     15  C   UNL     1       2.451   9.573  17.577  0.00  0.00    +0.000 C 
ATOM     16  C   UNL     1       0.133   9.720  18.607  0.00  0.00    +0.000 C 
BRANCH   8  18
ATOM     17  C   UNL     1      -1.938  12.667  19.511  0.00  0.00    +0.000 C 
ATOM     18  C   UNL     1      -1.584  11.650  18.439  0.00  0.00    +0.000 C 
BRANCH  18  19
ATOM     19  O   UNL     1      -1.931  12.141  17.147  0.00  0.00    +0.000 OA
ATOM     20  H   UNL     1      -2.900  12.178  17.072  0.00  0.00    +0.000 HD
ENDBRANCH  18  19
ENDBRANCH   8  18
BRANCH  12  21
ATOM     21  C   UNL     1       0.880   8.949  22.130  0.00  0.00    +0.000 C 
ATOM     22  O   UNL     1      -0.179   8.685  22.671  0.00  0.00    +0.000 OA
BRANCH  21  23
ATOM     23  O   UNL     1       2.031   9.164  22.809  0.00  0.00    +0.000 OA
ATOM     24  H   UNL     1       2.263  10.115  22.920  0.00  0.00    +0.000 HD
ENDBRANCH  21  23
ENDBRANCH  12  21
ENDBRANCH   7  13
ENDBRANCH   1   7
BRANCH   4  25
ATOM     25  C   UNL     1       2.882   2.648  18.051  0.00  0.00    +0.000 C 
BRANCH  25  26
ATOM     26  N   UNL     1       3.393   3.509  16.976  0.00  0.00    +0.000 N 
ATOM     27  H   UNL     1       3.624   2.930  16.168  0.00  0.00    +0.000 HD
BRANCH  26  28
ATOM     28  C   UNL     1       4.412   4.430  17.254  0.00  0.00    +0.000 A 
ATOM     29  C   UNL     1       5.296   4.156  18.314  0.00  0.00    +0.000 A 
ATOM     30  C   UNL     1       6.371   4.996  18.615  0.00  0.00    +0.000 A 
ATOM     31  C   UNL     1       6.639   6.131  17.832  0.00  0.00    +0.000 A 
ATOM     32  C   UNL     1       5.792   6.383  16.757  0.00  0.00    +0.000 A 
ATOM     33  C   UNL     1       4.710   5.535  16.452  0.00  0.00    +0.000 A 
BRANCH  31  34
ATOM     34  C   UNL     1       7.769   7.055  18.223  0.00  0.00    +0.000 C 
BRANCH  34  35
ATOM     35  N   UNL     1       7.879   8.238  17.371  0.00  0.00    +0.000 NA
ATOM     36  H   UNL     1       6.964   8.429  16.966  0.00  0.00    +0.000 HD
ATOM     37  H   UNL     1       8.496   8.024  16.594  0.00  0.00    +0.000 HD
ENDBRANCH  34  35
ENDBRANCH  31  34
ENDBRANCH  26  28
ENDBRANCH  25  26
ENDBRANCH   4  25
TORSDOF 11
ENDMDL
MODEL 9
REMARK VINA RESULT:      -6.9      1.931      2.848
REMARK  Name = 
REMARK  13 active torsions:
REMARK  status: ('A' for Active; 'I' for Inactive)
REMARK    1  A    between atoms: C_1  and  C_2
REMARK    2  A    between atoms: C_2  and  O_3
REMARK    3  A    between atoms: C_2  and  C_4
REMARK    4  A    between atoms: C_8  and  C_9
REMARK    5  A    between atoms: C_9  and  O_11
REMARK    6  A    between atoms: C_12  and  S_13
REMARK    7  A    between atoms: S_13  and  C_14
REMARK    8  A    between atoms: C_17  and  C_18
REMARK    9  A    between atoms: C_18  and  N_19
REMARK   10  A    between atoms: N_19  and  C_20
REMARK   11  A    between atoms: C_23  and  C_24
REMARK   12  A    between atoms: C_24  and  N_25
REMARK   13  A    between atoms: C_29  and  C_30
REMARK                            x       y       z     vdW  Elec       q    Type
REMARK                         _______ _______ _______ _____ _____    ______ ____
ROOT
ATOM      1  C   UNL     1       1.308   5.451  19.881  0.00  0.00    +0.000 C 
ATOM      2  C   UNL     1       1.676   4.308  20.822  0.00  0.00    +0.000 C 
ATOM      3  N   UNL     1       1.384   3.030  20.158  0.00  0.00    +0.000 NA
ATOM      4  C   UNL     1       1.268   3.282  18.704  0.00  0.00    +0.000 C 
ATOM      5  C   UNL     1       1.280   4.799  18.492  0.00  0.00    +0.000 C 
ATOM      6  H   UNL     1       0.489   2.671  20.493  0.00  0.00    +0.000 HD
ENDROOT
BRANCH   1   7
ATOM      7  S   UNL     1       2.535   6.812  19.916  0.00  0.00    +0.000 S 
BRANCH   7  13
ATOM      8  C   UNL     1      -0.026  11.283  18.404  0.00  0.00    +0.000 C 
ATOM      9  C   UNL     1       0.610  11.277  19.823  0.00  0.00    +0.000 C 
ATOM     10  O   UNL     1       1.258  11.999  20.548  0.00  0.00    +0.000 OA
ATOM     11  N   UNL     1       0.210   9.986  20.004  0.00  0.00    +0.000 N 
ATOM     12  C   UNL     1       1.025   9.045  20.592  0.00  0.00    +0.000 C 
ATOM     13  C   UNL     1       1.705   8.313  19.694  0.00  0.00    +0.000 C 
ATOM     14  C   UNL     1       1.353   8.787  18.278  0.00  0.00    +0.000 C 
ATOM     15  C   UNL     1       2.461   9.501  17.514  0.00  0.00    +0.000 C 
ATOM     16  C   UNL     1       0.144   9.719  18.536  0.00  0.00    +0.000 C 
BRANCH   8  18
ATOM     17  C   UNL     1      -2.442  10.590  18.024  0.00  0.00    +0.000 C 
ATOM     18  C   UNL     1      -1.495  11.717  18.402  0.00  0.00    +0.000 C 
BRANCH  18  19
ATOM     19  O   UNL     1      -1.823  12.239  19.686  0.00  0.00    +0.000 OA
ATOM     20  H   UNL     1      -2.702  12.654  19.644  0.00  0.00    +0.000 HD
ENDBRANCH  18  19
ENDBRANCH   8  18
BRANCH  12  21
ATOM     21  C   UNL     1       0.843   8.845  22.046  0.00  0.00    +0.000 C 
ATOM     22  O   UNL     1      -0.210   8.519  22.566  0.00  0.00    +0.000 OA
BRANCH  21  23
ATOM     23  O   UNL     1       1.968   9.116  22.746  0.00  0.00    +0.000 OA
ATOM     24  H   UNL     1       2.655   9.606  22.237  0.00  0.00    +0.000 HD
ENDBRANCH  21  23
ENDBRANCH  12  21
ENDBRANCH   7  13
ENDBRANCH   1   7
BRANCH   4  25
ATOM     25  C   UNL     1       2.361   2.547  17.870  0.00  0.00    +0.000 C 
BRANCH  25  26
ATOM     26  N   UNL     1       3.045   3.503  16.989  0.00  0.00    +0.000 N 
ATOM     27  H   UNL     1       3.231   3.054  16.092  0.00  0.00    +0.000 HD
BRANCH  26  28
ATOM     28  C   UNL     1       4.171   4.193  17.459  0.00  0.00    +0.000 A 
ATOM     29  C   UNL     1       4.775   3.760  18.653  0.00  0.00    +0.000 A 
ATOM     30  C   UNL     1       5.933   4.361  19.155  0.00  0.00    +0.000 A 
ATOM     31  C   UNL     1       6.569   5.396  18.451  0.00  0.00    +0.000 A 
ATOM     32  C   UNL     1       5.998   5.799  17.247  0.00  0.00    +0.000 A 
ATOM     33  C   UNL     1       4.833   5.192  16.742  0.00  0.00    +0.000 A 
BRANCH  31  34
ATOM     34  C   UNL     1       7.782   6.068  19.051  0.00  0.00    +0.000 C 
BRANCH  34  35
ATOM     35  N   UNL     1       8.167   5.525  20.353  0.00  0.00    +0.000 NA
ATOM     36  H   UNL     1       8.931   6.087  20.723  0.00  0.00    +0.000 HD
ATOM     37  H   UNL     1       8.537   4.590  20.221  0.00  0.00    +0.000 HD
ENDBRANCH  34  35
ENDBRANCH  31  34
ENDBRANCH  26  28
ENDBRANCH  25  26
ENDBRANCH   4  25
TORSDOF 11
ENDMDL
