MODEL 1
REMARK VINA RESULT:      -7.1      0.000      0.000
REMARK  Name = 
REMARK  5 active torsions:
REMARK  status: ('A' for Active; 'I' for Inactive)
REMARK    1  A    between atoms: C_1  and  C_2
REMARK    2  A    between atoms: C_2  and  C_4
REMARK    3  A    between atoms: C_6  and  N_7
REMARK    4  A    between atoms: C_10  and  S_11
REMARK    5  A    between atoms: S_11  and  C_12
REMARK                            x       y       z     vdW  Elec       q    Type
REMARK                         _______ _______ _______ _____ _____    ______ ____
ROOT
ATOM      1  C   UNL     1       6.501   4.939  15.674  0.00  0.00    +0.000 A 
ATOM      2  C   UNL     1       7.525   5.361  16.501  0.00  0.00    +0.000 A 
ATOM      3  C   UNL     1       7.105   5.523  17.862  0.00  0.00    +0.000 A 
ATOM      4  C   UNL     1       5.772   5.203  18.046  0.00  0.00    +0.000 A 
ATOM      5  S   UNL     1       5.050   4.770  16.551  0.00  0.00    +0.000 S 
ENDROOT
BRANCH   1   7
ATOM      6  C   UNL     1       5.609   3.697  13.625  0.00  0.00    +0.000 C 
ATOM      7  C   UNL     1       6.584   4.675  14.243  0.00  0.00    +0.000 C 
ATOM      8  O   UNL     1       7.420   5.232  13.528  0.00  0.00    +0.000 OA
ENDBRANCH   1   7
BRANCH   3   9
ATOM      9  N   UNL     1       7.989   5.973  18.897  0.00  0.00    +0.000 N 
ATOM     10  O   UNL     1       8.322   7.162  18.848  0.00  0.00    +0.000 OA
ATOM     11  O   UNL     1       8.287   5.155  19.775  0.00  0.00    +0.000 OA
ENDBRANCH   3   9
BRANCH   4  12
ATOM     12  S   UNL     1       4.779   5.281  19.506  0.00  0.00    +0.000 S 
BRANCH  12  13
ATOM     13  C   UNL     1       3.419   4.207  19.009  0.00  0.00    +0.000 A 
ATOM     14  C   UNL     1       3.444   2.832  19.324  0.00  0.00    +0.000 A 
ATOM     15 CL   UNL     1       4.725   2.100  20.231  0.00  0.00    +0.000 Cl
ATOM     16  C   UNL     1       2.396   1.982  18.945  0.00  0.00    +0.000 A 
ATOM     17  C   UNL     1       1.293   2.483  18.264  0.00  0.00    +0.000 A 
ATOM     18  C   UNL     1       1.222   3.843  17.986  0.00  0.00    +0.000 A 
ATOM     19  C   UNL     1       2.264   4.702  18.366  0.00  0.00    +0.000 A 
ATOM     20 CL   UNL     1       2.009   6.386  18.045  0.00  0.00    +0.000 Cl
ENDBRANCH  12  13
ENDBRANCH   4  12
TORSDOF 4
ENDMDL
MODEL 2
REMARK VINA RESULT:      -7.1      1.106      1.236
REMARK  Name = 
REMARK  5 active torsions:
REMARK  status: ('A' for Active; 'I' for Inactive)
REMARK    1  A    between atoms: C_1  and  C_2
REMARK    2  A    between atoms: C_2  and  C_4
REMARK    3  A    between atoms: C_6  and  N_7
REMARK    4  A    between atoms: C_10  and  S_11
REMARK    5  A    between atoms: S_11  and  C_12
REMARK                            x       y       z     vdW  Elec       q    Type
REMARK                         _______ _______ _______ _____ _____    ______ ____
ROOT
ATOM      1  C   UNL     1       6.505   4.769  15.094  0.00  0.00    +0.000 A 
ATOM      2  C   UNL     1       7.233   5.826  15.606  0.00  0.00    +0.000 A 
ATOM      3  C   UNL     1       6.998   6.033  17.005  0.00  0.00    +0.000 A 
ATOM      4  C   UNL     1       6.107   5.117  17.533  0.00  0.00    +0.000 A 
ATOM      5  S   UNL     1       5.534   4.064  16.305  0.00  0.00    +0.000 S 
ENDROOT
BRANCH   1   7
ATOM      6  C   UNL     1       7.528   4.851  12.753  0.00  0.00    +0.000 C 
ATOM      7  C   UNL     1       6.509   4.287  13.719  0.00  0.00    +0.000 C 
ATOM      8  O   UNL     1       5.713   3.431  13.329  0.00  0.00    +0.000 OA
ENDBRANCH   1   7
BRANCH   3   9
ATOM      9  N   UNL     1       7.627   7.085  17.749  0.00  0.00    +0.000 N 
ATOM     10  O   UNL     1       7.486   8.228  17.299  0.00  0.00    +0.000 OA
ATOM     11  O   UNL     1       8.196   6.766  18.798  0.00  0.00    +0.000 OA
ENDBRANCH   3   9
BRANCH   4  12
ATOM     12  S   UNL     1       5.462   4.978  19.172  0.00  0.00    +0.000 S 
BRANCH  12  13
ATOM     13  C   UNL     1       3.830   4.306  18.805  0.00  0.00    +0.000 A 
ATOM     14  C   UNL     1       3.502   2.985  19.177  0.00  0.00    +0.000 A 
ATOM     15 CL   UNL     1       4.596   1.953  20.036  0.00  0.00    +0.000 Cl
ATOM     16  C   UNL     1       2.239   2.445  18.898  0.00  0.00    +0.000 A 
ATOM     17  C   UNL     1       1.269   3.212  18.263  0.00  0.00    +0.000 A 
ATOM     18  C   UNL     1       1.551   4.532  17.931  0.00  0.00    +0.000 A 
ATOM     19  C   UNL     1       2.811   5.082  18.211  0.00  0.00    +0.000 A 
ATOM     20 CL   UNL     1       3.001   6.763  17.834  0.00  0.00    +0.000 Cl
ENDBRANCH  12  13
ENDBRANCH   4  12
TORSDOF 4
ENDMDL
MODEL 3
REMARK VINA RESULT:      -7.0      1.005      1.305
REMARK  Name = 
REMARK  5 active torsions:
REMARK  status: ('A' for Active; 'I' for Inactive)
REMARK    1  A    between atoms: C_1  and  C_2
REMARK    2  A    between atoms: C_2  and  C_4
REMARK    3  A    between atoms: C_6  and  N_7
REMARK    4  A    between atoms: C_10  and  S_11
REMARK    5  A    between atoms: S_11  and  C_12
REMARK                            x       y       z     vdW  Elec       q    Type
REMARK                         _______ _______ _______ _____ _____    ______ ____
ROOT
ATOM      1  C   UNL     1       6.588   4.803  14.956  0.00  0.00    +0.000 A 
ATOM      2  C   UNL     1       7.230   5.901  15.498  0.00  0.00    +0.000 A 
ATOM      3  C   UNL     1       7.007   6.030  16.908  0.00  0.00    +0.000 A 
ATOM      4  C   UNL     1       6.212   5.017  17.413  0.00  0.00    +0.000 A 
ATOM      5  S   UNL     1       5.710   3.967  16.153  0.00  0.00    +0.000 S 
ENDROOT
BRANCH   1   7
ATOM      6  C   UNL     1       5.489   3.493  13.054  0.00  0.00    +0.000 C 
ATOM      7  C   UNL     1       6.607   4.378  13.561  0.00  0.00    +0.000 C 
ATOM      8  O   UNL     1       7.502   4.728  12.789  0.00  0.00    +0.000 OA
ENDBRANCH   1   7
BRANCH   3   9
ATOM      9  N   UNL     1       7.555   7.104  17.683  0.00  0.00    +0.000 N 
ATOM     10  O   UNL     1       8.150   6.779  18.717  0.00  0.00    +0.000 OA
ATOM     11  O   UNL     1       7.440   8.244  17.221  0.00  0.00    +0.000 OA
ENDBRANCH   3   9
BRANCH   4  12
ATOM     12  S   UNL     1       5.616   4.757  19.056  0.00  0.00    +0.000 S 
BRANCH  12  13
ATOM     13  C   UNL     1       3.915   4.280  18.695  0.00  0.00    +0.000 A 
ATOM     14  C   UNL     1       3.454   2.986  19.015  0.00  0.00    +0.000 A 
ATOM     15 CL   UNL     1       4.445   1.804  19.804  0.00  0.00    +0.000 Cl
ATOM     16  C   UNL     1       2.136   2.597  18.740  0.00  0.00    +0.000 A 
ATOM     17  C   UNL     1       1.243   3.492  18.161  0.00  0.00    +0.000 A 
ATOM     18  C   UNL     1       1.660   4.789  17.882  0.00  0.00    +0.000 A 
ATOM     19  C   UNL     1       2.976   5.187  18.159  0.00  0.00    +0.000 A 
ATOM     20 CL   UNL     1       3.340   6.854  17.852  0.00  0.00    +0.000 Cl
ENDBRANCH  12  13
ENDBRANCH   4  12
TORSDOF 4
ENDMDL
MODEL 4
REMARK VINA RESULT:      -6.9      0.653      2.192
REMARK  Name = 
REMARK  5 active torsions:
REMARK  status: ('A' for Active; 'I' for Inactive)
REMARK    1  A    between atoms: C_1  and  C_2
REMARK    2  A    between atoms: C_2  and  C_4
REMARK    3  A    between atoms: C_6  and  N_7
REMARK    4  A    between atoms: C_10  and  S_11
REMARK    5  A    between atoms: S_11  and  C_12
REMARK                            x       y       z     vdW  Elec       q    Type
REMARK                         _______ _______ _______ _____ _____    ______ ____
ROOT
ATOM      1  C   UNL     1       6.299   4.737  15.662  0.00  0.00    +0.000 A 
ATOM      2  C   UNL     1       7.352   5.203  16.426  0.00  0.00    +0.000 A 
ATOM      3  C   UNL     1       6.985   5.428  17.794  0.00  0.00    +0.000 A 
ATOM      4  C   UNL     1       5.662   5.113  18.045  0.00  0.00    +0.000 A 
ATOM      5  S   UNL     1       4.884   4.606  16.602  0.00  0.00    +0.000 S 
ENDROOT
BRANCH   1   7
ATOM      6  C   UNL     1       7.484   4.896  13.402  0.00  0.00    +0.000 C 
ATOM      7  C   UNL     1       6.326   4.404  14.243  0.00  0.00    +0.000 C 
ATOM      8  O   UNL     1       5.439   3.729  13.718  0.00  0.00    +0.000 OA
ENDBRANCH   1   7
BRANCH   3   9
ATOM      9  N   UNL     1       7.907   5.930  18.770  0.00  0.00    +0.000 N 
ATOM     10  O   UNL     1       8.213   7.123  18.665  0.00  0.00    +0.000 OA
ATOM     11  O   UNL     1       8.261   5.149  19.660  0.00  0.00    +0.000 OA
ENDBRANCH   3   9
BRANCH   4  12
ATOM     12  S   UNL     1       4.727   5.258  19.538  0.00  0.00    +0.000 S 
BRANCH  12  13
ATOM     13  C   UNL     1       3.336   4.184  19.134  0.00  0.00    +0.000 A 
ATOM     14  C   UNL     1       2.200   4.704  18.479  0.00  0.00    +0.000 A 
ATOM     15 CL   UNL     1       2.079   6.359  17.981  0.00  0.00    +0.000 Cl
ATOM     16  C   UNL     1       1.109   3.885  18.159  0.00  0.00    +0.000 A 
ATOM     17  C   UNL     1       1.132   2.528  18.464  0.00  0.00    +0.000 A 
ATOM     18  C   UNL     1       2.261   1.982  19.064  0.00  0.00    +0.000 A 
ATOM     19  C   UNL     1       3.360   2.795  19.383  0.00  0.00    +0.000 A 
ATOM     20 CL   UNL     1       4.738   1.975  20.041  0.00  0.00    +0.000 Cl
ENDBRANCH  12  13
ENDBRANCH   4  12
TORSDOF 4
ENDMDL
MODEL 5
REMARK VINA RESULT:      -6.9      0.250      2.176
REMARK  Name = 
REMARK  5 active torsions:
REMARK  status: ('A' for Active; 'I' for Inactive)
REMARK    1  A    between atoms: C_1  and  C_2
REMARK    2  A    between atoms: C_2  and  C_4
REMARK    3  A    between atoms: C_6  and  N_7
REMARK    4  A    between atoms: C_10  and  S_11
REMARK    5  A    between atoms: S_11  and  C_12
REMARK                            x       y       z     vdW  Elec       q    Type
REMARK                         _______ _______ _______ _____ _____    ______ ____
ROOT
ATOM      1  C   UNL     1       6.426   5.000  15.839  0.00  0.00    +0.000 A 
ATOM      2  C   UNL     1       7.417   5.385  16.723  0.00  0.00    +0.000 A 
ATOM      3  C   UNL     1       6.922   5.585  18.054  0.00  0.00    +0.000 A 
ATOM      4  C   UNL     1       5.566   5.332  18.158  0.00  0.00    +0.000 A 
ATOM      5  S   UNL     1       4.917   4.914  16.625  0.00  0.00    +0.000 S 
ENDROOT
BRANCH   1   7
ATOM      6  C   UNL     1       5.658   3.706  13.772  0.00  0.00    +0.000 C 
ATOM      7  C   UNL     1       6.584   4.713  14.418  0.00  0.00    +0.000 C 
ATOM      8  O   UNL     1       7.443   5.274  13.735  0.00  0.00    +0.000 OA
ENDBRANCH   1   7
BRANCH   3   9
ATOM      9  N   UNL     1       7.762   6.005  19.136  0.00  0.00    +0.000 N 
ATOM     10  O   UNL     1       7.814   5.246  20.110  0.00  0.00    +0.000 OA
ATOM     11  O   UNL     1       8.404   7.049  18.975  0.00  0.00    +0.000 OA
ENDBRANCH   3   9
BRANCH   4  12
ATOM     12  S   UNL     1       4.490   5.478  19.552  0.00  0.00    +0.000 S 
BRANCH  12  13
ATOM     13  C   UNL     1       3.234   4.267  19.098  0.00  0.00    +0.000 A 
ATOM     14  C   UNL     1       2.083   4.666  18.386  0.00  0.00    +0.000 A 
ATOM     15 CL   UNL     1       1.821   6.297  17.864  0.00  0.00    +0.000 Cl
ATOM     16  C   UNL     1       1.095   3.740  18.026  0.00  0.00    +0.000 A 
ATOM     17  C   UNL     1       1.239   2.395  18.347  0.00  0.00    +0.000 A 
ATOM     18  C   UNL     1       2.387   1.969  19.005  0.00  0.00    +0.000 A 
ATOM     19  C   UNL     1       3.384   2.889  19.364  0.00  0.00    +0.000 A 
ATOM     20 CL   UNL     1       4.804   2.216  20.093  0.00  0.00    +0.000 Cl
ENDBRANCH  12  13
ENDBRANCH   4  12
TORSDOF 4
ENDMDL
MODEL 6
REMARK VINA RESULT:      -6.9      1.158      2.410
REMARK  Name = 
REMARK  5 active torsions:
REMARK  status: ('A' for Active; 'I' for Inactive)
REMARK    1  A    between atoms: C_1  and  C_2
REMARK    2  A    between atoms: C_2  and  C_4
REMARK    3  A    between atoms: C_6  and  N_7
REMARK    4  A    between atoms: C_10  and  S_11
REMARK    5  A    between atoms: S_11  and  C_12
REMARK                            x       y       z     vdW  Elec       q    Type
REMARK                         _______ _______ _______ _____ _____    ______ ____
ROOT
ATOM      1  C   UNL     1       6.609   4.658  14.774  0.00  0.00    +0.000 A 
ATOM      2  C   UNL     1       7.204   5.749  15.381  0.00  0.00    +0.000 A 
ATOM      3  C   UNL     1       6.959   5.796  16.793  0.00  0.00    +0.000 A 
ATOM      4  C   UNL     1       6.195   4.731  17.234  0.00  0.00    +0.000 A 
ATOM      5  S   UNL     1       5.747   3.730  15.913  0.00  0.00    +0.000 S 
ENDROOT
BRANCH   1   7
ATOM      6  C   UNL     1       5.596   3.392  12.797  0.00  0.00    +0.000 C 
ATOM      7  C   UNL     1       6.661   4.308  13.360  0.00  0.00    +0.000 C 
ATOM      8  O   UNL     1       7.541   4.745  12.615  0.00  0.00    +0.000 OA
ENDBRANCH   1   7
BRANCH   3   9
ATOM      9  N   UNL     1       7.458   6.847  17.631  0.00  0.00    +0.000 N 
ATOM     10  O   UNL     1       8.054   6.490  18.653  0.00  0.00    +0.000 OA
ATOM     11  O   UNL     1       7.306   8.005  17.227  0.00  0.00    +0.000 OA
ENDBRANCH   3   9
BRANCH   4  12
ATOM     12  S   UNL     1       5.589   4.363  18.852  0.00  0.00    +0.000 S 
BRANCH  12  13
ATOM     13  C   UNL     1       3.840   4.130  18.481  0.00  0.00    +0.000 A 
ATOM     14  C   UNL     1       3.039   5.228  18.104  0.00  0.00    +0.000 A 
ATOM     15 CL   UNL     1       3.668   6.833  17.927  0.00  0.00    +0.000 Cl
ATOM     16  C   UNL     1       1.677   5.067  17.813  0.00  0.00    +0.000 A 
ATOM     17  C   UNL     1       1.089   3.808  17.870  0.00  0.00    +0.000 A 
ATOM     18  C   UNL     1       1.869   2.703  18.190  0.00  0.00    +0.000 A 
ATOM     19  C   UNL     1       3.234   2.856  18.477  0.00  0.00    +0.000 A 
ATOM     20 CL   UNL     1       4.112   1.390  18.768  0.00  0.00    +0.000 Cl
ENDBRANCH  12  13
ENDBRANCH   4  12
TORSDOF 4
ENDMDL
MODEL 7
REMARK VINA RESULT:      -6.8      4.072      6.007
REMARK  Name = 
REMARK  5 active torsions:
REMARK  status: ('A' for Active; 'I' for Inactive)
REMARK    1  A    between atoms: C_1  and  C_2
REMARK    2  A    between atoms: C_2  and  C_4
REMARK    3  A    between atoms: C_6  and  N_7
REMARK    4  A    between atoms: C_10  and  S_11
REMARK    5  A    between atoms: S_11  and  C_12
REMARK                            x       y       z     vdW  Elec       q    Type
REMARK                         _______ _______ _______ _____ _____    ______ ____
ROOT
ATOM      1  C   UNL     1       2.218   6.994  19.732  0.00  0.00    +0.000 A 
ATOM      2  C   UNL     1       1.577   5.997  20.442  0.00  0.00    +0.000 A 
ATOM      3  C   UNL     1       2.316   4.769  20.461  0.00  0.00    +0.000 A 
ATOM      4  C   UNL     1       3.515   4.862  19.777  0.00  0.00    +0.000 A 
ATOM      5  S   UNL     1       3.685   6.421  19.081  0.00  0.00    +0.000 S 
ENDROOT
BRANCH   1   7
ATOM      6  C   UNL     1       1.893   8.970  18.142  0.00  0.00    +0.000 C 
ATOM      7  C   UNL     1       1.749   8.357  19.518  0.00  0.00    +0.000 C 
ATOM      8  O   UNL     1       1.233   9.015  20.424  0.00  0.00    +0.000 OA
ENDBRANCH   1   7
BRANCH   3   9
ATOM      9  N   UNL     1       1.839   3.588  21.120  0.00  0.00    +0.000 N 
ATOM     10  O   UNL     1       1.043   2.893  20.479  0.00  0.00    +0.000 OA
ATOM     11  O   UNL     1       2.312   3.339  22.234  0.00  0.00    +0.000 OA
ENDBRANCH   3   9
BRANCH   4  12
ATOM     12  S   UNL     1       4.745   3.631  19.474  0.00  0.00    +0.000 S 
BRANCH  12  13
ATOM     13  C   UNL     1       5.344   4.184  17.866  0.00  0.00    +0.000 A 
ATOM     14  C   UNL     1       4.572   3.970  16.705  0.00  0.00    +0.000 A 
ATOM     15 CL   UNL     1       3.009   3.225  16.741  0.00  0.00    +0.000 Cl
ATOM     16  C   UNL     1       5.022   4.392  15.447  0.00  0.00    +0.000 A 
ATOM     17  C   UNL     1       6.239   5.053  15.318  0.00  0.00    +0.000 A 
ATOM     18  C   UNL     1       6.995   5.320  16.454  0.00  0.00    +0.000 A 
ATOM     19  C   UNL     1       6.549   4.906  17.718  0.00  0.00    +0.000 A 
ATOM     20 CL   UNL     1       7.536   5.383  19.060  0.00  0.00    +0.000 Cl
ENDBRANCH  12  13
ENDBRANCH   4  12
TORSDOF 4
ENDMDL
MODEL 8
REMARK VINA RESULT:      -6.8      3.903      6.080
REMARK  Name = 
REMARK  5 active torsions:
REMARK  status: ('A' for Active; 'I' for Inactive)
REMARK    1  A    between atoms: C_1  and  C_2
REMARK    2  A    between atoms: C_2  and  C_4
REMARK    3  A    between atoms: C_6  and  N_7
REMARK    4  A    between atoms: C_10  and  S_11
REMARK    5  A    between atoms: S_11  and  C_12
REMARK                            x       y       z     vdW  Elec       q    Type
REMARK                         _______ _______ _______ _____ _____    ______ ____
ROOT
ATOM      1  C   UNL     1       2.189   6.852  19.918  0.00  0.00    +0.000 A 
ATOM      2  C   UNL     1       1.590   5.814  20.607  0.00  0.00    +0.000 A 
ATOM      3  C   UNL     1       2.355   4.602  20.555  0.00  0.00    +0.000 A 
ATOM      4  C   UNL     1       3.529   4.748  19.840  0.00  0.00    +0.000 A 
ATOM      5  S   UNL     1       3.647   6.337  19.202  0.00  0.00    +0.000 S 
ENDROOT
BRANCH   1   7
ATOM      6  C   UNL     1       0.985   8.859  20.947  0.00  0.00    +0.000 C 
ATOM      7  C   UNL     1       1.685   8.212  19.773  0.00  0.00    +0.000 C 
ATOM      8  O   UNL     1       1.824   8.846  18.724  0.00  0.00    +0.000 OA
ENDBRANCH   1   7
BRANCH   3   9
ATOM      9  N   UNL     1       1.923   3.387  21.180  0.00  0.00    +0.000 N 
ATOM     10  O   UNL     1       2.409   3.144  22.290  0.00  0.00    +0.000 OA
ATOM     11  O   UNL     1       1.061   2.727  20.587  0.00  0.00    +0.000 OA
ENDBRANCH   3   9
BRANCH   4  12
ATOM     12  S   UNL     1       4.775   3.557  19.452  0.00  0.00    +0.000 S 
BRANCH  12  13
ATOM     13  C   UNL     1       5.320   4.191  17.854  0.00  0.00    +0.000 A 
ATOM     14  C   UNL     1       4.528   3.998  16.703  0.00  0.00    +0.000 A 
ATOM     15 CL   UNL     1       2.989   3.203  16.744  0.00  0.00    +0.000 Cl
ATOM     16  C   UNL     1       4.935   4.483  15.452  0.00  0.00    +0.000 A 
ATOM     17  C   UNL     1       6.128   5.186  15.324  0.00  0.00    +0.000 A 
ATOM     18  C   UNL     1       6.902   5.432  16.452  0.00  0.00    +0.000 A 
ATOM     19  C   UNL     1       6.498   4.955  17.708  0.00  0.00    +0.000 A 
ATOM     20 CL   UNL     1       7.501   5.410  19.046  0.00  0.00    +0.000 Cl
ENDBRANCH  12  13
ENDBRANCH   4  12
TORSDOF 4
ENDMDL
MODEL 9
REMARK VINA RESULT:      -6.7      4.045      5.896
REMARK  Name = 
REMARK  5 active torsions:
REMARK  status: ('A' for Active; 'I' for Inactive)
REMARK    1  A    between atoms: C_1  and  C_2
REMARK    2  A    between atoms: C_2  and  C_4
REMARK    3  A    between atoms: C_6  and  N_7
REMARK    4  A    between atoms: C_10  and  S_11
REMARK    5  A    between atoms: S_11  and  C_12
REMARK                            x       y       z     vdW  Elec       q    Type
REMARK                         _______ _______ _______ _____ _____    ______ ____
ROOT
ATOM      1  C   UNL     1       2.218   6.978  19.759  0.00  0.00    +0.000 A 
ATOM      2  C   UNL     1       1.632   5.950  20.473  0.00  0.00    +0.000 A 
ATOM      3  C   UNL     1       2.422   4.753  20.466  0.00  0.00    +0.000 A 
ATOM      4  C   UNL     1       3.602   4.902  19.760  0.00  0.00    +0.000 A 
ATOM      5  S   UNL     1       3.694   6.473  19.075  0.00  0.00    +0.000 S 
ENDROOT
BRANCH   1   7
ATOM      6  C   UNL     1       1.775   8.951  18.193  0.00  0.00    +0.000 C 
ATOM      7  C   UNL     1       1.688   8.323  19.567  0.00  0.00    +0.000 C 
ATOM      8  O   UNL     1       1.166   8.952  20.490  0.00  0.00    +0.000 OA
ENDBRANCH   1   7
BRANCH   3   9
ATOM      9  N   UNL     1       2.008   3.548  21.123  0.00  0.00    +0.000 N 
ATOM     10  O   UNL     1       1.266   2.803  20.473  0.00  0.00    +0.000 OA
ATOM     11  O   UNL     1       2.476   3.333  22.246  0.00  0.00    +0.000 OA
ENDBRANCH   3   9
BRANCH   4  12
ATOM     12  S   UNL     1       4.877   3.726  19.421  0.00  0.00    +0.000 S 
BRANCH  12  13
ATOM     13  C   UNL     1       5.331   4.236  17.753  0.00  0.00    +0.000 A 
ATOM     14  C   UNL     1       6.584   4.835  17.506  0.00  0.00    +0.000 A 
ATOM     15 CL   UNL     1       7.771   5.073  18.746  0.00  0.00    +0.000 Cl
ATOM     16  C   UNL     1       6.954   5.239  16.217  0.00  0.00    +0.000 A 
ATOM     17  C   UNL     1       6.095   5.039  15.142  0.00  0.00    +0.000 A 
ATOM     18  C   UNL     1       4.875   4.406  15.351  0.00  0.00    +0.000 A 
ATOM     19  C   UNL     1       4.500   3.994  16.638  0.00  0.00    +0.000 A 
ATOM     20 CL   UNL     1       2.999   3.134  16.747  0.00  0.00    +0.000 Cl
ENDBRANCH  12  13
ENDBRANCH   4  12
TORSDOF 4
ENDMDL
