MODEL 1
REMARK VINA RESULT:      -7.6      0.000      0.000
REMARK  Name = 
REMARK  9 active torsions:
REMARK  status: ('A' for Active; 'I' for Inactive)
REMARK    1  A    between atoms: C_1  and  C_2
REMARK    2  A    between atoms: C_2  and  C_3
REMARK    3  A    between atoms: C_2  and  C_4
REMARK    4  A    between atoms: C_2  and  O_5
REMARK    5  A    between atoms: O_5  and  C_6
REMARK    6  A    between atoms: N_8  and  C_9
REMARK    7  A    between atoms: C_9  and  C_10
REMARK    8  A    between atoms: C_10  and  C_11
REMARK    9  A    between atoms: C_25  and  C_26
REMARK                            x       y       z     vdW  Elec       q    Type
REMARK                         _______ _______ _______ _____ _____    ______ ____
ROOT
ATOM      1  C   UNL     1       7.809   8.011  17.588  0.00  0.00    +0.000 C 
ATOM      2  O   UNL     1       8.672   7.988  16.715  0.00  0.00    +0.000 OA
ATOM      3  N   UNL     1       6.772   7.100  17.704  0.00  0.00    +0.000 N 
ATOM      4  C   UNL     1       6.488   6.173  16.723  0.00  0.00    +0.000 A 
ATOM      5  N   UNL     1       7.142   6.050  15.611  0.00  0.00    +0.000 NA
ATOM      6  C   UNL     1       6.736   5.087  14.668  0.00  0.00    +0.000 A 
ATOM      7  C   UNL     1       7.428   5.029  13.460  0.00  0.00    +0.000 A 
ATOM      8  C   UNL     1       7.025   4.139  12.467  0.00  0.00    +0.000 A 
ATOM      9  C   UNL     1       5.930   3.300  12.691  0.00  0.00    +0.000 A 
ATOM     10 CL   UNL     1       5.422   2.231  11.442  0.00  0.00    +0.000 Cl
ATOM     11  C   UNL     1       5.238   3.329  13.904  0.00  0.00    +0.000 A 
ATOM     12  C   UNL     1       5.640   4.226  14.893  0.00  0.00    +0.000 A 
ATOM     13  C   UNL     1       4.963   4.371  16.171  0.00  0.00    +0.000 A 
ATOM     14  N   UNL     1       3.955   3.730  16.716  0.00  0.00    +0.000 NA
ATOM     15  C   UNL     1       3.769   4.402  17.913  0.00  0.00    +0.000 A 
ATOM     16  N   UNL     1       4.636   5.410  18.140  0.00  0.00    +0.000 NA
ATOM     17  N   UNL     1       5.394   5.353  17.024  0.00  0.00    +0.000 N 
ATOM     18  H   UNL     1       6.137   7.148  18.497  0.00  0.00    +0.000 HD
ENDROOT
BRANCH  15  19
ATOM     19  C   UNL     1       2.659   4.040  18.852  0.00  0.00    +0.000 A 
ATOM     20  C   UNL     1       2.550   4.455  20.170  0.00  0.00    +0.000 A 
ATOM     21  C   UNL     1       1.381   3.850  20.695  0.00  0.00    +0.000 A 
ATOM     22  C   UNL     1       0.844   3.109  19.670  0.00  0.00    +0.000 A 
ATOM     23  O   UNL     1       1.599   3.229  18.548  0.00  0.00    +0.000 OA
ENDBRANCH  15  19
BRANCH   1  24
ATOM     24  C   UNL     1       7.881   9.043  18.687  0.00  0.00    +0.000 C 
BRANCH  24  25
ATOM     25  C   UNL     1       9.217   9.791  18.577  0.00  0.00    +0.000 C 
BRANCH  25  28
ATOM     26  C   UNL     1      10.133  11.985  18.011  0.00  0.00    +0.000 C 
ATOM     27  O   UNL     1      11.226  11.716  18.480  0.00  0.00    +0.000 OA
ATOM     28  N   UNL     1       9.106  11.091  17.949  0.00  0.00    +0.000 N 
ATOM     29  H   UNL     1       8.203  11.461  17.685  0.00  0.00    +0.000 HD
BRANCH  26  30
ATOM     30  O   UNL     1       9.768  13.171  17.467  0.00  0.00    +0.000 OA
BRANCH  30  32
ATOM     31  C   UNL     1      10.332  15.469  18.110  0.00  0.00    +0.000 C 
ATOM     32  C   UNL     1       9.424  14.259  18.367  0.00  0.00    +0.000 C 
ATOM     33  C   UNL     1       9.448  13.810  19.836  0.00  0.00    +0.000 C 
ATOM     34  C   UNL     1       7.982  14.668  18.022  0.00  0.00    +0.000 C 
ENDBRANCH  30  32
ENDBRANCH  26  30
ENDBRANCH  25  28
ENDBRANCH  24  25
ENDBRANCH   1  24
TORSDOF 6
ENDMDL
MODEL 2
REMARK VINA RESULT:      -7.6      0.978      1.161
REMARK  Name = 
REMARK  9 active torsions:
REMARK  status: ('A' for Active; 'I' for Inactive)
REMARK    1  A    between atoms: C_1  and  C_2
REMARK    2  A    between atoms: C_2  and  C_3
REMARK    3  A    between atoms: C_2  and  C_4
REMARK    4  A    between atoms: C_2  and  O_5
REMARK    5  A    between atoms: O_5  and  C_6
REMARK    6  A    between atoms: N_8  and  C_9
REMARK    7  A    between atoms: C_9  and  C_10
REMARK    8  A    between atoms: C_10  and  C_11
REMARK    9  A    between atoms: C_25  and  C_26
REMARK                            x       y       z     vdW  Elec       q    Type
REMARK                         _______ _______ _______ _____ _____    ______ ____
ROOT
ATOM      1  C   UNL     1       7.769   8.056  17.577  0.00  0.00    +0.000 C 
ATOM      2  O   UNL     1       8.609   8.091  16.681  0.00  0.00    +0.000 OA
ATOM      3  N   UNL     1       6.792   7.083  17.712  0.00  0.00    +0.000 N 
ATOM      4  C   UNL     1       6.538   6.148  16.732  0.00  0.00    +0.000 A 
ATOM      5  N   UNL     1       7.170   6.071  15.603  0.00  0.00    +0.000 NA
ATOM      6  C   UNL     1       6.798   5.091  14.662  0.00  0.00    +0.000 A 
ATOM      7  C   UNL     1       7.460   5.083  13.437  0.00  0.00    +0.000 A 
ATOM      8  C   UNL     1       7.086   4.176  12.448  0.00  0.00    +0.000 A 
ATOM      9  C   UNL     1       6.050   3.271  12.693  0.00  0.00    +0.000 A 
ATOM     10 CL   UNL     1       5.574   2.181  11.449  0.00  0.00    +0.000 Cl
ATOM     11  C   UNL     1       5.389   3.251  13.923  0.00  0.00    +0.000 A 
ATOM     12  C   UNL     1       5.762   4.164  14.909  0.00  0.00    +0.000 A 
ATOM     13  C   UNL     1       5.112   4.260  16.204  0.00  0.00    +0.000 A 
ATOM     14  N   UNL     1       4.158   3.556  16.770  0.00  0.00    +0.000 NA
ATOM     15  C   UNL     1       3.963   4.207  17.977  0.00  0.00    +0.000 A 
ATOM     16  N   UNL     1       4.774   5.265  18.190  0.00  0.00    +0.000 NA
ATOM     17  N   UNL     1       5.505   5.261  17.054  0.00  0.00    +0.000 N 
ATOM     18  H   UNL     1       6.176   7.088  18.521  0.00  0.00    +0.000 HD
ENDROOT
BRANCH  15  19
ATOM     19  C   UNL     1       2.902   3.774  18.942  0.00  0.00    +0.000 A 
ATOM     20  C   UNL     1       1.576   4.175  18.917  0.00  0.00    +0.000 A 
ATOM     21  C   UNL     1       0.941   3.564  20.026  0.00  0.00    +0.000 A 
ATOM     22  C   UNL     1       1.912   2.824  20.658  0.00  0.00    +0.000 A 
ATOM     23  O   UNL     1       3.096   2.931  20.003  0.00  0.00    +0.000 OA
ENDBRANCH  15  19
BRANCH   1  24
ATOM     24  C   UNL     1       7.807   9.084  18.681  0.00  0.00    +0.000 C 
BRANCH  24  25
ATOM     25  C   UNL     1       9.257   9.551  18.872  0.00  0.00    +0.000 C 
BRANCH  25  28
ATOM     26  C   UNL     1       9.535  11.979  18.902  0.00  0.00    +0.000 C 
ATOM     27  O   UNL     1       9.385  12.041  20.112  0.00  0.00    +0.000 OA
ATOM     28  N   UNL     1       9.557  10.805  18.212  0.00  0.00    +0.000 N 
ATOM     29  H   UNL     1       9.532  10.875  17.203  0.00  0.00    +0.000 HD
BRANCH  26  30
ATOM     30  O   UNL     1       9.723  13.029  18.067  0.00  0.00    +0.000 OA
BRANCH  30  32
ATOM     31  C   UNL     1      11.351  14.353  16.797  0.00  0.00    +0.000 C 
ATOM     32  C   UNL     1      10.973  13.763  18.164  0.00  0.00    +0.000 C 
ATOM     33  C   UNL     1      12.095  12.899  18.759  0.00  0.00    +0.000 C 
ATOM     34  C   UNL     1      10.715  14.933  19.129  0.00  0.00    +0.000 C 
ENDBRANCH  30  32
ENDBRANCH  26  30
ENDBRANCH  25  28
ENDBRANCH  24  25
ENDBRANCH   1  24
TORSDOF 6
ENDMDL
MODEL 3
REMARK VINA RESULT:      -7.6      5.234     10.701
REMARK  Name = 
REMARK  9 active torsions:
REMARK  status: ('A' for Active; 'I' for Inactive)
REMARK    1  A    between atoms: C_1  and  C_2
REMARK    2  A    between atoms: C_2  and  C_3
REMARK    3  A    between atoms: C_2  and  C_4
REMARK    4  A    between atoms: C_2  and  O_5
REMARK    5  A    between atoms: O_5  and  C_6
REMARK    6  A    between atoms: N_8  and  C_9
REMARK    7  A    between atoms: C_9  and  C_10
REMARK    8  A    between atoms: C_10  and  C_11
REMARK    9  A    between atoms: C_25  and  C_26
REMARK                            x       y       z     vdW  Elec       q    Type
REMARK                         _______ _______ _______ _____ _____    ______ ____
ROOT
ATOM      1  C   UNL     1       9.291  10.276  18.950  0.00  0.00    +0.000 C 
ATOM      2  O   UNL     1       9.821  10.905  18.038  0.00  0.00    +0.000 OA
ATOM      3  N   UNL     1       8.954  10.803  20.186  0.00  0.00    +0.000 N 
ATOM      4  C   UNL     1       9.361  12.056  20.593  0.00  0.00    +0.000 A 
ATOM      5  N   UNL     1      10.083  12.864  19.883  0.00  0.00    +0.000 NA
ATOM      6  C   UNL     1      10.466  14.109  20.420  0.00  0.00    +0.000 A 
ATOM      7  C   UNL     1      11.294  14.921  19.648  0.00  0.00    +0.000 A 
ATOM      8  C   UNL     1      11.755  16.133  20.159  0.00  0.00    +0.000 A 
ATOM      9  C   UNL     1      11.376  16.532  21.444  0.00  0.00    +0.000 A 
ATOM     10 CL   UNL     1      11.983  18.014  22.075  0.00  0.00    +0.000 Cl
ATOM     11  C   UNL     1      10.531  15.740  22.223  0.00  0.00    +0.000 A 
ATOM     12  C   UNL     1      10.076  14.525  21.711  0.00  0.00    +0.000 A 
ATOM     13  C   UNL     1       9.232  13.605  22.453  0.00  0.00    +0.000 A 
ATOM     14  N   UNL     1       8.668  13.679  23.637  0.00  0.00    +0.000 NA
ATOM     15  C   UNL     1       8.053  12.446  23.768  0.00  0.00    +0.000 A 
ATOM     16  N   UNL     1       8.191  11.625  22.706  0.00  0.00    +0.000 NA
ATOM     17  N   UNL     1       8.928  12.398  21.879  0.00  0.00    +0.000 N 
ATOM     18  H   UNL     1       8.454  10.233  20.864  0.00  0.00    +0.000 HD
ENDROOT
BRANCH  15  19
ATOM     19  C   UNL     1       7.326  12.059  25.020  0.00  0.00    +0.000 A 
ATOM     20  C   UNL     1       7.601  12.533  26.292  0.00  0.00    +0.000 A 
ATOM     21  C   UNL     1       6.708  11.879  27.177  0.00  0.00    +0.000 A 
ATOM     22  C   UNL     1       5.939  11.052  26.395  0.00  0.00    +0.000 A 
ATOM     23  O   UNL     1       6.292  11.164  25.089  0.00  0.00    +0.000 OA
ENDBRANCH  15  19
BRANCH   1  24
ATOM     24  C   UNL     1       8.885   8.838  18.734  0.00  0.00    +0.000 C 
BRANCH  24  25
ATOM     25  C   UNL     1       7.734   8.796  17.719  0.00  0.00    +0.000 C 
BRANCH  25  28
ATOM     26  C   UNL     1       7.286   6.413  17.410  0.00  0.00    +0.000 C 
ATOM     27  O   UNL     1       6.778   6.305  18.514  0.00  0.00    +0.000 OA
ATOM     28  N   UNL     1       7.722   7.600  16.902  0.00  0.00    +0.000 N 
ATOM     29  H   UNL     1       8.263   7.553  16.049  0.00  0.00    +0.000 HD
BRANCH  26  30
ATOM     30  O   UNL     1       7.476   5.413  16.517  0.00  0.00    +0.000 OA
BRANCH  30  32
ATOM     31  C   UNL     1       6.920   4.892  14.186  0.00  0.00    +0.000 C 
ATOM     32  C   UNL     1       6.386   5.088  15.612  0.00  0.00    +0.000 C 
ATOM     33  C   UNL     1       5.263   6.133  15.678  0.00  0.00    +0.000 C 
ATOM     34  C   UNL     1       5.811   3.745  16.090  0.00  0.00    +0.000 C 
ENDBRANCH  30  32
ENDBRANCH  26  30
ENDBRANCH  25  28
ENDBRANCH  24  25
ENDBRANCH   1  24
TORSDOF 6
ENDMDL
MODEL 4
REMARK VINA RESULT:      -7.5      1.024      1.338
REMARK  Name = 
REMARK  9 active torsions:
REMARK  status: ('A' for Active; 'I' for Inactive)
REMARK    1  A    between atoms: C_1  and  C_2
REMARK    2  A    between atoms: C_2  and  C_3
REMARK    3  A    between atoms: C_2  and  C_4
REMARK    4  A    between atoms: C_2  and  O_5
REMARK    5  A    between atoms: O_5  and  C_6
REMARK    6  A    between atoms: N_8  and  C_9
REMARK    7  A    between atoms: C_9  and  C_10
REMARK    8  A    between atoms: C_10  and  C_11
REMARK    9  A    between atoms: C_25  and  C_26
REMARK                            x       y       z     vdW  Elec       q    Type
REMARK                         _______ _______ _______ _____ _____    ______ ____
ROOT
ATOM      1  C   UNL     1       8.052   7.786  17.589  0.00  0.00    +0.000 C 
ATOM      2  O   UNL     1       8.852   7.805  16.657  0.00  0.00    +0.000 OA
ATOM      3  N   UNL     1       7.015   6.879  17.729  0.00  0.00    +0.000 N 
ATOM      4  C   UNL     1       6.652   6.009  16.722  0.00  0.00    +0.000 A 
ATOM      5  N   UNL     1       7.225   5.942  15.562  0.00  0.00    +0.000 NA
ATOM      6  C   UNL     1       6.742   5.034  14.599  0.00  0.00    +0.000 A 
ATOM      7  C   UNL     1       7.347   5.037  13.344  0.00  0.00    +0.000 A 
ATOM      8  C   UNL     1       6.865   4.205  12.336  0.00  0.00    +0.000 A 
ATOM      9  C   UNL     1       5.779   3.363  12.592  0.00  0.00    +0.000 A 
ATOM     10 CL   UNL     1       5.172   2.368  11.326  0.00  0.00    +0.000 Cl
ATOM     11  C   UNL     1       5.174   3.332  13.850  0.00  0.00    +0.000 A 
ATOM     12  C   UNL     1       5.655   4.171  14.855  0.00  0.00    +0.000 A 
ATOM     13  C   UNL     1       5.072   4.251  16.184  0.00  0.00    +0.000 A 
ATOM     14  N   UNL     1       4.097   3.590  16.764  0.00  0.00    +0.000 NA
ATOM     15  C   UNL     1       4.004   4.196  18.005  0.00  0.00    +0.000 A 
ATOM     16  N   UNL     1       4.896   5.184  18.224  0.00  0.00    +0.000 NA
ATOM     17  N   UNL     1       5.573   5.182  17.055  0.00  0.00    +0.000 N 
ATOM     18  H   UNL     1       6.439   6.888  18.567  0.00  0.00    +0.000 HD
ENDROOT
BRANCH  15  19
ATOM     19  C   UNL     1       2.959   3.793  19.000  0.00  0.00    +0.000 A 
ATOM     20  C   UNL     1       2.797   2.523  19.531  0.00  0.00    +0.000 A 
ATOM     21  C   UNL     1       1.672   2.578  20.391  0.00  0.00    +0.000 A 
ATOM     22  C   UNL     1       1.219   3.874  20.340  0.00  0.00    +0.000 A 
ATOM     23  O   UNL     1       1.997   4.620  19.516  0.00  0.00    +0.000 OA
ENDBRANCH  15  19
BRANCH   1  24
ATOM     24  C   UNL     1       8.213   8.757  18.734  0.00  0.00    +0.000 C 
BRANCH  24  25
ATOM     25  C   UNL     1       8.121  10.188  18.186  0.00  0.00    +0.000 C 
BRANCH  25  28
ATOM     26  C   UNL     1      10.016  11.603  18.807  0.00  0.00    +0.000 C 
ATOM     27  O   UNL     1       9.586  11.785  19.934  0.00  0.00    +0.000 OA
ATOM     28  N   UNL     1       9.410  10.786  17.901  0.00  0.00    +0.000 N 
ATOM     29  H   UNL     1       9.761  10.826  16.953  0.00  0.00    +0.000 HD
BRANCH  26  30
ATOM     30  O   UNL     1      11.144  12.142  18.286  0.00  0.00    +0.000 OA
BRANCH  30  32
ATOM     31  C   UNL     1      11.840  14.033  19.683  0.00  0.00    +0.000 C 
ATOM     32  C   UNL     1      11.289  13.588  18.321  0.00  0.00    +0.000 C 
ATOM     33  C   UNL     1       9.978  14.300  17.958  0.00  0.00    +0.000 C 
ATOM     34  C   UNL     1      12.333  13.945  17.250  0.00  0.00    +0.000 C 
ENDBRANCH  30  32
ENDBRANCH  26  30
ENDBRANCH  25  28
ENDBRANCH  24  25
ENDBRANCH   1  24
TORSDOF 6
ENDMDL
MODEL 5
REMARK VINA RESULT:      -7.4      8.533     11.582
REMARK  Name = 
REMARK  9 active torsions:
REMARK  status: ('A' for Active; 'I' for Inactive)
REMARK    1  A    between atoms: C_1  and  C_2
REMARK    2  A    between atoms: C_2  and  C_3
REMARK    3  A    between atoms: C_2  and  C_4
REMARK    4  A    between atoms: C_2  and  O_5
REMARK    5  A    between atoms: O_5  and  C_6
REMARK    6  A    between atoms: N_8  and  C_9
REMARK    7  A    between atoms: C_9  and  C_10
REMARK    8  A    between atoms: C_10  and  C_11
REMARK    9  A    between atoms: C_25  and  C_26
REMARK                            x       y       z     vdW  Elec       q    Type
REMARK                         _______ _______ _______ _____ _____    ______ ____
ROOT
ATOM      1  C   UNL     1       0.892   9.681  18.354  0.00  0.00    +0.000 C 
ATOM      2  O   UNL     1       1.040  10.245  19.435  0.00  0.00    +0.000 OA
ATOM      3  N   UNL     1      -0.199   9.844  17.516  0.00  0.00    +0.000 N 
ATOM      4  C   UNL     1      -1.337  10.519  17.905  0.00  0.00    +0.000 A 
ATOM      5  N   UNL     1      -1.510  11.065  19.067  0.00  0.00    +0.000 NA
ATOM      6  C   UNL     1      -2.733  11.700  19.361  0.00  0.00    +0.000 A 
ATOM      7  C   UNL     1      -2.902  12.220  20.642  0.00  0.00    +0.000 A 
ATOM      8  C   UNL     1      -4.116  12.799  21.005  0.00  0.00    +0.000 A 
ATOM      9  C   UNL     1      -5.158  12.863  20.077  0.00  0.00    +0.000 A 
ATOM     10 CL   UNL     1      -6.664  13.549  20.552  0.00  0.00    +0.000 Cl
ATOM     11  C   UNL     1      -5.000  12.365  18.782  0.00  0.00    +0.000 A 
ATOM     12  C   UNL     1      -3.786  11.780  18.424  0.00  0.00    +0.000 A 
ATOM     13  C   UNL     1      -3.530  11.192  17.121  0.00  0.00    +0.000 A 
ATOM     14  N   UNL     1      -4.251  11.117  16.026  0.00  0.00    +0.000 NA
ATOM     15  C   UNL     1      -3.451  10.374  15.174  0.00  0.00    +0.000 A 
ATOM     16  N   UNL     1      -2.257  10.011  15.688  0.00  0.00    +0.000 NA
ATOM     17  N   UNL     1      -2.329  10.562  16.919  0.00  0.00    +0.000 N 
ATOM     18  H   UNL     1      -0.213   9.393  16.605  0.00  0.00    +0.000 HD
ENDROOT
BRANCH  15  19
ATOM     19  C   UNL     1      -3.912   9.985  13.803  0.00  0.00    +0.000 A 
ATOM     20  C   UNL     1      -3.100   9.835  12.691  0.00  0.00    +0.000 A 
ATOM     21  C   UNL     1      -3.947   9.503  11.605  0.00  0.00    +0.000 A 
ATOM     22  C   UNL     1      -5.222   9.465  12.117  0.00  0.00    +0.000 A 
ATOM     23  O   UNL     1      -5.211   9.739  13.446  0.00  0.00    +0.000 OA
ENDBRANCH  15  19
BRANCH   1  24
ATOM     24  C   UNL     1       1.986   8.791  17.816  0.00  0.00    +0.000 C 
BRANCH  24  25
ATOM     25  C   UNL     1       2.356   7.758  18.890  0.00  0.00    +0.000 C 
BRANCH  25  28
ATOM     26  C   UNL     1       3.178   5.621  18.033  0.00  0.00    +0.000 C 
ATOM     27  O   UNL     1       4.342   5.988  18.068  0.00  0.00    +0.000 OA
ATOM     28  N   UNL     1       2.142   6.387  18.476  0.00  0.00    +0.000 N 
ATOM     29  H   UNL     1       1.212   6.052  18.260  0.00  0.00    +0.000 HD
BRANCH  26  30
ATOM     30  O   UNL     1       2.732   4.423  17.587  0.00  0.00    +0.000 OA
BRANCH  30  32
ATOM     31  C   UNL     1       1.237   3.244  19.133  0.00  0.00    +0.000 C 
ATOM     32  C   UNL     1       2.650   3.327  18.537  0.00  0.00    +0.000 C 
ATOM     33  C   UNL     1       3.736   3.430  19.618  0.00  0.00    +0.000 C 
ATOM     34  C   UNL     1       2.902   2.038  17.737  0.00  0.00    +0.000 C 
ENDBRANCH  30  32
ENDBRANCH  26  30
ENDBRANCH  25  28
ENDBRANCH  24  25
ENDBRANCH   1  24
TORSDOF 6
ENDMDL
MODEL 6
REMARK VINA RESULT:      -7.4      0.822      1.168
REMARK  Name = 
REMARK  9 active torsions:
REMARK  status: ('A' for Active; 'I' for Inactive)
REMARK    1  A    between atoms: C_1  and  C_2
REMARK    2  A    between atoms: C_2  and  C_3
REMARK    3  A    between atoms: C_2  and  C_4
REMARK    4  A    between atoms: C_2  and  O_5
REMARK    5  A    between atoms: O_5  and  C_6
REMARK    6  A    between atoms: N_8  and  C_9
REMARK    7  A    between atoms: C_9  and  C_10
REMARK    8  A    between atoms: C_10  and  C_11
REMARK    9  A    between atoms: C_25  and  C_26
REMARK                            x       y       z     vdW  Elec       q    Type
REMARK                         _______ _______ _______ _____ _____    ______ ____
ROOT
ATOM      1  C   UNL     1       7.878   8.016  17.536  0.00  0.00    +0.000 C 
ATOM      2  O   UNL     1       8.741   7.967  16.663  0.00  0.00    +0.000 OA
ATOM      3  N   UNL     1       6.822   7.129  17.660  0.00  0.00    +0.000 N 
ATOM      4  C   UNL     1       6.518   6.199  16.688  0.00  0.00    +0.000 A 
ATOM      5  N   UNL     1       7.171   6.051  15.579  0.00  0.00    +0.000 NA
ATOM      6  C   UNL     1       6.744   5.086  14.644  0.00  0.00    +0.000 A 
ATOM      7  C   UNL     1       7.436   5.002  13.438  0.00  0.00    +0.000 A 
ATOM      8  C   UNL     1       7.014   4.110  12.454  0.00  0.00    +0.000 A 
ATOM      9  C   UNL     1       5.902   3.297  12.686  0.00  0.00    +0.000 A 
ATOM     10 CL   UNL     1       5.372   2.226  11.446  0.00  0.00    +0.000 Cl
ATOM     11  C   UNL     1       5.210   3.353  13.897  0.00  0.00    +0.000 A 
ATOM     12  C   UNL     1       5.631   4.251  14.878  0.00  0.00    +0.000 A 
ATOM     13  C   UNL     1       4.957   4.423  16.153  0.00  0.00    +0.000 A 
ATOM     14  N   UNL     1       3.935   3.809  16.704  0.00  0.00    +0.000 NA
ATOM     15  C   UNL     1       3.763   4.496  17.895  0.00  0.00    +0.000 A 
ATOM     16  N   UNL     1       4.651   5.489  18.112  0.00  0.00    +0.000 NA
ATOM     17  N   UNL     1       5.408   5.404  16.997  0.00  0.00    +0.000 N 
ATOM     18  H   UNL     1       6.188   7.198  18.452  0.00  0.00    +0.000 HD
ENDROOT
BRANCH  15  19
ATOM     19  C   UNL     1       2.645   4.168  18.837  0.00  0.00    +0.000 A 
ATOM     20  C   UNL     1       1.794   3.080  18.731  0.00  0.00    +0.000 A 
ATOM     21  C   UNL     1       0.867   3.178  19.798  0.00  0.00    +0.000 A 
ATOM     22  C   UNL     1       1.209   4.313  20.493  0.00  0.00    +0.000 A 
ATOM     23  O   UNL     1       2.290   4.910  19.931  0.00  0.00    +0.000 OA
ENDBRANCH  15  19
BRANCH   1  24
ATOM     24  C   UNL     1       7.971   9.058  18.624  0.00  0.00    +0.000 C 
BRANCH  24  25
ATOM     25  C   UNL     1       9.228   9.907  18.390  0.00  0.00    +0.000 C 
BRANCH  25  28
ATOM     26  C   UNL     1       9.962  12.222  18.113  0.00  0.00    +0.000 C 
ATOM     27  O   UNL     1      11.024  11.888  17.614  0.00  0.00    +0.000 OA
ATOM     28  N   UNL     1       8.990  11.333  18.464  0.00  0.00    +0.000 N 
ATOM     29  H   UNL     1       8.219  11.700  19.006  0.00  0.00    +0.000 HD
BRANCH  26  30
ATOM     30  O   UNL     1       9.566  13.491  18.374  0.00  0.00    +0.000 OA
BRANCH  30  32
ATOM     31  C   UNL     1       9.383  15.341  19.973  0.00  0.00    +0.000 C 
ATOM     32  C   UNL     1      10.276  14.229  19.405  0.00  0.00    +0.000 C 
ATOM     33  C   UNL     1      11.623  14.763  18.896  0.00  0.00    +0.000 C 
ATOM     34  C   UNL     1      10.562  13.228  20.537  0.00  0.00    +0.000 C 
ENDBRANCH  30  32
ENDBRANCH  26  30
ENDBRANCH  25  28
ENDBRANCH  24  25
ENDBRANCH   1  24
TORSDOF 6
ENDMDL
MODEL 7
REMARK VINA RESULT:      -7.4      1.094      1.581
REMARK  Name = 
REMARK  9 active torsions:
REMARK  status: ('A' for Active; 'I' for Inactive)
REMARK    1  A    between atoms: C_1  and  C_2
REMARK    2  A    between atoms: C_2  and  C_3
REMARK    3  A    between atoms: C_2  and  C_4
REMARK    4  A    between atoms: C_2  and  O_5
REMARK    5  A    between atoms: O_5  and  C_6
REMARK    6  A    between atoms: N_8  and  C_9
REMARK    7  A    between atoms: C_9  and  C_10
REMARK    8  A    between atoms: C_10  and  C_11
REMARK    9  A    between atoms: C_25  and  C_26
REMARK                            x       y       z     vdW  Elec       q    Type
REMARK                         _______ _______ _______ _____ _____    ______ ____
ROOT
ATOM      1  C   UNL     1       7.907   7.916  17.542  0.00  0.00    +0.000 C 
ATOM      2  O   UNL     1       8.739   7.907  16.639  0.00  0.00    +0.000 OA
ATOM      3  N   UNL     1       6.873   7.005  17.678  0.00  0.00    +0.000 N 
ATOM      4  C   UNL     1       6.552   6.096  16.692  0.00  0.00    +0.000 A 
ATOM      5  N   UNL     1       7.167   5.992  15.556  0.00  0.00    +0.000 NA
ATOM      6  C   UNL     1       6.726   5.045  14.610  0.00  0.00    +0.000 A 
ATOM      7  C   UNL     1       7.375   5.009  13.378  0.00  0.00    +0.000 A 
ATOM      8  C   UNL     1       6.935   4.136  12.384  0.00  0.00    +0.000 A 
ATOM      9  C   UNL     1       5.847   3.295  12.632  0.00  0.00    +0.000 A 
ATOM     10 CL   UNL     1       5.293   2.249  11.382  0.00  0.00    +0.000 Cl
ATOM     11  C   UNL     1       5.198   3.304  13.868  0.00  0.00    +0.000 A 
ATOM     12  C   UNL     1       5.637   4.182  14.859  0.00  0.00    +0.000 A 
ATOM     13  C   UNL     1       5.006   4.306  16.162  0.00  0.00    +0.000 A 
ATOM     14  N   UNL     1       4.016   3.657  16.731  0.00  0.00    +0.000 NA
ATOM     15  C   UNL     1       3.874   4.307  17.945  0.00  0.00    +0.000 A 
ATOM     16  N   UNL     1       4.750   5.310  18.159  0.00  0.00    +0.000 NA
ATOM     17  N   UNL     1       5.469   5.272  17.016  0.00  0.00    +0.000 N 
ATOM     18  H   UNL     1       6.267   7.039  18.494  0.00  0.00    +0.000 HD
ENDROOT
BRANCH  15  19
ATOM     19  C   UNL     1       2.797   3.931  18.917  0.00  0.00    +0.000 A 
ATOM     20  C   UNL     1       1.981   4.817  19.600  0.00  0.00    +0.000 A 
ATOM     21  C   UNL     1       1.141   4.041  20.437  0.00  0.00    +0.000 A 
ATOM     22  C   UNL     1       1.489   2.731  20.212  0.00  0.00    +0.000 A 
ATOM     23  O   UNL     1       2.477   2.651  19.285  0.00  0.00    +0.000 OA
ENDBRANCH  15  19
BRANCH   1  24
ATOM     24  C   UNL     1       8.019   8.929  18.656  0.00  0.00    +0.000 C 
BRANCH  24  25
ATOM     25  C   UNL     1       8.885  10.101  18.173  0.00  0.00    +0.000 C 
BRANCH  25  28
ATOM     26  C   UNL     1       9.394  12.327  19.045  0.00  0.00    +0.000 C 
ATOM     27  O   UNL     1       8.995  12.880  18.033  0.00  0.00    +0.000 OA
ATOM     28  N   UNL     1       9.321  10.980  19.238  0.00  0.00    +0.000 N 
ATOM     29  H   UNL     1       9.817  10.613  20.039  0.00  0.00    +0.000 HD
BRANCH  26  30
ATOM     30  O   UNL     1       9.939  12.936  20.125  0.00  0.00    +0.000 OA
BRANCH  30  32
ATOM     31  C   UNL     1       8.528  12.389  22.055  0.00  0.00    +0.000 C 
ATOM     32  C   UNL     1       9.039  13.494  21.120  0.00  0.00    +0.000 C 
ATOM     33  C   UNL     1       7.895  14.287  20.471  0.00  0.00    +0.000 C 
ATOM     34  C   UNL     1       9.875  14.474  21.961  0.00  0.00    +0.000 C 
ENDBRANCH  30  32
ENDBRANCH  26  30
ENDBRANCH  25  28
ENDBRANCH  24  25
ENDBRANCH   1  24
TORSDOF 6
ENDMDL
MODEL 8
REMARK VINA RESULT:      -7.4      8.578     11.752
REMARK  Name = 
REMARK  9 active torsions:
REMARK  status: ('A' for Active; 'I' for Inactive)
REMARK    1  A    between atoms: C_1  and  C_2
REMARK    2  A    between atoms: C_2  and  C_3
REMARK    3  A    between atoms: C_2  and  C_4
REMARK    4  A    between atoms: C_2  and  O_5
REMARK    5  A    between atoms: O_5  and  C_6
REMARK    6  A    between atoms: N_8  and  C_9
REMARK    7  A    between atoms: C_9  and  C_10
REMARK    8  A    between atoms: C_10  and  C_11
REMARK    9  A    between atoms: C_25  and  C_26
REMARK                            x       y       z     vdW  Elec       q    Type
REMARK                         _______ _______ _______ _____ _____    ______ ____
ROOT
ATOM      1  C   UNL     1       0.758   9.684  18.617  0.00  0.00    +0.000 C 
ATOM      2  O   UNL     1       0.882  10.271  19.689  0.00  0.00    +0.000 OA
ATOM      3  N   UNL     1      -0.292   9.859  17.732  0.00  0.00    +0.000 N 
ATOM      4  C   UNL     1      -1.422  10.579  18.057  0.00  0.00    +0.000 A 
ATOM      5  N   UNL     1      -1.624  11.160  19.198  0.00  0.00    +0.000 NA
ATOM      6  C   UNL     1      -2.837  11.840  19.426  0.00  0.00    +0.000 A 
ATOM      7  C   UNL     1      -3.039  12.398  20.687  0.00  0.00    +0.000 A 
ATOM      8  C   UNL     1      -4.248  13.024  20.986  0.00  0.00    +0.000 A 
ATOM      9  C   UNL     1      -5.250  13.097  20.015  0.00  0.00    +0.000 A 
ATOM     10 CL   UNL     1      -6.750  13.841  20.411  0.00  0.00    +0.000 Cl
ATOM     11  C   UNL     1      -5.056  12.561  18.740  0.00  0.00    +0.000 A 
ATOM     12  C   UNL     1      -3.848  11.930  18.446  0.00  0.00    +0.000 A 
ATOM     13  C   UNL     1      -3.559  11.300  17.169  0.00  0.00    +0.000 A 
ATOM     14  N   UNL     1      -4.239  11.220  16.048  0.00  0.00    +0.000 NA
ATOM     15  C   UNL     1      -3.429  10.431  15.247  0.00  0.00    +0.000 A 
ATOM     16  N   UNL     1      -2.269  10.044  15.818  0.00  0.00    +0.000 NA
ATOM     17  N   UNL     1      -2.373  10.628  17.031  0.00  0.00    +0.000 N 
ATOM     18  H   UNL     1      -0.285   9.385  16.832  0.00  0.00    +0.000 HD
ENDROOT
BRANCH  15  19
ATOM     19  C   UNL     1      -3.848  10.020  13.869  0.00  0.00    +0.000 A 
ATOM     20  C   UNL     1      -2.997   9.806  12.797  0.00  0.00    +0.000 A 
ATOM     21  C   UNL     1      -3.811   9.478  11.685  0.00  0.00    +0.000 A 
ATOM     22  C   UNL     1      -5.106   9.506  12.142  0.00  0.00    +0.000 A 
ATOM     23  O   UNL     1      -5.140   9.817  13.463  0.00  0.00    +0.000 OA
ENDBRANCH  15  19
BRANCH   1  24
ATOM     24  C   UNL     1       1.844   8.747  18.146  0.00  0.00    +0.000 C 
BRANCH  24  25
ATOM     25  C   UNL     1       2.345   7.928  19.344  0.00  0.00    +0.000 C 
BRANCH  25  28
ATOM     26  C   UNL     1       2.413   5.526  19.793  0.00  0.00    +0.000 C 
ATOM     27  O   UNL     1       1.666   5.624  20.753  0.00  0.00    +0.000 OA
ATOM     28  N   UNL     1       2.751   6.581  19.000  0.00  0.00    +0.000 N 
ATOM     29  H   UNL     1       3.492   6.421  18.330  0.00  0.00    +0.000 HD
BRANCH  26  30
ATOM     30  O   UNL     1       2.996   4.387  19.349  0.00  0.00    +0.000 OA
BRANCH  30  32
ATOM     31  C   UNL     1       3.095   2.416  17.894  0.00  0.00    +0.000 C 
ATOM     32  C   UNL     1       2.198   3.480  18.542  0.00  0.00    +0.000 C 
ATOM     33  C   UNL     1       1.348   4.237  17.511  0.00  0.00    +0.000 C 
ATOM     34  C   UNL     1       1.241   2.766  19.511  0.00  0.00    +0.000 C 
ENDBRANCH  30  32
ENDBRANCH  26  30
ENDBRANCH  25  28
ENDBRANCH  24  25
ENDBRANCH   1  24
TORSDOF 6
ENDMDL
MODEL 9
REMARK VINA RESULT:      -7.4      5.524      8.515
REMARK  Name = 
REMARK  9 active torsions:
REMARK  status: ('A' for Active; 'I' for Inactive)
REMARK    1  A    between atoms: C_1  and  C_2
REMARK    2  A    between atoms: C_2  and  C_3
REMARK    3  A    between atoms: C_2  and  C_4
REMARK    4  A    between atoms: C_2  and  O_5
REMARK    5  A    between atoms: O_5  and  C_6
REMARK    6  A    between atoms: N_8  and  C_9
REMARK    7  A    between atoms: C_9  and  C_10
REMARK    8  A    between atoms: C_10  and  C_11
REMARK    9  A    between atoms: C_25  and  C_26
REMARK                            x       y       z     vdW  Elec       q    Type
REMARK                         _______ _______ _______ _____ _____    ______ ____
ROOT
ATOM      1  C   UNL     1       1.899   9.028  18.487  0.00  0.00    +0.000 C 
ATOM      2  O   UNL     1       1.144   8.818  19.433  0.00  0.00    +0.000 OA
ATOM      3  N   UNL     1       2.710   8.078  17.891  0.00  0.00    +0.000 N 
ATOM      4  C   UNL     1       2.899   6.823  18.431  0.00  0.00    +0.000 A 
ATOM      5  N   UNL     1       2.352   6.400  19.526  0.00  0.00    +0.000 NA
ATOM      6  C   UNL     1       2.648   5.106  19.998  0.00  0.00    +0.000 A 
ATOM      7  C   UNL     1       2.087   4.714  21.212  0.00  0.00    +0.000 A 
ATOM      8  C   UNL     1       2.401   3.469  21.754  0.00  0.00    +0.000 A 
ATOM      9  C   UNL     1       3.272   2.615  21.073  0.00  0.00    +0.000 A 
ATOM     10 CL   UNL     1       3.677   1.096  21.774  0.00  0.00    +0.000 Cl
ATOM     11  C   UNL     1       3.827   2.983  19.845  0.00  0.00    +0.000 A 
ATOM     12  C   UNL     1       3.516   4.232  19.308  0.00  0.00    +0.000 A 
ATOM     13  C   UNL     1       4.072   4.733  18.063  0.00  0.00    +0.000 A 
ATOM     14  N   UNL     1       4.866   4.193  17.168  0.00  0.00    +0.000 NA
ATOM     15  C   UNL     1       5.061   5.221  16.261  0.00  0.00    +0.000 A 
ATOM     16  N   UNL     1       4.399   6.363  16.545  0.00  0.00    +0.000 NA
ATOM     17  N   UNL     1       3.765   6.014  17.685  0.00  0.00    +0.000 N 
ATOM     18  H   UNL     1       3.256   8.317  17.067  0.00  0.00    +0.000 HD
ENDROOT
BRANCH  15  19
ATOM     19  C   UNL     1       5.971   5.067  15.080  0.00  0.00    +0.000 A 
ATOM     20  C   UNL     1       5.741   4.249  13.986  0.00  0.00    +0.000 A 
ATOM     21  C   UNL     1       6.867   4.375  13.135  0.00  0.00    +0.000 A 
ATOM     22  C   UNL     1       7.712   5.263  13.755  0.00  0.00    +0.000 A 
ATOM     23  O   UNL     1       7.175   5.699  14.922  0.00  0.00    +0.000 OA
ENDBRANCH  15  19
BRANCH   1  24
ATOM     24  C   UNL     1       1.926  10.391  17.839  0.00  0.00    +0.000 C 
BRANCH  24  25
ATOM     25  C   UNL     1       1.147  11.375  18.723  0.00  0.00    +0.000 C 
BRANCH  25  28
ATOM     26  C   UNL     1      -1.163  12.069  18.324  0.00  0.00    +0.000 C 
ATOM     27  O   UNL     1      -0.820  13.109  17.786  0.00  0.00    +0.000 OA
ATOM     28  N   UNL     1      -0.280  11.125  18.754  0.00  0.00    +0.000 N 
ATOM     29  H   UNL     1      -0.660  10.378  19.320  0.00  0.00    +0.000 HD
BRANCH  26  30
ATOM     30  O   UNL     1      -2.437  11.673  18.556  0.00  0.00    +0.000 OA
BRANCH  30  32
ATOM     31  C   UNL     1      -2.375  11.182  16.154  0.00  0.00    +0.000 C 
ATOM     32  C   UNL     1      -3.178  11.075  17.458  0.00  0.00    +0.000 C 
ATOM     33  C   UNL     1      -4.586  11.676  17.329  0.00  0.00    +0.000 C 
ATOM     34  C   UNL     1      -3.330   9.583  17.799  0.00  0.00    +0.000 C 
ENDBRANCH  30  32
ENDBRANCH  26  30
ENDBRANCH  25  28
ENDBRANCH  24  25
ENDBRANCH   1  24
TORSDOF 6
ENDMDL
