MODEL 1
REMARK VINA RESULT:      -7.7      0.000      0.000
REMARK  Name = 
REMARK  9 active torsions:
REMARK  status: ('A' for Active; 'I' for Inactive)
REMARK    1  A    between atoms: C_1  and  C_2
REMARK    2  A    between atoms: C_2  and  O_3
REMARK    3  A    between atoms: O_3  and  C_4
REMARK    4  A    between atoms: C_4  and  C_5
REMARK    5  A    between atoms: C_5  and  C_6
REMARK    6  A    between atoms: C_6  and  N_7
REMARK    7  A    between atoms: N_7  and  C_8
REMARK    8  A    between atoms: C_11  and  N_12
REMARK    9  A    between atoms: C_21  and  N_22
REMARK                            x       y       z     vdW  Elec       q    Type
REMARK                         _______ _______ _______ _____ _____    ______ ____
ROOT
ATOM      1  C   UNL     1       6.129   5.206  16.274  0.00  0.00    +0.000 A 
ATOM      2  C   UNL     1       5.036   4.344  16.067  0.00  0.00    +0.000 A 
ATOM      3  C   UNL     1       4.130   4.023  17.082  0.00  0.00    +0.000 A 
ATOM      4  C   UNL     1       4.318   4.506  18.374  0.00  0.00    +0.000 A 
ATOM      5  C   UNL     1       5.420   5.325  18.633  0.00  0.00    +0.000 A 
ATOM      6  C   UNL     1       6.317   5.675  17.599  0.00  0.00    +0.000 A 
ENDROOT
BRANCH   4   7
ATOM      7  N   UNL     1       3.404   4.145  19.414  0.00  0.00    +0.000 N 
ATOM      8  C   UNL     1       3.706   2.997  20.165  0.00  0.00    +0.000 C 
ATOM      9  O   UNL     1       4.667   2.257  19.967  0.00  0.00    +0.000 OA
ATOM     10  C   UNL     1       2.757   2.694  21.301  0.00  0.00    +0.000 C 
ATOM     11  C   UNL     1       1.338   3.030  20.909  0.00  0.00    +0.000 C 
ATOM     12  C   UNL     1       1.255   4.509  20.610  0.00  0.00    +0.000 C 
ATOM     13  C   UNL     1       2.273   4.955  19.585  0.00  0.00    +0.000 C 
ATOM     14  O   UNL     1       2.106   6.041  19.023  0.00  0.00    +0.000 OA
ENDBRANCH   4   7
BRANCH   6  15
ATOM     15  N   UNL     1       7.419   6.588  17.958  0.00  0.00    +0.000 N 
ATOM     16  O   UNL     1       8.029   6.391  19.023  0.00  0.00    +0.000 OA
ATOM     17  O   UNL     1       7.707   7.491  17.159  0.00  0.00    +0.000 OA
ENDBRANCH   6  15
BRANCH   1  18
ATOM     18  N   UNL     1       7.038   5.442  15.222  0.00  0.00    +0.000 N 
ATOM     19  H   UNL     1       6.909   6.377  14.818  0.00  0.00    +0.000 HD
BRANCH  18  20
ATOM     20  C   UNL     1       7.170   4.409  14.187  0.00  0.00    +0.000 C 
BRANCH  20  21
ATOM     21  C   UNL     1       7.447   5.047  12.829  0.00  0.00    +0.000 C 
BRANCH  21  22
ATOM     22  C   UNL     1       7.018   4.123  11.693  0.00  0.00    +0.000 C 
BRANCH  22  23
ATOM     23  O   UNL     1       6.593   2.870  12.231  0.00  0.00    +0.000 OA
BRANCH  23  25
ATOM     24  C   UNL     1       4.305   3.270  11.655  0.00  0.00    +0.000 C 
ATOM     25  C   UNL     1       5.488   2.335  11.505  0.00  0.00    +0.000 C 
ENDBRANCH  23  25
ENDBRANCH  22  23
ENDBRANCH  21  22
ENDBRANCH  20  21
ENDBRANCH  18  20
ENDBRANCH   1  18
TORSDOF 8
ENDMDL
MODEL 2
REMARK VINA RESULT:      -7.4      1.185      2.015
REMARK  Name = 
REMARK  9 active torsions:
REMARK  status: ('A' for Active; 'I' for Inactive)
REMARK    1  A    between atoms: C_1  and  C_2
REMARK    2  A    between atoms: C_2  and  O_3
REMARK    3  A    between atoms: O_3  and  C_4
REMARK    4  A    between atoms: C_4  and  C_5
REMARK    5  A    between atoms: C_5  and  C_6
REMARK    6  A    between atoms: C_6  and  N_7
REMARK    7  A    between atoms: N_7  and  C_8
REMARK    8  A    between atoms: C_11  and  N_12
REMARK    9  A    between atoms: C_21  and  N_22
REMARK                            x       y       z     vdW  Elec       q    Type
REMARK                         _______ _______ _______ _____ _____    ______ ____
ROOT
ATOM      1  C   UNL     1       6.201   4.457  16.219  0.00  0.00    +0.000 A 
ATOM      2  C   UNL     1       4.886   4.124  15.846  0.00  0.00    +0.000 A 
ATOM      3  C   UNL     1       3.859   3.958  16.779  0.00  0.00    +0.000 A 
ATOM      4  C   UNL     1       4.124   4.058  18.143  0.00  0.00    +0.000 A 
ATOM      5  C   UNL     1       5.428   4.338  18.558  0.00  0.00    +0.000 A 
ATOM      6  C   UNL     1       6.458   4.538  17.611  0.00  0.00    +0.000 A 
ENDROOT
BRANCH   4   7
ATOM      7  N   UNL     1       3.074   3.853  19.093  0.00  0.00    +0.000 N 
ATOM      8  C   UNL     1       2.497   4.996  19.671  0.00  0.00    +0.000 C 
ATOM      9  O   UNL     1       2.858   6.151  19.458  0.00  0.00    +0.000 OA
ATOM     10  C   UNL     1       1.343   4.739  20.611  0.00  0.00    +0.000 C 
ATOM     11  C   UNL     1       1.584   3.484  21.416  0.00  0.00    +0.000 C 
ATOM     12  C   UNL     1       1.687   2.312  20.468  0.00  0.00    +0.000 C 
ATOM     13  C   UNL     1       2.719   2.528  19.384  0.00  0.00    +0.000 C 
ATOM     14  O   UNL     1       3.125   1.547  18.754  0.00  0.00    +0.000 OA
ENDBRANCH   4   7
BRANCH   6  15
ATOM     15  N   UNL     1       7.789   4.882  18.144  0.00  0.00    +0.000 N 
ATOM     16  O   UNL     1       7.913   5.930  18.800  0.00  0.00    +0.000 OA
ATOM     17  O   UNL     1       8.719   4.088  17.939  0.00  0.00    +0.000 OA
ENDBRANCH   6  15
BRANCH   1  18
ATOM     18  N   UNL     1       7.202   4.553  15.230  0.00  0.00    +0.000 N 
ATOM     19  H   UNL     1       8.074   4.934  15.615  0.00  0.00    +0.000 HD
BRANCH  18  20
ATOM     20  C   UNL     1       6.843   5.182  13.953  0.00  0.00    +0.000 C 
BRANCH  20  21
ATOM     21  C   UNL     1       7.252   4.289  12.785  0.00  0.00    +0.000 C 
BRANCH  21  22
ATOM     22  C   UNL     1       6.177   3.246  12.494  0.00  0.00    +0.000 C 
BRANCH  22  23
ATOM     23  O   UNL     1       5.028   3.885  11.936  0.00  0.00    +0.000 OA
BRANCH  23  25
ATOM     24  C   UNL     1       3.363   3.701  10.227  0.00  0.00    +0.000 C 
ATOM     25  C   UNL     1       4.187   2.954  11.257  0.00  0.00    +0.000 C 
ENDBRANCH  23  25
ENDBRANCH  22  23
ENDBRANCH  21  22
ENDBRANCH  20  21
ENDBRANCH  18  20
ENDBRANCH   1  18
TORSDOF 8
ENDMDL
MODEL 3
REMARK VINA RESULT:      -7.4      3.396      5.287
REMARK  Name = 
REMARK  9 active torsions:
REMARK  status: ('A' for Active; 'I' for Inactive)
REMARK    1  A    between atoms: C_1  and  C_2
REMARK    2  A    between atoms: C_2  and  O_3
REMARK    3  A    between atoms: O_3  and  C_4
REMARK    4  A    between atoms: C_4  and  C_5
REMARK    5  A    between atoms: C_5  and  C_6
REMARK    6  A    between atoms: C_6  and  N_7
REMARK    7  A    between atoms: N_7  and  C_8
REMARK    8  A    between atoms: C_11  and  N_12
REMARK    9  A    between atoms: C_21  and  N_22
REMARK                            x       y       z     vdW  Elec       q    Type
REMARK                         _______ _______ _______ _____ _____    ______ ____
ROOT
ATOM      1  C   UNL     1       6.098   6.640  17.399  0.00  0.00    +0.000 A 
ATOM      2  C   UNL     1       4.770   7.058  17.198  0.00  0.00    +0.000 A 
ATOM      3  C   UNL     1       3.674   6.341  17.688  0.00  0.00    +0.000 A 
ATOM      4  C   UNL     1       3.863   5.132  18.352  0.00  0.00    +0.000 A 
ATOM      5  C   UNL     1       5.165   4.657  18.529  0.00  0.00    +0.000 A 
ATOM      6  C   UNL     1       6.273   5.398  18.062  0.00  0.00    +0.000 A 
ENDROOT
BRANCH   4   7
ATOM      7  N   UNL     1       2.734   4.388  18.820  0.00  0.00    +0.000 N 
ATOM      8  C   UNL     1       2.227   4.719  20.087  0.00  0.00    +0.000 C 
ATOM      9  O   UNL     1       2.707   5.564  20.840  0.00  0.00    +0.000 OA
ATOM     10  C   UNL     1       0.990   3.963  20.512  0.00  0.00    +0.000 C 
ATOM     11  C   UNL     1       1.057   2.530  20.039  0.00  0.00    +0.000 C 
ATOM     12  C   UNL     1       1.117   2.521  18.529  0.00  0.00    +0.000 C 
ATOM     13  C   UNL     1       2.239   3.377  17.985  0.00  0.00    +0.000 C 
ATOM     14  O   UNL     1       2.596   3.206  16.816  0.00  0.00    +0.000 OA
ENDBRANCH   4   7
BRANCH   6  15
ATOM     15  N   UNL     1       7.609   4.842  18.343  0.00  0.00    +0.000 N 
ATOM     16  O   UNL     1       8.087   4.994  19.480  0.00  0.00    +0.000 OA
ATOM     17  O   UNL     1       8.180   4.216  17.438  0.00  0.00    +0.000 OA
ENDBRANCH   6  15
BRANCH   1  18
ATOM     18  N   UNL     1       7.154   7.380  16.828  0.00  0.00    +0.000 N 
ATOM     19  H   UNL     1       7.979   6.791  16.667  0.00  0.00    +0.000 HD
BRANCH  18  20
ATOM     20  C   UNL     1       7.506   8.662  17.450  0.00  0.00    +0.000 C 
BRANCH  20  21
ATOM     21  C   UNL     1       8.520   8.451  18.571  0.00  0.00    +0.000 C 
BRANCH  21  22
ATOM     22  C   UNL     1       9.101   9.782  19.039  0.00  0.00    +0.000 C 
BRANCH  22  23
ATOM     23  O   UNL     1       9.291  10.643  17.916  0.00  0.00    +0.000 OA
BRANCH  23  25
ATOM     24  C   UNL     1       8.814  12.986  17.805  0.00  0.00    +0.000 C 
ATOM     25  C   UNL     1       9.771  11.926  18.313  0.00  0.00    +0.000 C 
ENDBRANCH  23  25
ENDBRANCH  22  23
ENDBRANCH  21  22
ENDBRANCH  20  21
ENDBRANCH  18  20
ENDBRANCH   1  18
TORSDOF 8
ENDMDL
MODEL 4
REMARK VINA RESULT:      -7.4      3.355      5.183
REMARK  Name = 
REMARK  9 active torsions:
REMARK  status: ('A' for Active; 'I' for Inactive)
REMARK    1  A    between atoms: C_1  and  C_2
REMARK    2  A    between atoms: C_2  and  O_3
REMARK    3  A    between atoms: O_3  and  C_4
REMARK    4  A    between atoms: C_4  and  C_5
REMARK    5  A    between atoms: C_5  and  C_6
REMARK    6  A    between atoms: C_6  and  N_7
REMARK    7  A    between atoms: N_7  and  C_8
REMARK    8  A    between atoms: C_11  and  N_12
REMARK    9  A    between atoms: C_21  and  N_22
REMARK                            x       y       z     vdW  Elec       q    Type
REMARK                         _______ _______ _______ _____ _____    ______ ____
ROOT
ATOM      1  C   UNL     1       6.222   6.469  17.475  0.00  0.00    +0.000 A 
ATOM      2  C   UNL     1       4.876   6.765  17.192  0.00  0.00    +0.000 A 
ATOM      3  C   UNL     1       3.817   6.005  17.696  0.00  0.00    +0.000 A 
ATOM      4  C   UNL     1       4.067   4.868  18.460  0.00  0.00    +0.000 A 
ATOM      5  C   UNL     1       5.392   4.511  18.723  0.00  0.00    +0.000 A 
ATOM      6  C   UNL     1       6.460   5.299  18.240  0.00  0.00    +0.000 A 
ENDROOT
BRANCH   4   7
ATOM      7  N   UNL     1       2.978   4.077  18.944  0.00  0.00    +0.000 N 
ATOM      8  C   UNL     1       2.807   2.803  18.379  0.00  0.00    +0.000 C 
ATOM      9  O   UNL     1       3.492   2.338  17.470  0.00  0.00    +0.000 OA
ATOM     10  C   UNL     1       1.694   1.971  18.969  0.00  0.00    +0.000 C 
ATOM     11  C   UNL     1       0.511   2.842  19.321  0.00  0.00    +0.000 C 
ATOM     12  C   UNL     1       0.945   3.852  20.359  0.00  0.00    +0.000 C 
ATOM     13  C   UNL     1       2.158   4.645  19.929  0.00  0.00    +0.000 C 
ATOM     14  O   UNL     1       2.415   5.696  20.523  0.00  0.00    +0.000 OA
ENDBRANCH   4   7
BRANCH   6  15
ATOM     15  N   UNL     1       7.821   4.872  18.614  0.00  0.00    +0.000 N 
ATOM     16  O   UNL     1       8.263   5.207  19.726  0.00  0.00    +0.000 OA
ATOM     17  O   UNL     1       8.449   4.165  17.811  0.00  0.00    +0.000 OA
ENDBRANCH   6  15
BRANCH   1  18
ATOM     18  N   UNL     1       7.243   7.244  16.887  0.00  0.00    +0.000 N 
ATOM     19  H   UNL     1       8.095   6.689  16.738  0.00  0.00    +0.000 HD
BRANCH  18  20
ATOM     20  C   UNL     1       7.536   8.554  17.479  0.00  0.00    +0.000 C 
BRANCH  20  21
ATOM     21  C   UNL     1       8.559   8.416  18.602  0.00  0.00    +0.000 C 
BRANCH  21  22
ATOM     22  C   UNL     1       9.104   9.780  19.016  0.00  0.00    +0.000 C 
BRANCH  22  23
ATOM     23  O   UNL     1       9.119  10.652  17.885  0.00  0.00    +0.000 OA
BRANCH  23  25
ATOM     24  C   UNL     1      10.906  11.433  19.273  0.00  0.00    +0.000 C 
ATOM     25  C   UNL     1      10.247  11.525  17.911  0.00  0.00    +0.000 C 
ENDBRANCH  23  25
ENDBRANCH  22  23
ENDBRANCH  21  22
ENDBRANCH  20  21
ENDBRANCH  18  20
ENDBRANCH   1  18
TORSDOF 8
ENDMDL
MODEL 5
REMARK VINA RESULT:      -7.4      0.712      1.060
REMARK  Name = 
REMARK  9 active torsions:
REMARK  status: ('A' for Active; 'I' for Inactive)
REMARK    1  A    between atoms: C_1  and  C_2
REMARK    2  A    between atoms: C_2  and  O_3
REMARK    3  A    between atoms: O_3  and  C_4
REMARK    4  A    between atoms: C_4  and  C_5
REMARK    5  A    between atoms: C_5  and  C_6
REMARK    6  A    between atoms: C_6  and  N_7
REMARK    7  A    between atoms: N_7  and  C_8
REMARK    8  A    between atoms: C_11  and  N_12
REMARK    9  A    between atoms: C_21  and  N_22
REMARK                            x       y       z     vdW  Elec       q    Type
REMARK                         _______ _______ _______ _____ _____    ______ ____
ROOT
ATOM      1  C   UNL     1       6.428   4.687  16.466  0.00  0.00    +0.000 A 
ATOM      2  C   UNL     1       5.390   3.742  16.365  0.00  0.00    +0.000 A 
ATOM      3  C   UNL     1       4.404   3.600  17.345  0.00  0.00    +0.000 A 
ATOM      4  C   UNL     1       4.453   4.363  18.509  0.00  0.00    +0.000 A 
ATOM      5  C   UNL     1       5.496   5.279  18.672  0.00  0.00    +0.000 A 
ATOM      6  C   UNL     1       6.474   5.443  17.665  0.00  0.00    +0.000 A 
ENDROOT
BRANCH   4   7
ATOM      7  N   UNL     1       3.458   4.188  19.523  0.00  0.00    +0.000 N 
ATOM      8  C   UNL     1       3.635   3.123  20.421  0.00  0.00    +0.000 C 
ATOM      9  O   UNL     1       4.552   2.305  20.372  0.00  0.00    +0.000 OA
ATOM     10  C   UNL     1       2.605   3.019  21.520  0.00  0.00    +0.000 C 
ATOM     11  C   UNL     1       1.237   3.393  21.000  0.00  0.00    +0.000 C 
ATOM     12  C   UNL     1       1.275   4.828  20.526  0.00  0.00    +0.000 C 
ATOM     13  C   UNL     1       2.378   5.082  19.525  0.00  0.00    +0.000 C 
ATOM     14  O   UNL     1       2.320   6.101  18.831  0.00  0.00    +0.000 OA
ENDBRANCH   4   7
BRANCH   6  15
ATOM     15  N   UNL     1       7.504   6.472  17.904  0.00  0.00    +0.000 N 
ATOM     16  O   UNL     1       7.639   7.381  17.067  0.00  0.00    +0.000 OA
ATOM     17  O   UNL     1       8.165   6.399  18.950  0.00  0.00    +0.000 OA
ENDBRANCH   6  15
BRANCH   1  18
ATOM     18  N   UNL     1       7.423   4.737  15.468  0.00  0.00    +0.000 N 
ATOM     19  H   UNL     1       8.199   5.349  15.745  0.00  0.00    +0.000 HD
BRANCH  18  20
ATOM     20  C   UNL     1       6.994   4.982  14.086  0.00  0.00    +0.000 C 
BRANCH  20  21
ATOM     21  C   UNL     1       6.039   3.886  13.622  0.00  0.00    +0.000 C 
BRANCH  21  22
ATOM     22  C   UNL     1       6.330   3.483  12.180  0.00  0.00    +0.000 C 
BRANCH  22  23
ATOM     23  O   UNL     1       5.211   2.773  11.646  0.00  0.00    +0.000 OA
BRANCH  23  25
ATOM     24  C   UNL     1       3.263   2.933  10.266  0.00  0.00    +0.000 C 
ATOM     25  C   UNL     1       4.176   3.662  11.231  0.00  0.00    +0.000 C 
ENDBRANCH  23  25
ENDBRANCH  22  23
ENDBRANCH  21  22
ENDBRANCH  20  21
ENDBRANCH  18  20
ENDBRANCH   1  18
TORSDOF 8
ENDMDL
MODEL 6
REMARK VINA RESULT:      -7.3      1.214      1.391
REMARK  Name = 
REMARK  9 active torsions:
REMARK  status: ('A' for Active; 'I' for Inactive)
REMARK    1  A    between atoms: C_1  and  C_2
REMARK    2  A    between atoms: C_2  and  O_3
REMARK    3  A    between atoms: O_3  and  C_4
REMARK    4  A    between atoms: C_4  and  C_5
REMARK    5  A    between atoms: C_5  and  C_6
REMARK    6  A    between atoms: C_6  and  N_7
REMARK    7  A    between atoms: N_7  and  C_8
REMARK    8  A    between atoms: C_11  and  N_12
REMARK    9  A    between atoms: C_21  and  N_22
REMARK                            x       y       z     vdW  Elec       q    Type
REMARK                         _______ _______ _______ _____ _____    ______ ____
ROOT
ATOM      1  C   UNL     1       5.827   4.228  16.085  0.00  0.00    +0.000 A 
ATOM      2  C   UNL     1       4.495   3.797  15.943  0.00  0.00    +0.000 A 
ATOM      3  C   UNL     1       3.619   3.694  17.028  0.00  0.00    +0.000 A 
ATOM      4  C   UNL     1       4.064   3.960  18.320  0.00  0.00    +0.000 A 
ATOM      5  C   UNL     1       5.394   4.343  18.510  0.00  0.00    +0.000 A 
ATOM      6  C   UNL     1       6.269   4.478  17.409  0.00  0.00    +0.000 A 
ENDROOT
BRANCH   4   7
ATOM      7  N   UNL     1       3.170   3.820  19.428  0.00  0.00    +0.000 N 
ATOM      8  C   UNL     1       3.376   2.729  20.288  0.00  0.00    +0.000 C 
ATOM      9  O   UNL     1       4.235   1.863  20.133  0.00  0.00    +0.000 OA
ATOM     10  C   UNL     1       2.460   2.660  21.486  0.00  0.00    +0.000 C 
ATOM     11  C   UNL     1       1.069   3.120  21.116  0.00  0.00    +0.000 C 
ATOM     12  C   UNL     1       1.140   4.559  20.662  0.00  0.00    +0.000 C 
ATOM     13  C   UNL     1       2.148   4.772  19.555  0.00  0.00    +0.000 C 
ATOM     14  O   UNL     1       2.078   5.807  18.886  0.00  0.00    +0.000 OA
ENDBRANCH   4   7
BRANCH   6  15
ATOM     15  N   UNL     1       7.639   4.938  17.703  0.00  0.00    +0.000 N 
ATOM     16  O   UNL     1       8.567   4.114  17.648  0.00  0.00    +0.000 OA
ATOM     17  O   UNL     1       7.804   6.141  17.959  0.00  0.00    +0.000 OA
ENDBRANCH   6  15
BRANCH   1  18
ATOM     18  N   UNL     1       6.673   4.253  14.957  0.00  0.00    +0.000 N 
ATOM     19  H   UNL     1       7.464   4.893  15.097  0.00  0.00    +0.000 HD
BRANCH  18  20
ATOM     20  C   UNL     1       6.051   4.426  13.639  0.00  0.00    +0.000 C 
BRANCH  20  21
ATOM     21  C   UNL     1       6.633   3.431  12.639  0.00  0.00    +0.000 C 
BRANCH  21  22
ATOM     22  C   UNL     1       5.526   2.744  11.845  0.00  0.00    +0.000 C 
BRANCH  22  23
ATOM     23  O   UNL     1       4.741   3.727  11.171  0.00  0.00    +0.000 OA
BRANCH  23  25
ATOM     24  C   UNL     1       2.891   4.150   9.712  0.00  0.00    +0.000 C 
ATOM     25  C   UNL     1       3.508   3.183  10.702  0.00  0.00    +0.000 C 
ENDBRANCH  23  25
ENDBRANCH  22  23
ENDBRANCH  21  22
ENDBRANCH  20  21
ENDBRANCH  18  20
ENDBRANCH   1  18
TORSDOF 8
ENDMDL
MODEL 7
REMARK VINA RESULT:      -7.2      3.313      5.520
REMARK  Name = 
REMARK  9 active torsions:
REMARK  status: ('A' for Active; 'I' for Inactive)
REMARK    1  A    between atoms: C_1  and  C_2
REMARK    2  A    between atoms: C_2  and  O_3
REMARK    3  A    between atoms: O_3  and  C_4
REMARK    4  A    between atoms: C_4  and  C_5
REMARK    5  A    between atoms: C_5  and  C_6
REMARK    6  A    between atoms: C_6  and  N_7
REMARK    7  A    between atoms: N_7  and  C_8
REMARK    8  A    between atoms: C_11  and  N_12
REMARK    9  A    between atoms: C_21  and  N_22
REMARK                            x       y       z     vdW  Elec       q    Type
REMARK                         _______ _______ _______ _____ _____    ______ ____
ROOT
ATOM      1  C   UNL     1       5.928   6.559  17.389  0.00  0.00    +0.000 A 
ATOM      2  C   UNL     1       4.578   6.953  17.349  0.00  0.00    +0.000 A 
ATOM      3  C   UNL     1       3.548   6.160  17.862  0.00  0.00    +0.000 A 
ATOM      4  C   UNL     1       3.824   4.900  18.386  0.00  0.00    +0.000 A 
ATOM      5  C   UNL     1       5.146   4.450  18.400  0.00  0.00    +0.000 A 
ATOM      6  C   UNL     1       6.190   5.266  17.910  0.00  0.00    +0.000 A 
ENDROOT
BRANCH   4   7
ATOM      7  N   UNL     1       2.759   4.081  18.880  0.00  0.00    +0.000 N 
ATOM      8  C   UNL     1       2.198   3.149  17.990  0.00  0.00    +0.000 C 
ATOM      9  O   UNL     1       2.521   3.018  16.811  0.00  0.00    +0.000 OA
ATOM     10  C   UNL     1       1.130   2.254  18.572  0.00  0.00    +0.000 C 
ATOM     11  C   UNL     1       0.276   3.019  19.555  0.00  0.00    +0.000 C 
ATOM     12  C   UNL     1       1.153   3.500  20.687  0.00  0.00    +0.000 C 
ATOM     13  C   UNL     1       2.349   4.288  20.204  0.00  0.00    +0.000 C 
ATOM     14  O   UNL     1       2.953   4.996  21.014  0.00  0.00    +0.000 OA
ENDBRANCH   4   7
BRANCH   6  15
ATOM     15  N   UNL     1       7.559   4.726  18.016  0.00  0.00    +0.000 N 
ATOM     16  O   UNL     1       8.089   4.249  16.998  0.00  0.00    +0.000 OA
ATOM     17  O   UNL     1       8.130   4.806  19.114  0.00  0.00    +0.000 OA
ENDBRANCH   6  15
BRANCH   1  18
ATOM     18  N   UNL     1       6.911   7.381  16.801  0.00  0.00    +0.000 N 
ATOM     19  H   UNL     1       7.308   6.947  15.960  0.00  0.00    +0.000 HD
BRANCH  18  20
ATOM     20  C   UNL     1       7.950   7.939  17.675  0.00  0.00    +0.000 C 
BRANCH  20  21
ATOM     21  C   UNL     1       7.761   9.445  17.833  0.00  0.00    +0.000 C 
BRANCH  21  22
ATOM     22  C   UNL     1       9.069  10.119  18.239  0.00  0.00    +0.000 C 
BRANCH  22  23
ATOM     23  O   UNL     1       9.090  10.309  19.655  0.00  0.00    +0.000 OA
BRANCH  23  25
ATOM     24  C   UNL     1       9.610  12.075  21.184  0.00  0.00    +0.000 C 
ATOM     25  C   UNL     1      10.122  11.212  20.048  0.00  0.00    +0.000 C 
ENDBRANCH  23  25
ENDBRANCH  22  23
ENDBRANCH  21  22
ENDBRANCH  20  21
ENDBRANCH  18  20
ENDBRANCH   1  18
TORSDOF 8
ENDMDL
MODEL 8
REMARK VINA RESULT:      -7.2      1.183      2.013
REMARK  Name = 
REMARK  9 active torsions:
REMARK  status: ('A' for Active; 'I' for Inactive)
REMARK    1  A    between atoms: C_1  and  C_2
REMARK    2  A    between atoms: C_2  and  O_3
REMARK    3  A    between atoms: O_3  and  C_4
REMARK    4  A    between atoms: C_4  and  C_5
REMARK    5  A    between atoms: C_5  and  C_6
REMARK    6  A    between atoms: C_6  and  N_7
REMARK    7  A    between atoms: N_7  and  C_8
REMARK    8  A    between atoms: C_11  and  N_12
REMARK    9  A    between atoms: C_21  and  N_22
REMARK                            x       y       z     vdW  Elec       q    Type
REMARK                         _______ _______ _______ _____ _____    ______ ____
ROOT
ATOM      1  C   UNL     1       6.279   4.447  16.376  0.00  0.00    +0.000 A 
ATOM      2  C   UNL     1       4.958   4.217  15.951  0.00  0.00    +0.000 A 
ATOM      3  C   UNL     1       3.898   4.052  16.847  0.00  0.00    +0.000 A 
ATOM      4  C   UNL     1       4.130   4.048  18.220  0.00  0.00    +0.000 A 
ATOM      5  C   UNL     1       5.436   4.224  18.683  0.00  0.00    +0.000 A 
ATOM      6  C   UNL     1       6.502   4.422  17.777  0.00  0.00    +0.000 A 
ENDROOT
BRANCH   4   7
ATOM      7  N   UNL     1       3.044   3.845  19.129  0.00  0.00    +0.000 N 
ATOM      8  C   UNL     1       2.497   4.983  19.744  0.00  0.00    +0.000 C 
ATOM      9  O   UNL     1       2.912   6.131  19.595  0.00  0.00    +0.000 OA
ATOM     10  C   UNL     1       1.306   4.734  20.637  0.00  0.00    +0.000 C 
ATOM     11  C   UNL     1       1.471   3.434  21.389  0.00  0.00    +0.000 C 
ATOM     12  C   UNL     1       1.554   2.303  20.391  0.00  0.00    +0.000 C 
ATOM     13  C   UNL     1       2.627   2.524  19.348  0.00  0.00    +0.000 C 
ATOM     14  O   UNL     1       3.011   1.557  18.685  0.00  0.00    +0.000 OA
ENDBRANCH   4   7
BRANCH   6  15
ATOM     15  N   UNL     1       7.836   4.652  18.362  0.00  0.00    +0.000 N 
ATOM     16  O   UNL     1       7.938   5.451  19.309  0.00  0.00    +0.000 OA
ATOM     17  O   UNL     1       8.790   4.009  17.901  0.00  0.00    +0.000 OA
ENDBRANCH   6  15
BRANCH   1  18
ATOM     18  N   UNL     1       7.310   4.547  15.420  0.00  0.00    +0.000 N 
ATOM     19  H   UNL     1       8.217   4.734  15.865  0.00  0.00    +0.000 HD
BRANCH  18  20
ATOM     20  C   UNL     1       7.081   5.409  14.254  0.00  0.00    +0.000 C 
BRANCH  20  21
ATOM     21  C   UNL     1       7.873   4.903  13.052  0.00  0.00    +0.000 C 
BRANCH  21  22
ATOM     22  C   UNL     1       6.946   4.296  12.003  0.00  0.00    +0.000 C 
BRANCH  22  23
ATOM     23  O   UNL     1       6.342   3.112  12.526  0.00  0.00    +0.000 OA
BRANCH  23  25
ATOM     24  C   UNL     1       6.254   1.134  11.182  0.00  0.00    +0.000 C 
ATOM     25  C   UNL     1       5.567   2.437  11.536  0.00  0.00    +0.000 C 
ENDBRANCH  23  25
ENDBRANCH  22  23
ENDBRANCH  21  22
ENDBRANCH  20  21
ENDBRANCH  18  20
ENDBRANCH   1  18
TORSDOF 8
ENDMDL
MODEL 9
REMARK VINA RESULT:      -7.1      3.125      5.347
REMARK  Name = 
REMARK  9 active torsions:
REMARK  status: ('A' for Active; 'I' for Inactive)
REMARK    1  A    between atoms: C_1  and  C_2
REMARK    2  A    between atoms: C_2  and  O_3
REMARK    3  A    between atoms: O_3  and  C_4
REMARK    4  A    between atoms: C_4  and  C_5
REMARK    5  A    between atoms: C_5  and  C_6
REMARK    6  A    between atoms: C_6  and  N_7
REMARK    7  A    between atoms: N_7  and  C_8
REMARK    8  A    between atoms: C_11  and  N_12
REMARK    9  A    between atoms: C_21  and  N_22
REMARK                            x       y       z     vdW  Elec       q    Type
REMARK                         _______ _______ _______ _____ _____    ______ ____
ROOT
ATOM      1  C   UNL     1       6.452   5.970  17.552  0.00  0.00    +0.000 A 
ATOM      2  C   UNL     1       6.321   5.628  18.910  0.00  0.00    +0.000 A 
ATOM      3  C   UNL     1       5.225   4.915  19.403  0.00  0.00    +0.000 A 
ATOM      4  C   UNL     1       4.174   4.566  18.559  0.00  0.00    +0.000 A 
ATOM      5  C   UNL     1       4.242   4.930  17.212  0.00  0.00    +0.000 A 
ATOM      6  C   UNL     1       5.366   5.622  16.709  0.00  0.00    +0.000 A 
ENDROOT
BRANCH   4   7
ATOM      7  N   UNL     1       3.040   3.865  19.080  0.00  0.00    +0.000 N 
ATOM      8  C   UNL     1       2.967   2.485  18.832  0.00  0.00    +0.000 C 
ATOM      9  O   UNL     1       3.778   1.845  18.165  0.00  0.00    +0.000 OA
ATOM     10  C   UNL     1       1.795   1.770  19.462  0.00  0.00    +0.000 C 
ATOM     11  C   UNL     1       0.563   2.643  19.429  0.00  0.00    +0.000 C 
ATOM     12  C   UNL     1       0.835   3.896  20.229  0.00  0.00    +0.000 C 
ATOM     13  C   UNL     1       2.084   4.618  19.777  0.00  0.00    +0.000 C 
ATOM     14  O   UNL     1       2.241   5.793  20.118  0.00  0.00    +0.000 OA
ENDBRANCH   4   7
BRANCH   6  15
ATOM     15  N   UNL     1       5.371   5.915  15.263  0.00  0.00    +0.000 N 
ATOM     16  O   UNL     1       5.167   7.084  14.894  0.00  0.00    +0.000 OA
ATOM     17  O   UNL     1       5.615   4.982  14.483  0.00  0.00    +0.000 OA
ENDBRANCH   6  15
BRANCH   1  18
ATOM     18  N   UNL     1       7.557   6.740  17.131  0.00  0.00    +0.000 N 
ATOM     19  H   UNL     1       8.231   6.172  16.605  0.00  0.00    +0.000 HD
BRANCH  18  20
ATOM     20  C   UNL     1       8.214   7.593  18.128  0.00  0.00    +0.000 C 
BRANCH  20  21
ATOM     21  C   UNL     1       7.987   9.067  17.802  0.00  0.00    +0.000 C 
BRANCH  21  22
ATOM     22  C   UNL     1       8.907   9.958  18.632  0.00  0.00    +0.000 C 
BRANCH  22  23
ATOM     23  O   UNL     1       9.174  11.166  17.919  0.00  0.00    +0.000 OA
BRANCH  23  25
ATOM     24  C   UNL     1      10.740  12.869  17.310  0.00  0.00    +0.000 C 
ATOM     25  C   UNL     1      10.526  11.588  18.090  0.00  0.00    +0.000 C 
ENDBRANCH  23  25
ENDBRANCH  22  23
ENDBRANCH  21  22
ENDBRANCH  20  21
ENDBRANCH  18  20
ENDBRANCH   1  18
TORSDOF 8
ENDMDL
