MODEL 1
REMARK VINA RESULT:      -6.9      0.000      0.000
REMARK  Name = 
REMARK  11 active torsions:
REMARK  status: ('A' for Active; 'I' for Inactive)
REMARK    1  A    between atoms: C_1  and  C_2
REMARK    2  A    between atoms: C_2  and  N_3
REMARK    3  A    between atoms: C_4  and  C_5
REMARK    4  A    between atoms: C_8  and  N_9
REMARK    5  A    between atoms: N_9  and  S_10
REMARK    6  A    between atoms: S_10  and  C_13
REMARK    7  A    between atoms: C_13  and  C_14
REMARK    8  A    between atoms: C_13  and  C_15
REMARK    9  A    between atoms: C_18  and  C_19
REMARK   10  A    between atoms: C_24  and  O_25
REMARK   11  A    between atoms: O_25  and  C_26
REMARK                            x       y       z     vdW  Elec       q    Type
REMARK                         _______ _______ _______ _____ _____    ______ ____
ROOT
ATOM      1  N   UNL     1       2.879   7.554  18.552  0.00  0.00    +0.000 N 
ATOM      2  C   UNL     1       2.280   7.081  19.736  0.00  0.00    +0.000 A 
ATOM      3  C   UNL     1       2.729   5.750  19.829  0.00  0.00    +0.000 A 
ATOM      4  C   UNL     1       3.652   5.466  18.788  0.00  0.00    +0.000 A 
ATOM      5  C   UNL     1       4.428   4.335  18.449  0.00  0.00    +0.000 A 
ATOM      6  C   UNL     1       5.274   4.376  17.335  0.00  0.00    +0.000 A 
ATOM      7  C   UNL     1       5.355   5.526  16.561  0.00  0.00    +0.000 A 
ATOM      8  C   UNL     1       4.559   6.638  16.861  0.00  0.00    +0.000 A 
ATOM      9  C   UNL     1       3.728   6.601  17.997  0.00  0.00    +0.000 A 
ENDROOT
BRANCH   2  10
ATOM     10  C   UNL     1       1.394   7.851  20.687  0.00  0.00    +0.000 A 
ATOM     11  C   UNL     1       0.003   7.691  20.791  0.00  0.00    +0.000 A 
ATOM     12  C   UNL     1      -0.794   8.475  21.640  0.00  0.00    +0.000 A 
ATOM     13  C   UNL     1      -0.215   9.439  22.442  0.00  0.00    +0.000 A 
ATOM     14  C   UNL     1       1.157   9.607  22.408  0.00  0.00    +0.000 A 
ATOM     15  C   UNL     1       1.937   8.831  21.539  0.00  0.00    +0.000 A 
BRANCH  13  16
ATOM     16  N   UNL     1      -1.015  10.191  23.343  0.00  0.00    +0.000 N 
ATOM     17  H   UNL     1      -1.722   9.688  23.876  0.00  0.00    +0.000 HD
BRANCH  16  18
ATOM     18  S   UNL     1      -1.492  11.739  22.881  0.00  0.00    +0.000 S 
ATOM     19  O   UNL     1      -2.903  11.817  23.190  0.00  0.00    +0.000 OA
ATOM     20  O   UNL     1      -0.558  12.700  23.418  0.00  0.00    +0.000 OA
BRANCH  18  21
ATOM     21  C   UNL     1      -1.325  11.700  21.076  0.00  0.00    +0.000 C 
ATOM     22  C   UNL     1      -2.573  12.235  20.380  0.00  0.00    +0.000 C 
ATOM     23  C   UNL     1      -0.101  12.508  20.658  0.00  0.00    +0.000 C 
ENDBRANCH  18  21
ENDBRANCH  16  18
ENDBRANCH  13  16
ENDBRANCH   2  10
BRANCH   1  25
ATOM     24  C   UNL     1       1.255   9.224  17.706  0.00  0.00    +0.000 C 
ATOM     25  C   UNL     1       2.719   8.857  17.913  0.00  0.00    +0.000 C 
ENDBRANCH   1  25
BRANCH   3  26
ATOM     26  C   UNL     1       2.394   4.757  20.808  0.00  0.00    +0.000 C 
ATOM     27  N   UNL     1       2.151   3.940  21.597  0.00  0.00    +0.000 NA
ENDBRANCH   3  26
BRANCH   7  28
ATOM     28  O   UNL     1       6.160   5.682  15.466  0.00  0.00    +0.000 OA
BRANCH  28  29
ATOM     29  C   UNL     1       6.001   4.702  14.453  0.00  0.00    +0.000 C 
ATOM     30  F   UNL     1       6.638   3.569  14.839  0.00  0.00    +0.000 F 
ATOM     31  F   UNL     1       4.678   4.404  14.386  0.00  0.00    +0.000 F 
ENDBRANCH  28  29
ENDBRANCH   7  28
TORSDOF 8
ENDMDL
MODEL 2
REMARK VINA RESULT:      -6.9      4.975      9.271
REMARK  Name = 
REMARK  11 active torsions:
REMARK  status: ('A' for Active; 'I' for Inactive)
REMARK    1  A    between atoms: C_1  and  C_2
REMARK    2  A    between atoms: C_2  and  N_3
REMARK    3  A    between atoms: C_4  and  C_5
REMARK    4  A    between atoms: C_8  and  N_9
REMARK    5  A    between atoms: N_9  and  S_10
REMARK    6  A    between atoms: S_10  and  C_13
REMARK    7  A    between atoms: C_13  and  C_14
REMARK    8  A    between atoms: C_13  and  C_15
REMARK    9  A    between atoms: C_18  and  C_19
REMARK   10  A    between atoms: C_24  and  O_25
REMARK   11  A    between atoms: O_25  and  C_26
REMARK                            x       y       z     vdW  Elec       q    Type
REMARK                         _______ _______ _______ _____ _____    ______ ____
ROOT
ATOM      1  N   UNL     1      -0.621  10.778  19.714  0.00  0.00    +0.000 N 
ATOM      2  C   UNL     1       0.106   9.890  20.531  0.00  0.00    +0.000 A 
ATOM      3  C   UNL     1      -0.217  10.300  21.839  0.00  0.00    +0.000 A 
ATOM      4  C   UNL     1      -1.189  11.334  21.808  0.00  0.00    +0.000 A 
ATOM      5  C   UNL     1      -1.887  12.052  22.804  0.00  0.00    +0.000 A 
ATOM      6  C   UNL     1      -2.816  13.032  22.438  0.00  0.00    +0.000 A 
ATOM      7  C   UNL     1      -3.057  13.301  21.096  0.00  0.00    +0.000 A 
ATOM      8  C   UNL     1      -2.340  12.627  20.101  0.00  0.00    +0.000 A 
ATOM      9  C   UNL     1      -1.423  11.624  20.474  0.00  0.00    +0.000 A 
ENDROOT
BRANCH   2  10
ATOM     10  C   UNL     1       0.992   8.751  20.087  0.00  0.00    +0.000 A 
ATOM     11  C   UNL     1       1.742   8.737  18.900  0.00  0.00    +0.000 A 
ATOM     12  C   UNL     1       2.501   7.629  18.490  0.00  0.00    +0.000 A 
ATOM     13  C   UNL     1       2.556   6.495  19.276  0.00  0.00    +0.000 A 
ATOM     14  C   UNL     1       1.869   6.474  20.476  0.00  0.00    +0.000 A 
ATOM     15  C   UNL     1       1.099   7.581  20.862  0.00  0.00    +0.000 A 
BRANCH  13  16
ATOM     16  N   UNL     1       3.370   5.398  18.888  0.00  0.00    +0.000 N 
ATOM     17  H   UNL     1       4.331   5.599  18.617  0.00  0.00    +0.000 HD
BRANCH  16  18
ATOM     18  S   UNL     1       2.662   4.157  17.996  0.00  0.00    +0.000 S 
ATOM     19  O   UNL     1       1.400   4.688  17.530  0.00  0.00    +0.000 OA
ATOM     20  O   UNL     1       3.635   3.628  17.070  0.00  0.00    +0.000 OA
BRANCH  18  21
ATOM     21  C   UNL     1       2.300   2.902  19.253  0.00  0.00    +0.000 C 
ATOM     22  C   UNL     1       3.265   2.985  20.431  0.00  0.00    +0.000 C 
ATOM     23  C   UNL     1       0.862   3.061  19.736  0.00  0.00    +0.000 C 
ENDBRANCH  18  21
ENDBRANCH  16  18
ENDBRANCH  13  16
ENDBRANCH   2  10
BRANCH   1  25
ATOM     24  C   UNL     1      -1.746  10.058  17.627  0.00  0.00    +0.000 C 
ATOM     25  C   UNL     1      -0.624  10.873  18.258  0.00  0.00    +0.000 C 
ENDBRANCH   1  25
BRANCH   3  26
ATOM     26  C   UNL     1       0.277   9.791  23.086  0.00  0.00    +0.000 C 
ATOM     27  N   UNL     1       0.706   9.386  24.087  0.00  0.00    +0.000 NA
ENDBRANCH   3  26
BRANCH   7  28
ATOM     28  O   UNL     1      -3.954  14.221  20.627  0.00  0.00    +0.000 OA
BRANCH  28  29
ATOM     29  C   UNL     1      -5.318  13.848  20.738  0.00  0.00    +0.000 C 
ATOM     30  F   UNL     1      -5.406  12.496  20.675  0.00  0.00    +0.000 F 
ATOM     31  F   UNL     1      -5.735  14.210  21.977  0.00  0.00    +0.000 F 
ENDBRANCH  28  29
ENDBRANCH   7  28
TORSDOF 8
ENDMDL
MODEL 3
REMARK VINA RESULT:      -6.8      5.066      9.669
REMARK  Name = 
REMARK  11 active torsions:
REMARK  status: ('A' for Active; 'I' for Inactive)
REMARK    1  A    between atoms: C_1  and  C_2
REMARK    2  A    between atoms: C_2  and  N_3
REMARK    3  A    between atoms: C_4  and  C_5
REMARK    4  A    between atoms: C_8  and  N_9
REMARK    5  A    between atoms: N_9  and  S_10
REMARK    6  A    between atoms: S_10  and  C_13
REMARK    7  A    between atoms: C_13  and  C_14
REMARK    8  A    between atoms: C_13  and  C_15
REMARK    9  A    between atoms: C_18  and  C_19
REMARK   10  A    between atoms: C_24  and  O_25
REMARK   11  A    between atoms: O_25  and  C_26
REMARK                            x       y       z     vdW  Elec       q    Type
REMARK                         _______ _______ _______ _____ _____    ______ ____
ROOT
ATOM      1  N   UNL     1      -2.233  10.695  18.611  0.00  0.00    +0.000 N 
ATOM      2  C   UNL     1      -0.982  10.761  19.258  0.00  0.00    +0.000 A 
ATOM      3  C   UNL     1      -1.111  11.866  20.121  0.00  0.00    +0.000 A 
ATOM      4  C   UNL     1      -2.433  12.382  20.070  0.00  0.00    +0.000 A 
ATOM      5  C   UNL     1      -3.106  13.420  20.753  0.00  0.00    +0.000 A 
ATOM      6  C   UNL     1      -4.452  13.681  20.475  0.00  0.00    +0.000 A 
ATOM      7  C   UNL     1      -5.132  12.921  19.531  0.00  0.00    +0.000 A 
ATOM      8  C   UNL     1      -4.464  11.919  18.818  0.00  0.00    +0.000 A 
ATOM      9  C   UNL     1      -3.116  11.644  19.118  0.00  0.00    +0.000 A 
ENDROOT
BRANCH   2  10
ATOM     10  C   UNL     1       0.194   9.833  19.076  0.00  0.00    +0.000 A 
ATOM     11  C   UNL     1       0.913   9.676  17.880  0.00  0.00    +0.000 A 
ATOM     12  C   UNL     1       1.959   8.751  17.734  0.00  0.00    +0.000 A 
ATOM     13  C   UNL     1       2.343   7.961  18.800  0.00  0.00    +0.000 A 
ATOM     14  C   UNL     1       1.695   8.108  20.013  0.00  0.00    +0.000 A 
ATOM     15  C   UNL     1       0.638   9.021  20.138  0.00  0.00    +0.000 A 
BRANCH  13  16
ATOM     16  N   UNL     1       3.439   7.069  18.667  0.00  0.00    +0.000 N 
ATOM     17  H   UNL     1       4.278   7.420  18.209  0.00  0.00    +0.000 HD
BRANCH  16  18
ATOM     18  S   UNL     1       3.111   5.451  18.328  0.00  0.00    +0.000 S 
ATOM     19  O   UNL     1       3.600   4.710  19.470  0.00  0.00    +0.000 OA
ATOM     20  O   UNL     1       1.741   5.330  17.892  0.00  0.00    +0.000 OA
BRANCH  18  21
ATOM     21  C   UNL     1       4.209   5.094  16.930  0.00  0.00    +0.000 C 
ATOM     22  C   UNL     1       5.315   6.137  16.798  0.00  0.00    +0.000 C 
ATOM     23  C   UNL     1       4.813   3.703  17.096  0.00  0.00    +0.000 C 
ENDBRANCH  18  21
ENDBRANCH  16  18
ENDBRANCH  13  16
ENDBRANCH   2  10
BRANCH   1  25
ATOM     24  C   UNL     1      -2.490  10.385  16.166  0.00  0.00    +0.000 C 
ATOM     25  C   UNL     1      -2.660   9.783  17.555  0.00  0.00    +0.000 C 
ENDBRANCH   1  25
BRANCH   3  26
ATOM     26  C   UNL     1      -0.129  12.442  20.992  0.00  0.00    +0.000 C 
ATOM     27  N   UNL     1       0.659  12.938  21.688  0.00  0.00    +0.000 NA
ENDBRANCH   3  26
BRANCH   7  28
ATOM     28  O   UNL     1      -6.449  13.077  19.196  0.00  0.00    +0.000 OA
BRANCH  28  29
ATOM     29  C   UNL     1      -7.337  12.140  19.782  0.00  0.00    +0.000 C 
ATOM     30  F   UNL     1      -7.443  11.066  18.960  0.00  0.00    +0.000 F 
ATOM     31  F   UNL     1      -6.760  11.699  20.929  0.00  0.00    +0.000 F 
ENDBRANCH  28  29
ENDBRANCH   7  28
TORSDOF 8
ENDMDL
MODEL 4
REMARK VINA RESULT:      -6.8      5.118      9.647
REMARK  Name = 
REMARK  11 active torsions:
REMARK  status: ('A' for Active; 'I' for Inactive)
REMARK    1  A    between atoms: C_1  and  C_2
REMARK    2  A    between atoms: C_2  and  N_3
REMARK    3  A    between atoms: C_4  and  C_5
REMARK    4  A    between atoms: C_8  and  N_9
REMARK    5  A    between atoms: N_9  and  S_10
REMARK    6  A    between atoms: S_10  and  C_13
REMARK    7  A    between atoms: C_13  and  C_14
REMARK    8  A    between atoms: C_13  and  C_15
REMARK    9  A    between atoms: C_18  and  C_19
REMARK   10  A    between atoms: C_24  and  O_25
REMARK   11  A    between atoms: O_25  and  C_26
REMARK                            x       y       z     vdW  Elec       q    Type
REMARK                         _______ _______ _______ _____ _____    ______ ____
ROOT
ATOM      1  N   UNL     1      -1.829  10.850  19.006  0.00  0.00    +0.000 N 
ATOM      2  C   UNL     1      -0.491  10.841  19.450  0.00  0.00    +0.000 A 
ATOM      3  C   UNL     1      -0.383  12.022  20.209  0.00  0.00    +0.000 A 
ATOM      4  C   UNL     1      -1.644  12.666  20.304  0.00  0.00    +0.000 A 
ATOM      5  C   UNL     1      -2.105  13.822  20.972  0.00  0.00    +0.000 A 
ATOM      6  C   UNL     1      -3.450  14.198  20.873  0.00  0.00    +0.000 A 
ATOM      7  C   UNL     1      -4.335  13.436  20.121  0.00  0.00    +0.000 A 
ATOM      8  C   UNL     1      -3.881  12.313  19.420  0.00  0.00    +0.000 A 
ATOM      9  C   UNL     1      -2.533  11.925  19.542  0.00  0.00    +0.000 A 
ENDROOT
BRANCH   2  10
ATOM     10  C   UNL     1       0.554   9.783  19.189  0.00  0.00    +0.000 A 
ATOM     11  C   UNL     1       1.174   9.560  17.949  0.00  0.00    +0.000 A 
ATOM     12  C   UNL     1       2.092   8.521  17.731  0.00  0.00    +0.000 A 
ATOM     13  C   UNL     1       2.445   7.676  18.766  0.00  0.00    +0.000 A 
ATOM     14  C   UNL     1       1.894   7.880  20.018  0.00  0.00    +0.000 A 
ATOM     15  C   UNL     1       0.963   8.909  20.215  0.00  0.00    +0.000 A 
BRANCH  13  16
ATOM     16  N   UNL     1       3.417   6.662  18.558  0.00  0.00    +0.000 N 
ATOM     17  H   UNL     1       4.127   6.831  17.848  0.00  0.00    +0.000 HD
BRANCH  16  18
ATOM     18  S   UNL     1       2.923   5.054  18.653  0.00  0.00    +0.000 S 
ATOM     19  O   UNL     1       2.787   4.774  20.066  0.00  0.00    +0.000 OA
ATOM     20  O   UNL     1       1.822   4.846  17.743  0.00  0.00    +0.000 OA
BRANCH  18  21
ATOM     21  C   UNL     1       4.369   4.144  18.048  0.00  0.00    +0.000 C 
ATOM     22  C   UNL     1       4.632   4.416  16.569  0.00  0.00    +0.000 C 
ATOM     23  C   UNL     1       5.593   4.517  18.878  0.00  0.00    +0.000 C 
ENDBRANCH  18  21
ENDBRANCH  16  18
ENDBRANCH  13  16
ENDBRANCH   2  10
BRANCH   1  25
ATOM     24  C   UNL     1      -2.265  10.220  16.650  0.00  0.00    +0.000 C 
ATOM     25  C   UNL     1      -2.497   9.902  18.122  0.00  0.00    +0.000 C 
ENDBRANCH   1  25
BRANCH   3  26
ATOM     26  C   UNL     1       0.772  12.565  20.862  0.00  0.00    +0.000 C 
ATOM     27  N   UNL     1       1.692  13.031  21.397  0.00  0.00    +0.000 NA
ENDBRANCH   3  26
BRANCH   7  28
ATOM     28  O   UNL     1      -5.669  13.699  19.972  0.00  0.00    +0.000 OA
BRANCH  28  29
ATOM     29  C   UNL     1      -6.488  12.564  19.744  0.00  0.00    +0.000 C 
ATOM     30  F   UNL     1      -7.431  12.504  20.717  0.00  0.00    +0.000 F 
ATOM     31  F   UNL     1      -7.146  12.769  18.575  0.00  0.00    +0.000 F 
ENDBRANCH  28  29
ENDBRANCH   7  28
TORSDOF 8
ENDMDL
MODEL 5
REMARK VINA RESULT:      -6.7      5.232      9.796
REMARK  Name = 
REMARK  11 active torsions:
REMARK  status: ('A' for Active; 'I' for Inactive)
REMARK    1  A    between atoms: C_1  and  C_2
REMARK    2  A    between atoms: C_2  and  N_3
REMARK    3  A    between atoms: C_4  and  C_5
REMARK    4  A    between atoms: C_8  and  N_9
REMARK    5  A    between atoms: N_9  and  S_10
REMARK    6  A    between atoms: S_10  and  C_13
REMARK    7  A    between atoms: C_13  and  C_14
REMARK    8  A    between atoms: C_13  and  C_15
REMARK    9  A    between atoms: C_18  and  C_19
REMARK   10  A    between atoms: C_24  and  O_25
REMARK   11  A    between atoms: O_25  and  C_26
REMARK                            x       y       z     vdW  Elec       q    Type
REMARK                         _______ _______ _______ _____ _____    ______ ____
ROOT
ATOM      1  N   UNL     1      -1.642  10.843  19.100  0.00  0.00    +0.000 N 
ATOM      2  C   UNL     1      -0.290  10.793  19.495  0.00  0.00    +0.000 A 
ATOM      3  C   UNL     1      -0.107  11.992  20.211  0.00  0.00    +0.000 A 
ATOM      4  C   UNL     1      -1.337  12.689  20.331  0.00  0.00    +0.000 A 
ATOM      5  C   UNL     1      -1.728  13.882  20.978  0.00  0.00    +0.000 A 
ATOM      6  C   UNL     1      -3.059  14.308  20.917  0.00  0.00    +0.000 A 
ATOM      7  C   UNL     1      -4.002  13.560  20.222  0.00  0.00    +0.000 A 
ATOM      8  C   UNL     1      -3.619  12.398  19.541  0.00  0.00    +0.000 A 
ATOM      9  C   UNL     1      -2.282  11.961  19.626  0.00  0.00    +0.000 A 
ENDROOT
BRANCH   2  10
ATOM     10  C   UNL     1       0.703   9.687  19.230  0.00  0.00    +0.000 A 
ATOM     11  C   UNL     1       1.313   9.440  17.990  0.00  0.00    +0.000 A 
ATOM     12  C   UNL     1       2.180   8.358  17.767  0.00  0.00    +0.000 A 
ATOM     13  C   UNL     1       2.489   7.492  18.798  0.00  0.00    +0.000 A 
ATOM     14  C   UNL     1       1.947   7.716  20.051  0.00  0.00    +0.000 A 
ATOM     15  C   UNL     1       1.067   8.789  20.252  0.00  0.00    +0.000 A 
BRANCH  13  16
ATOM     16  N   UNL     1       3.411   6.433  18.587  0.00  0.00    +0.000 N 
ATOM     17  H   UNL     1       4.127   6.568  17.875  0.00  0.00    +0.000 HD
BRANCH  16  18
ATOM     18  S   UNL     1       2.840   4.850  18.679  0.00  0.00    +0.000 S 
ATOM     19  O   UNL     1       2.806   4.533  20.090  0.00  0.00    +0.000 OA
ATOM     20  O   UNL     1       1.658   4.728  17.859  0.00  0.00    +0.000 OA
BRANCH  18  21
ATOM     21  C   UNL     1       4.180   3.886  17.931  0.00  0.00    +0.000 C 
ATOM     22  C   UNL     1       3.802   2.416  17.775  0.00  0.00    +0.000 C 
ATOM     23  C   UNL     1       4.545   4.483  16.575  0.00  0.00    +0.000 C 
ENDBRANCH  18  21
ENDBRANCH  16  18
ENDBRANCH  13  16
ENDBRANCH   2  10
BRANCH   1  25
ATOM     24  C   UNL     1      -2.152  10.128  16.783  0.00  0.00    +0.000 C 
ATOM     25  C   UNL     1      -2.380   9.895  18.272  0.00  0.00    +0.000 C 
ENDBRANCH   1  25
BRANCH   3  26
ATOM     26  C   UNL     1       1.093  12.507  20.803  0.00  0.00    +0.000 C 
ATOM     27  N   UNL     1       2.081  12.904  21.268  0.00  0.00    +0.000 NA
ENDBRANCH   3  26
BRANCH   7  28
ATOM     28  O   UNL     1      -5.329  13.871  20.114  0.00  0.00    +0.000 OA
BRANCH  28  29
ATOM     29  C   UNL     1      -6.065  13.815  21.325  0.00  0.00    +0.000 C 
ATOM     30  F   UNL     1      -6.921  14.865  21.365  0.00  0.00    +0.000 F 
ATOM     31  F   UNL     1      -6.825  12.691  21.283  0.00  0.00    +0.000 F 
ENDBRANCH  28  29
ENDBRANCH   7  28
TORSDOF 8
ENDMDL
MODEL 6
REMARK VINA RESULT:      -6.7      5.142      9.696
REMARK  Name = 
REMARK  11 active torsions:
REMARK  status: ('A' for Active; 'I' for Inactive)
REMARK    1  A    between atoms: C_1  and  C_2
REMARK    2  A    between atoms: C_2  and  N_3
REMARK    3  A    between atoms: C_4  and  C_5
REMARK    4  A    between atoms: C_8  and  N_9
REMARK    5  A    between atoms: N_9  and  S_10
REMARK    6  A    between atoms: S_10  and  C_13
REMARK    7  A    between atoms: C_13  and  C_14
REMARK    8  A    between atoms: C_13  and  C_15
REMARK    9  A    between atoms: C_18  and  C_19
REMARK   10  A    between atoms: C_24  and  O_25
REMARK   11  A    between atoms: O_25  and  C_26
REMARK                            x       y       z     vdW  Elec       q    Type
REMARK                         _______ _______ _______ _____ _____    ______ ____
ROOT
ATOM      1  N   UNL     1      -0.019  10.553  21.274  0.00  0.00    +0.000 N 
ATOM      2  C   UNL     1       0.043   9.931  20.011  0.00  0.00    +0.000 A 
ATOM      3  C   UNL     1      -0.999  10.542  19.287  0.00  0.00    +0.000 A 
ATOM      4  C   UNL     1      -1.600  11.571  20.057  0.00  0.00    +0.000 A 
ATOM      5  C   UNL     1      -2.624  12.511  19.806  0.00  0.00    +0.000 A 
ATOM      6  C   UNL     1      -2.990  13.428  20.798  0.00  0.00    +0.000 A 
ATOM      7  C   UNL     1      -2.349  13.418  22.031  0.00  0.00    +0.000 A 
ATOM      8  C   UNL     1      -1.364  12.463  22.306  0.00  0.00    +0.000 A 
ATOM      9  C   UNL     1      -0.981  11.559  21.297  0.00  0.00    +0.000 A 
ENDROOT
BRANCH   2  10
ATOM     10  C   UNL     1       1.028   8.883  19.553  0.00  0.00    +0.000 A 
ATOM     11  C   UNL     1       1.667   8.877  18.303  0.00  0.00    +0.000 A 
ATOM     12  C   UNL     1       2.525   7.845  17.889  0.00  0.00    +0.000 A 
ATOM     13  C   UNL     1       2.796   6.785  18.733  0.00  0.00    +0.000 A 
ATOM     14  C   UNL     1       2.225   6.766  19.993  0.00  0.00    +0.000 A 
ATOM     15  C   UNL     1       1.354   7.793  20.383  0.00  0.00    +0.000 A 
BRANCH  13  16
ATOM     16  N   UNL     1       3.709   5.773  18.336  0.00  0.00    +0.000 N 
ATOM     17  H   UNL     1       4.561   6.069  17.862  0.00  0.00    +0.000 HD
BRANCH  16  18
ATOM     18  S   UNL     1       3.084   4.319  17.759  0.00  0.00    +0.000 S 
ATOM     19  O   UNL     1       1.678   4.568  17.527  0.00  0.00    +0.000 OA
ATOM     20  O   UNL     1       3.937   3.826  16.704  0.00  0.00    +0.000 OA
BRANCH  18  21
ATOM     21  C   UNL     1       3.218   3.217  19.191  0.00  0.00    +0.000 C 
ATOM     22  C   UNL     1       1.906   3.133  19.967  0.00  0.00    +0.000 C 
ATOM     23  C   UNL     1       3.648   1.828  18.729  0.00  0.00    +0.000 C 
ENDBRANCH  18  21
ENDBRANCH  16  18
ENDBRANCH  13  16
ENDBRANCH   2  10
BRANCH   1  25
ATOM     24  C   UNL     1       0.045   9.391  23.462  0.00  0.00    +0.000 C 
ATOM     25  C   UNL     1       0.781  10.274  22.462  0.00  0.00    +0.000 C 
ENDBRANCH   1  25
BRANCH   3  26
ATOM     26  C   UNL     1      -1.444  10.265  17.952  0.00  0.00    +0.000 C 
ATOM     27  N   UNL     1      -1.809  10.012  16.879  0.00  0.00    +0.000 NA
ENDBRANCH   3  26
BRANCH   7  28
ATOM     28  O   UNL     1      -2.614  14.278  23.062  0.00  0.00    +0.000 OA
BRANCH  28  29
ATOM     29  C   UNL     1      -3.841  14.055  23.736  0.00  0.00    +0.000 C 
ATOM     30  F   UNL     1      -3.680  13.028  24.607  0.00  0.00    +0.000 F 
ATOM     31  F   UNL     1      -4.101  15.161  24.477  0.00  0.00    +0.000 F 
ENDBRANCH  28  29
ENDBRANCH   7  28
TORSDOF 8
ENDMDL
MODEL 7
REMARK VINA RESULT:      -6.7      0.838      1.260
REMARK  Name = 
REMARK  11 active torsions:
REMARK  status: ('A' for Active; 'I' for Inactive)
REMARK    1  A    between atoms: C_1  and  C_2
REMARK    2  A    between atoms: C_2  and  N_3
REMARK    3  A    between atoms: C_4  and  C_5
REMARK    4  A    between atoms: C_8  and  N_9
REMARK    5  A    between atoms: N_9  and  S_10
REMARK    6  A    between atoms: S_10  and  C_13
REMARK    7  A    between atoms: C_13  and  C_14
REMARK    8  A    between atoms: C_13  and  C_15
REMARK    9  A    between atoms: C_18  and  C_19
REMARK   10  A    between atoms: C_24  and  O_25
REMARK   11  A    between atoms: O_25  and  C_26
REMARK                            x       y       z     vdW  Elec       q    Type
REMARK                         _______ _______ _______ _____ _____    ______ ____
ROOT
ATOM      1  N   UNL     1       2.760   7.230  18.551  0.00  0.00    +0.000 N 
ATOM      2  C   UNL     1       2.168   6.867  19.777  0.00  0.00    +0.000 A 
ATOM      3  C   UNL     1       2.477   5.499  19.905  0.00  0.00    +0.000 A 
ATOM      4  C   UNL     1       3.317   5.080  18.841  0.00  0.00    +0.000 A 
ATOM      5  C   UNL     1       3.953   3.862  18.517  0.00  0.00    +0.000 A 
ATOM      6  C   UNL     1       4.748   3.771  17.369  0.00  0.00    +0.000 A 
ATOM      7  C   UNL     1       4.917   4.877  16.545  0.00  0.00    +0.000 A 
ATOM      8  C   UNL     1       4.257   6.078  16.832  0.00  0.00    +0.000 A 
ATOM      9  C   UNL     1       3.478   6.171  18.002  0.00  0.00    +0.000 A 
ENDROOT
BRANCH   2  10
ATOM     10  C   UNL     1       1.412   7.761  20.731  0.00  0.00    +0.000 A 
ATOM     11  C   UNL     1       2.008   8.670  21.619  0.00  0.00    +0.000 A 
ATOM     12  C   UNL     1       1.272   9.434  22.538  0.00  0.00    +0.000 A 
ATOM     13  C   UNL     1      -0.105   9.332  22.581  0.00  0.00    +0.000 A 
ATOM     14  C   UNL     1      -0.745   8.483  21.697  0.00  0.00    +0.000 A 
ATOM     15  C   UNL     1       0.006   7.711  20.799  0.00  0.00    +0.000 A 
BRANCH  13  16
ATOM     16  N   UNL     1      -0.853  10.149  23.470  0.00  0.00    +0.000 N 
ATOM     17  H   UNL     1      -1.515   9.685  24.090  0.00  0.00    +0.000 HD
BRANCH  16  18
ATOM     18  S   UNL     1      -1.383  11.650  22.917  0.00  0.00    +0.000 S 
ATOM     19  O   UNL     1      -2.815  11.654  23.123  0.00  0.00    +0.000 OA
ATOM     20  O   UNL     1      -0.546  12.681  23.481  0.00  0.00    +0.000 OA
BRANCH  18  21
ATOM     21  C   UNL     1      -1.084  11.559  21.131  0.00  0.00    +0.000 C 
ATOM     22  C   UNL     1      -2.283  12.059  20.330  0.00  0.00    +0.000 C 
ATOM     23  C   UNL     1       0.160  12.367  20.779  0.00  0.00    +0.000 C 
ENDBRANCH  18  21
ENDBRANCH  16  18
ENDBRANCH  13  16
ENDBRANCH   2  10
BRANCH   1  25
ATOM     24  C   UNL     1       1.283   9.001  17.645  0.00  0.00    +0.000 C 
ATOM     25  C   UNL     1       2.711   8.518  17.867  0.00  0.00    +0.000 C 
ENDBRANCH   1  25
BRANCH   3  26
ATOM     26  C   UNL     1       2.083   4.584  20.936  0.00  0.00    +0.000 C 
ATOM     27  N   UNL     1       1.758   3.867  21.790  0.00  0.00    +0.000 NA
ENDBRANCH   3  26
BRANCH   7  28
ATOM     28  O   UNL     1       5.684   4.906  15.413  0.00  0.00    +0.000 OA
BRANCH  28  29
ATOM     29  C   UNL     1       7.085   4.906  15.632  0.00  0.00    +0.000 C 
ATOM     30  F   UNL     1       7.710   5.160  14.456  0.00  0.00    +0.000 F 
ATOM     31  F   UNL     1       7.364   5.947  16.456  0.00  0.00    +0.000 F 
ENDBRANCH  28  29
ENDBRANCH   7  28
TORSDOF 8
ENDMDL
MODEL 8
REMARK VINA RESULT:      -6.7      5.055      9.407
REMARK  Name = 
REMARK  11 active torsions:
REMARK  status: ('A' for Active; 'I' for Inactive)
REMARK    1  A    between atoms: C_1  and  C_2
REMARK    2  A    between atoms: C_2  and  N_3
REMARK    3  A    between atoms: C_4  and  C_5
REMARK    4  A    between atoms: C_8  and  N_9
REMARK    5  A    between atoms: N_9  and  S_10
REMARK    6  A    between atoms: S_10  and  C_13
REMARK    7  A    between atoms: C_13  and  C_14
REMARK    8  A    between atoms: C_13  and  C_15
REMARK    9  A    between atoms: C_18  and  C_19
REMARK   10  A    between atoms: C_24  and  O_25
REMARK   11  A    between atoms: O_25  and  C_26
REMARK                            x       y       z     vdW  Elec       q    Type
REMARK                         _______ _______ _______ _____ _____    ______ ____
ROOT
ATOM      1  N   UNL     1      -0.805  11.005  19.626  0.00  0.00    +0.000 N 
ATOM      2  C   UNL     1      -0.016  10.125  20.394  0.00  0.00    +0.000 A 
ATOM      3  C   UNL     1      -0.351  10.449  21.723  0.00  0.00    +0.000 A 
ATOM      4  C   UNL     1      -1.386  11.420  21.749  0.00  0.00    +0.000 A 
ATOM      5  C   UNL     1      -2.118  12.043  22.784  0.00  0.00    +0.000 A 
ATOM      6  C   UNL     1      -3.110  12.979  22.473  0.00  0.00    +0.000 A 
ATOM      7  C   UNL     1      -3.380  13.299  21.148  0.00  0.00    +0.000 A 
ATOM      8  C   UNL     1      -2.632  12.720  20.116  0.00  0.00    +0.000 A 
ATOM      9  C   UNL     1      -1.651  11.760  20.433  0.00  0.00    +0.000 A 
ENDROOT
BRANCH   2  10
ATOM     10  C   UNL     1       0.935   9.067  19.887  0.00  0.00    +0.000 A 
ATOM     11  C   UNL     1       1.565   9.092  18.633  0.00  0.00    +0.000 A 
ATOM     12  C   UNL     1       2.390   8.054  18.173  0.00  0.00    +0.000 A 
ATOM     13  C   UNL     1       2.636   6.954  18.972  0.00  0.00    +0.000 A 
ATOM     14  C   UNL     1       2.073   6.902  20.234  0.00  0.00    +0.000 A 
ATOM     15  C   UNL     1       1.235   7.937  20.672  0.00  0.00    +0.000 A 
BRANCH  13  16
ATOM     16  N   UNL     1       3.517   5.933  18.529  0.00  0.00    +0.000 N 
ATOM     17  H   UNL     1       4.310   6.213  17.954  0.00  0.00    +0.000 HD
BRANCH  16  18
ATOM     18  S   UNL     1       2.856   4.447  18.090  0.00  0.00    +0.000 S 
ATOM     19  O   UNL     1       1.515   4.740  17.634  0.00  0.00    +0.000 OA
ATOM     20  O   UNL     1       3.794   3.745  17.247  0.00  0.00    +0.000 OA
BRANCH  18  21
ATOM     21  C   UNL     1       2.719   3.575  19.674  0.00  0.00    +0.000 C 
ATOM     22  C   UNL     1       1.315   3.019  19.895  0.00  0.00    +0.000 C 
ATOM     23  C   UNL     1       3.747   2.448  19.728  0.00  0.00    +0.000 C 
ENDBRANCH  18  21
ENDBRANCH  16  18
ENDBRANCH  13  16
ENDBRANCH   2  10
BRANCH   1  25
ATOM     24  C   UNL     1      -1.773  10.188  17.497  0.00  0.00    +0.000 C 
ATOM     25  C   UNL     1      -0.828  11.171  18.177  0.00  0.00    +0.000 C 
ENDBRANCH   1  25
BRANCH   3  26
ATOM     26  C   UNL     1       0.185   9.911  22.939  0.00  0.00    +0.000 C 
ATOM     27  N   UNL     1       0.606   9.499  23.940  0.00  0.00    +0.000 NA
ENDBRANCH   3  26
BRANCH   7  28
ATOM     28  O   UNL     1      -4.338  14.182  20.731  0.00  0.00    +0.000 OA
BRANCH  28  29
ATOM     29  C   UNL     1      -4.061  15.546  21.003  0.00  0.00    +0.000 C 
ATOM     30  F   UNL     1      -4.400  15.812  22.289  0.00  0.00    +0.000 F 
ATOM     31  F   UNL     1      -2.718  15.712  20.910  0.00  0.00    +0.000 F 
ENDBRANCH  28  29
ENDBRANCH   7  28
TORSDOF 8
ENDMDL
MODEL 9
REMARK VINA RESULT:      -6.7      4.932      9.267
REMARK  Name = 
REMARK  11 active torsions:
REMARK  status: ('A' for Active; 'I' for Inactive)
REMARK    1  A    between atoms: C_1  and  C_2
REMARK    2  A    between atoms: C_2  and  N_3
REMARK    3  A    between atoms: C_4  and  C_5
REMARK    4  A    between atoms: C_8  and  N_9
REMARK    5  A    between atoms: N_9  and  S_10
REMARK    6  A    between atoms: S_10  and  C_13
REMARK    7  A    between atoms: C_13  and  C_14
REMARK    8  A    between atoms: C_13  and  C_15
REMARK    9  A    between atoms: C_18  and  C_19
REMARK   10  A    between atoms: C_24  and  O_25
REMARK   11  A    between atoms: O_25  and  C_26
REMARK                            x       y       z     vdW  Elec       q    Type
REMARK                         _______ _______ _______ _____ _____    ______ ____
ROOT
ATOM      1  N   UNL     1      -0.881  10.915  19.625  0.00  0.00    +0.000 N 
ATOM      2  C   UNL     1      -0.076  10.046  20.389  0.00  0.00    +0.000 A 
ATOM      3  C   UNL     1      -0.378  10.395  21.719  0.00  0.00    +0.000 A 
ATOM      4  C   UNL     1      -1.409  11.369  21.754  0.00  0.00    +0.000 A 
ATOM      5  C   UNL     1      -2.115  12.013  22.795  0.00  0.00    +0.000 A 
ATOM      6  C   UNL     1      -3.111  12.947  22.491  0.00  0.00    +0.000 A 
ATOM      7  C   UNL     1      -3.412  13.243  21.168  0.00  0.00    +0.000 A 
ATOM      8  C   UNL     1      -2.691  12.645  20.128  0.00  0.00    +0.000 A 
ATOM      9  C   UNL     1      -1.706  11.687  20.438  0.00  0.00    +0.000 A 
ENDROOT
BRANCH   2  10
ATOM     10  C   UNL     1       0.859   8.976  19.879  0.00  0.00    +0.000 A 
ATOM     11  C   UNL     1       1.221   7.823  20.592  0.00  0.00    +0.000 A 
ATOM     12  C   UNL     1       2.148   6.886  20.109  0.00  0.00    +0.000 A 
ATOM     13  C   UNL     1       2.731   7.061  18.869  0.00  0.00    +0.000 A 
ATOM     14  C   UNL     1       2.376   8.159  18.108  0.00  0.00    +0.000 A 
ATOM     15  C   UNL     1       1.464   9.097  18.613  0.00  0.00    +0.000 A 
BRANCH  13  16
ATOM     16  N   UNL     1       3.624   6.082  18.356  0.00  0.00    +0.000 N 
ATOM     17  H   UNL     1       4.368   6.402  17.739  0.00  0.00    +0.000 HD
BRANCH  16  18
ATOM     18  S   UNL     1       2.997   4.576  17.935  0.00  0.00    +0.000 S 
ATOM     19  O   UNL     1       1.600   4.808  17.639  0.00  0.00    +0.000 OA
ATOM     20  O   UNL     1       3.870   3.957  16.967  0.00  0.00    +0.000 OA
BRANCH  18  21
ATOM     21  C   UNL     1       3.083   3.646  19.488  0.00  0.00    +0.000 C 
ATOM     22  C   UNL     1       1.946   2.635  19.607  0.00  0.00    +0.000 C 
ATOM     23  C   UNL     1       4.430   2.937  19.586  0.00  0.00    +0.000 C 
ENDBRANCH  18  21
ENDBRANCH  16  18
ENDBRANCH  13  16
ENDBRANCH   2  10
BRANCH   1  25
ATOM     24  C   UNL     1      -1.900  10.060  17.535  0.00  0.00    +0.000 C 
ATOM     25  C   UNL     1      -0.939  11.055  18.174  0.00  0.00    +0.000 C 
ENDBRANCH   1  25
BRANCH   3  26
ATOM     26  C   UNL     1       0.186   9.877  22.932  0.00  0.00    +0.000 C 
ATOM     27  N   UNL     1       0.671   9.470  23.906  0.00  0.00    +0.000 NA
ENDBRANCH   3  26
BRANCH   7  28
ATOM     28  O   UNL     1      -4.377  14.123  20.758  0.00  0.00    +0.000 OA
BRANCH  28  29
ATOM     29  C   UNL     1      -5.609  13.534  20.375  0.00  0.00    +0.000 C 
ATOM     30  F   UNL     1      -5.612  13.366  19.030  0.00  0.00    +0.000 F 
ATOM     31  F   UNL     1      -5.651  12.294  20.924  0.00  0.00    +0.000 F 
ENDBRANCH  28  29
ENDBRANCH   7  28
TORSDOF 8
ENDMDL
