MODEL 1
REMARK VINA RESULT:      -7.8      0.000      0.000
REMARK  Name = 
REMARK  9 active torsions:
REMARK  status: ('A' for Active; 'I' for Inactive)
REMARK    1  A    between atoms: C_1  and  C_2
REMARK    2  A    between atoms: C_6  and  C_7
REMARK    3  A    between atoms: C_10  and  S_11
REMARK    4  A    between atoms: S_11  and  C_12
REMARK    5  A    between atoms: C_12  and  C_13
REMARK    6  A    between atoms: N_15  and  C_16
REMARK    7  A    between atoms: C_16  and  C_17
REMARK    8  A    between atoms: N_22  and  C_23
REMARK    9  A    between atoms: C_23  and  C_24
REMARK                            x       y       z     vdW  Elec       q    Type
REMARK                         _______ _______ _______ _____ _____    ______ ____
ROOT
ATOM      1  C   UNL     1       4.026   4.046  18.944  0.00  0.00    +0.000 A 
ATOM      2  N   UNL     1       5.028   3.443  19.556  0.00  0.00    +0.000 NA
ATOM      3  N   UNL     1       6.203   3.972  19.100  0.00  0.00    +0.000 NA
ATOM      4  C   UNL     1       5.907   4.905  18.227  0.00  0.00    +0.000 A 
ATOM      5  N   UNL     1       4.548   5.096  18.187  0.00  0.00    +0.000 N 
ENDROOT
BRANCH   1  11
ATOM      6  C   UNL     1       2.225   3.711  21.689  0.00  0.00    +0.000 C 
ATOM      7  C   UNL     1       1.920   3.435  20.268  0.00  0.00    +0.000 A 
ATOM      8  O   UNL     1       0.672   2.928  20.043  0.00  0.00    +0.000 OA
ATOM      9  C   UNL     1       0.557   2.718  18.712  0.00  0.00    +0.000 A 
ATOM     10  C   UNL     1       1.709   3.104  18.068  0.00  0.00    +0.000 A 
ATOM     11  C   UNL     1       2.606   3.564  19.067  0.00  0.00    +0.000 A 
ENDBRANCH   1  11
BRANCH   4  12
ATOM     12  S   UNL     1       7.068   5.682  17.213  0.00  0.00    +0.000 S 
BRANCH  12  13
ATOM     13  C   UNL     1       7.879   6.823  18.367  0.00  0.00    +0.000 C 
BRANCH  13  14
ATOM     14  C   UNL     1       7.801   8.268  17.874  0.00  0.00    +0.000 C 
ATOM     15  O   UNL     1       7.021   8.676  17.019  0.00  0.00    +0.000 OA
ATOM     16  N   UNL     1       8.689   9.114  18.515  0.00  0.00    +0.000 N 
ATOM     17  H   UNL     1       9.431   8.719  19.080  0.00  0.00    +0.000 HD
BRANCH  16  18
ATOM     18  C   UNL     1       8.841  10.487  18.082  0.00  0.00    +0.000 C 
BRANCH  18  19
ATOM     19  C   UNL     1       9.867  11.156  18.940  0.00  0.00    +0.000 A 
ATOM     20  C   UNL     1       9.823  11.387  20.302  0.00  0.00    +0.000 A 
ATOM     21  C   UNL     1      10.972  12.083  20.775  0.00  0.00    +0.000 A 
ATOM     22  C   UNL     1      11.860  12.358  19.760  0.00  0.00    +0.000 A 
ATOM     23  S   UNL     1      11.311  11.772  18.250  0.00  0.00    +0.000 S 
ENDBRANCH  18  19
ENDBRANCH  16  18
ENDBRANCH  13  14
ENDBRANCH  12  13
ENDBRANCH   4  12
BRANCH   5  24
ATOM     24  C   UNL     1       3.741   6.094  17.526  0.00  0.00    +0.000 C 
BRANCH  24  25
ATOM     25  C   UNL     1       3.312   7.414  18.182  0.00  0.00    +0.000 C 
ATOM     26  C   UNL     1       2.292   7.323  19.306  0.00  0.00    +0.000 C 
ATOM     27  C   UNL     1       1.632   8.682  19.270  0.00  0.00    +0.000 C 
ATOM     28  C   UNL     1       1.732   9.101  17.818  0.00  0.00    +0.000 C 
ATOM     29  O   UNL     1       2.636   8.198  17.167  0.00  0.00    +0.000 OA
ENDBRANCH  24  25
ENDBRANCH   5  24
TORSDOF 8
ENDMDL
MODEL 2
REMARK VINA RESULT:      -7.5      3.540      7.152
REMARK  Name = 
REMARK  9 active torsions:
REMARK  status: ('A' for Active; 'I' for Inactive)
REMARK    1  A    between atoms: C_1  and  C_2
REMARK    2  A    between atoms: C_6  and  C_7
REMARK    3  A    between atoms: C_10  and  S_11
REMARK    4  A    between atoms: S_11  and  C_12
REMARK    5  A    between atoms: C_12  and  C_13
REMARK    6  A    between atoms: N_15  and  C_16
REMARK    7  A    between atoms: C_16  and  C_17
REMARK    8  A    between atoms: N_22  and  C_23
REMARK    9  A    between atoms: C_23  and  C_24
REMARK                            x       y       z     vdW  Elec       q    Type
REMARK                         _______ _______ _______ _____ _____    ______ ____
ROOT
ATOM      1  C   UNL     1       5.782   4.769  18.362  0.00  0.00    +0.000 A 
ATOM      2  N   UNL     1       5.767   4.198  19.552  0.00  0.00    +0.000 NA
ATOM      3  N   UNL     1       4.841   3.191  19.543  0.00  0.00    +0.000 NA
ATOM      4  C   UNL     1       4.314   3.146  18.343  0.00  0.00    +0.000 A 
ATOM      5  N   UNL     1       4.964   4.024  17.512  0.00  0.00    +0.000 N 
ENDROOT
BRANCH   1  11
ATOM      6  C   UNL     1       4.845   7.353  16.537  0.00  0.00    +0.000 C 
ATOM      7  C   UNL     1       6.084   7.078  17.296  0.00  0.00    +0.000 A 
ATOM      8  O   UNL     1       7.030   8.060  17.214  0.00  0.00    +0.000 OA
ATOM      9  C   UNL     1       8.095   7.653  17.941  0.00  0.00    +0.000 A 
ATOM     10  C   UNL     1       7.843   6.427  18.512  0.00  0.00    +0.000 A 
ATOM     11  C   UNL     1       6.543   6.038  18.094  0.00  0.00    +0.000 A 
ENDBRANCH   1  11
BRANCH   4  12
ATOM     12  S   UNL     1       2.934   2.194  17.931  0.00  0.00    +0.000 S 
BRANCH  12  13
ATOM     13  C   UNL     1       1.610   3.435  17.904  0.00  0.00    +0.000 C 
BRANCH  13  14
ATOM     14  C   UNL     1       1.612   4.285  19.175  0.00  0.00    +0.000 C 
ATOM     15  O   UNL     1       1.088   3.961  20.236  0.00  0.00    +0.000 OA
ATOM     16  N   UNL     1       2.306   5.475  19.036  0.00  0.00    +0.000 N 
ATOM     17  H   UNL     1       2.571   5.790  18.111  0.00  0.00    +0.000 HD
BRANCH  16  18
ATOM     18  C   UNL     1       2.299   6.459  20.097  0.00  0.00    +0.000 C 
BRANCH  18  19
ATOM     19  C   UNL     1       1.869   7.776  19.536  0.00  0.00    +0.000 A 
ATOM     20  C   UNL     1       2.043   8.256  18.251  0.00  0.00    +0.000 A 
ATOM     21  C   UNL     1       1.528   9.574  18.087  0.00  0.00    +0.000 A 
ATOM     22  C   UNL     1       0.973  10.057  19.250  0.00  0.00    +0.000 A 
ATOM     23  S   UNL     1       1.068   8.924  20.527  0.00  0.00    +0.000 S 
ENDBRANCH  18  19
ENDBRANCH  16  18
ENDBRANCH  13  14
ENDBRANCH  12  13
ENDBRANCH   4  12
BRANCH   5  24
ATOM     24  C   UNL     1       4.876   4.234  16.086  0.00  0.00    +0.000 C 
BRANCH  24  25
ATOM     25  C   UNL     1       5.998   3.873  15.101  0.00  0.00    +0.000 C 
ATOM     26  C   UNL     1       6.947   4.990  14.701  0.00  0.00    +0.000 C 
ATOM     27  C   UNL     1       7.443   4.539  13.347  0.00  0.00    +0.000 C 
ATOM     28  C   UNL     1       6.294   3.728  12.785  0.00  0.00    +0.000 C 
ATOM     29  O   UNL     1       5.366   3.493  13.853  0.00  0.00    +0.000 OA
ENDBRANCH  24  25
ENDBRANCH   5  24
TORSDOF 8
ENDMDL
MODEL 3
REMARK VINA RESULT:      -7.5      3.707      7.065
REMARK  Name = 
REMARK  9 active torsions:
REMARK  status: ('A' for Active; 'I' for Inactive)
REMARK    1  A    between atoms: C_1  and  C_2
REMARK    2  A    between atoms: C_6  and  C_7
REMARK    3  A    between atoms: C_10  and  S_11
REMARK    4  A    between atoms: S_11  and  C_12
REMARK    5  A    between atoms: C_12  and  C_13
REMARK    6  A    between atoms: N_15  and  C_16
REMARK    7  A    between atoms: C_16  and  C_17
REMARK    8  A    between atoms: N_22  and  C_23
REMARK    9  A    between atoms: C_23  and  C_24
REMARK                            x       y       z     vdW  Elec       q    Type
REMARK                         _______ _______ _______ _____ _____    ______ ____
ROOT
ATOM      1  C   UNL     1       5.805   4.659  18.318  0.00  0.00    +0.000 A 
ATOM      2  N   UNL     1       5.745   4.013  19.468  0.00  0.00    +0.000 NA
ATOM      3  N   UNL     1       4.759   3.068  19.389  0.00  0.00    +0.000 NA
ATOM      4  C   UNL     1       4.241   3.134  18.186  0.00  0.00    +0.000 A 
ATOM      5  N   UNL     1       4.951   4.022  17.417  0.00  0.00    +0.000 N 
ENDROOT
BRANCH   1  11
ATOM      6  C   UNL     1       8.518   5.533  19.981  0.00  0.00    +0.000 C 
ATOM      7  C   UNL     1       7.770   6.199  18.893  0.00  0.00    +0.000 A 
ATOM      8  O   UNL     1       8.275   7.410  18.515  0.00  0.00    +0.000 OA
ATOM      9  C   UNL     1       7.478   7.889  17.533  0.00  0.00    +0.000 A 
ATOM     10  C   UNL     1       6.473   6.992  17.255  0.00  0.00    +0.000 A 
ATOM     11  C   UNL     1       6.645   5.893  18.137  0.00  0.00    +0.000 A 
ENDBRANCH   1  11
BRANCH   4  12
ATOM     12  S   UNL     1       2.810   2.298  17.705  0.00  0.00    +0.000 S 
BRANCH  12  13
ATOM     13  C   UNL     1       1.573   3.627  17.708  0.00  0.00    +0.000 C 
BRANCH  13  14
ATOM     14  C   UNL     1       1.660   4.470  18.981  0.00  0.00    +0.000 C 
ATOM     15  O   UNL     1       1.269   4.111  20.087  0.00  0.00    +0.000 OA
ATOM     16  N   UNL     1       2.266   5.698  18.783  0.00  0.00    +0.000 N 
ATOM     17  H   UNL     1       2.415   6.032  17.839  0.00  0.00    +0.000 HD
BRANCH  16  18
ATOM     18  C   UNL     1       2.314   6.675  19.849  0.00  0.00    +0.000 C 
BRANCH  18  19
ATOM     19  C   UNL     1       1.957   8.017  19.295  0.00  0.00    +0.000 A 
ATOM     20  C   UNL     1       2.277   8.543  18.057  0.00  0.00    +0.000 A 
ATOM     21  C   UNL     1       1.791   9.872  17.888  0.00  0.00    +0.000 A 
ATOM     22  C   UNL     1       1.113  10.317  19.000  0.00  0.00    +0.000 A 
ATOM     23  S   UNL     1       1.058   9.135  20.234  0.00  0.00    +0.000 S 
ENDBRANCH  18  19
ENDBRANCH  16  18
ENDBRANCH  13  14
ENDBRANCH  12  13
ENDBRANCH   4  12
BRANCH   5  24
ATOM     24  C   UNL     1       4.889   4.330  16.008  0.00  0.00    +0.000 C 
BRANCH  24  25
ATOM     25  C   UNL     1       5.966   3.911  14.996  0.00  0.00    +0.000 C 
ATOM     26  C   UNL     1       6.967   4.976  14.578  0.00  0.00    +0.000 C 
ATOM     27  C   UNL     1       7.407   4.504  13.212  0.00  0.00    +0.000 C 
ATOM     28  C   UNL     1       6.202   3.762  12.673  0.00  0.00    +0.000 C 
ATOM     29  O   UNL     1       5.286   3.574  13.761  0.00  0.00    +0.000 OA
ENDBRANCH  24  25
ENDBRANCH   5  24
TORSDOF 8
ENDMDL
MODEL 4
REMARK VINA RESULT:      -7.3      0.592      1.173
REMARK  Name = 
REMARK  9 active torsions:
REMARK  status: ('A' for Active; 'I' for Inactive)
REMARK    1  A    between atoms: C_1  and  C_2
REMARK    2  A    between atoms: C_6  and  C_7
REMARK    3  A    between atoms: C_10  and  S_11
REMARK    4  A    between atoms: S_11  and  C_12
REMARK    5  A    between atoms: C_12  and  C_13
REMARK    6  A    between atoms: N_15  and  C_16
REMARK    7  A    between atoms: C_16  and  C_17
REMARK    8  A    between atoms: N_22  and  C_23
REMARK    9  A    between atoms: C_23  and  C_24
REMARK                            x       y       z     vdW  Elec       q    Type
REMARK                         _______ _______ _______ _____ _____    ______ ____
ROOT
ATOM      1  C   UNL     1       4.111   4.382  19.283  0.00  0.00    +0.000 A 
ATOM      2  N   UNL     1       5.217   3.872  19.791  0.00  0.00    +0.000 NA
ATOM      3  N   UNL     1       6.291   4.451  19.172  0.00  0.00    +0.000 NA
ATOM      4  C   UNL     1       5.829   5.322  18.306  0.00  0.00    +0.000 A 
ATOM      5  N   UNL     1       4.465   5.425  18.428  0.00  0.00    +0.000 N 
ENDROOT
BRANCH   1  11
ATOM      6  C   UNL     1       2.337   2.234  17.513  0.00  0.00    +0.000 C 
ATOM      7  C   UNL     1       2.061   2.927  18.791  0.00  0.00    +0.000 A 
ATOM      8  O   UNL     1       0.839   2.649  19.335  0.00  0.00    +0.000 OA
ATOM      9  C   UNL     1       0.736   3.365  20.478  0.00  0.00    +0.000 A 
ATOM     10  C   UNL     1       1.886   4.087  20.693  0.00  0.00    +0.000 A 
ATOM     11  C   UNL     1       2.752   3.819  19.600  0.00  0.00    +0.000 A 
ENDBRANCH   1  11
BRANCH   4  12
ATOM     12  S   UNL     1       6.803   6.120  17.127  0.00  0.00    +0.000 S 
BRANCH  12  13
ATOM     13  C   UNL     1       7.931   7.096  18.162  0.00  0.00    +0.000 C 
BRANCH  13  14
ATOM     14  C   UNL     1       7.854   8.585  17.825  0.00  0.00    +0.000 C 
ATOM     15  O   UNL     1       6.992   9.100  17.120  0.00  0.00    +0.000 OA
ATOM     16  N   UNL     1       8.851   9.334  18.425  0.00  0.00    +0.000 N 
ATOM     17  H   UNL     1       9.640   8.861  18.849  0.00  0.00    +0.000 HD
BRANCH  16  18
ATOM     18  C   UNL     1       9.007  10.738  18.111  0.00  0.00    +0.000 C 
BRANCH  18  19
ATOM     19  C   UNL     1      10.133  11.295  18.921  0.00  0.00    +0.000 A 
ATOM     20  C   UNL     1      10.130  11.654  20.256  0.00  0.00    +0.000 A 
ATOM     21  C   UNL     1      11.383  12.181  20.683  0.00  0.00    +0.000 A 
ATOM     22  C   UNL     1      12.306  12.203  19.661  0.00  0.00    +0.000 A 
ATOM     23  S   UNL     1      11.663  11.585  18.202  0.00  0.00    +0.000 S 
ENDBRANCH  18  19
ENDBRANCH  16  18
ENDBRANCH  13  14
ENDBRANCH  12  13
ENDBRANCH   4  12
BRANCH   5  24
ATOM     24  C   UNL     1       3.519   6.339  17.833  0.00  0.00    +0.000 C 
BRANCH  24  25
ATOM     25  C   UNL     1       3.083   7.659  18.485  0.00  0.00    +0.000 C 
ATOM     26  C   UNL     1       2.043   7.569  19.590  0.00  0.00    +0.000 C 
ATOM     27  C   UNL     1       1.388   8.930  19.546  0.00  0.00    +0.000 C 
ATOM     28  C   UNL     1       1.516   9.353  18.098  0.00  0.00    +0.000 C 
ATOM     29  O   UNL     1       2.429   8.448  17.461  0.00  0.00    +0.000 OA
ENDBRANCH  24  25
ENDBRANCH   5  24
TORSDOF 8
ENDMDL
MODEL 5
REMARK VINA RESULT:      -7.3      4.129      7.858
REMARK  Name = 
REMARK  9 active torsions:
REMARK  status: ('A' for Active; 'I' for Inactive)
REMARK    1  A    between atoms: C_1  and  C_2
REMARK    2  A    between atoms: C_6  and  C_7
REMARK    3  A    between atoms: C_10  and  S_11
REMARK    4  A    between atoms: S_11  and  C_12
REMARK    5  A    between atoms: C_12  and  C_13
REMARK    6  A    between atoms: N_15  and  C_16
REMARK    7  A    between atoms: C_16  and  C_17
REMARK    8  A    between atoms: N_22  and  C_23
REMARK    9  A    between atoms: C_23  and  C_24
REMARK                            x       y       z     vdW  Elec       q    Type
REMARK                         _______ _______ _______ _____ _____    ______ ____
ROOT
ATOM      1  C   UNL     1       4.224   6.463  17.780  0.00  0.00    +0.000 A 
ATOM      2  N   UNL     1       3.799   7.637  17.353  0.00  0.00    +0.000 NA
ATOM      3  N   UNL     1       2.780   8.056  18.164  0.00  0.00    +0.000 NA
ATOM      4  C   UNL     1       2.606   7.142  19.089  0.00  0.00    +0.000 A 
ATOM      5  N   UNL     1       3.578   6.178  18.984  0.00  0.00    +0.000 N 
ENDROOT
BRANCH   1  11
ATOM      6  C   UNL     1       7.473   6.925  17.439  0.00  0.00    +0.000 C 
ATOM      7  C   UNL     1       6.558   5.902  16.886  0.00  0.00    +0.000 A 
ATOM      8  O   UNL     1       7.155   4.990  16.063  0.00  0.00    +0.000 OA
ATOM      9  C   UNL     1       6.191   4.145  15.634  0.00  0.00    +0.000 A 
ATOM     10  C   UNL     1       4.978   4.485  16.185  0.00  0.00    +0.000 A 
ATOM     11  C   UNL     1       5.200   5.631  16.994  0.00  0.00    +0.000 A 
ENDBRANCH   1  11
BRANCH   4  12
ATOM     12  S   UNL     1       1.276   7.123  20.189  0.00  0.00    +0.000 S 
BRANCH  12  13
ATOM     13  C   UNL     1       1.806   8.318  21.448  0.00  0.00    +0.000 C 
BRANCH  13  14
ATOM     14  C   UNL     1       0.856   9.514  21.520  0.00  0.00    +0.000 C 
ATOM     15  O   UNL     1       0.426  10.006  22.558  0.00  0.00    +0.000 OA
ATOM     16  N   UNL     1       0.537  10.034  20.277  0.00  0.00    +0.000 N 
ATOM     17  H   UNL     1       0.762   9.504  19.444  0.00  0.00    +0.000 HD
BRANCH  16  18
ATOM     18  C   UNL     1      -0.452  11.084  20.151  0.00  0.00    +0.000 C 
BRANCH  18  19
ATOM     19  C   UNL     1      -1.278  10.829  18.932  0.00  0.00    +0.000 A 
ATOM     20  C   UNL     1      -1.026   9.948  17.897  0.00  0.00    +0.000 A 
ATOM     21  C   UNL     1      -2.024   9.998  16.882  0.00  0.00    +0.000 A 
ATOM     22  C   UNL     1      -3.010  10.913  17.176  0.00  0.00    +0.000 A 
ATOM     23  S   UNL     1      -2.733  11.698  18.670  0.00  0.00    +0.000 S 
ENDBRANCH  18  19
ENDBRANCH  16  18
ENDBRANCH  13  14
ENDBRANCH  12  13
ENDBRANCH   4  12
BRANCH   5  24
ATOM     24  C   UNL     1       3.921   5.068  19.842  0.00  0.00    +0.000 C 
BRANCH  24  25
ATOM     25  C   UNL     1       3.110   3.766  19.917  0.00  0.00    +0.000 C 
ATOM     26  C   UNL     1       1.996   3.591  18.898  0.00  0.00    +0.000 C 
ATOM     27  C   UNL     1       1.048   2.643  19.597  0.00  0.00    +0.000 C 
ATOM     28  C   UNL     1       1.246   2.945  21.068  0.00  0.00    +0.000 C 
ATOM     29  O   UNL     1       2.416   3.765  21.189  0.00  0.00    +0.000 OA
ENDBRANCH  24  25
ENDBRANCH   5  24
TORSDOF 8
ENDMDL
MODEL 6
REMARK VINA RESULT:      -7.0      4.484      7.953
REMARK  Name = 
REMARK  9 active torsions:
REMARK  status: ('A' for Active; 'I' for Inactive)
REMARK    1  A    between atoms: C_1  and  C_2
REMARK    2  A    between atoms: C_6  and  C_7
REMARK    3  A    between atoms: C_10  and  S_11
REMARK    4  A    between atoms: S_11  and  C_12
REMARK    5  A    between atoms: C_12  and  C_13
REMARK    6  A    between atoms: N_15  and  C_16
REMARK    7  A    between atoms: C_16  and  C_17
REMARK    8  A    between atoms: N_22  and  C_23
REMARK    9  A    between atoms: C_23  and  C_24
REMARK                            x       y       z     vdW  Elec       q    Type
REMARK                         _______ _______ _______ _____ _____    ______ ____
ROOT
ATOM      1  C   UNL     1       4.476   6.353  17.571  0.00  0.00    +0.000 A 
ATOM      2  N   UNL     1       4.082   7.534  17.132  0.00  0.00    +0.000 NA
ATOM      3  N   UNL     1       3.104   8.006  17.964  0.00  0.00    +0.000 NA
ATOM      4  C   UNL     1       2.923   7.118  18.911  0.00  0.00    +0.000 A 
ATOM      5  N   UNL     1       3.856   6.116  18.799  0.00  0.00    +0.000 N 
ENDROOT
BRANCH   1  11
ATOM      6  C   UNL     1       7.618   5.583  18.222  0.00  0.00    +0.000 C 
ATOM      7  C   UNL     1       6.719   5.207  17.108  0.00  0.00    +0.000 A 
ATOM      8  O   UNL     1       7.295   4.413  16.157  0.00  0.00    +0.000 OA
ATOM      9  C   UNL     1       6.358   4.176  15.212  0.00  0.00    +0.000 A 
ATOM     10  C   UNL     1       5.174   4.790  15.549  0.00  0.00    +0.000 A 
ATOM     11  C   UNL     1       5.397   5.471  16.774  0.00  0.00    +0.000 A 
ENDBRANCH   1  11
BRANCH   4  12
ATOM     12  S   UNL     1       1.627   7.169  20.049  0.00  0.00    +0.000 S 
BRANCH  12  13
ATOM     13  C   UNL     1       1.243   8.942  20.110  0.00  0.00    +0.000 C 
BRANCH  13  14
ATOM     14  C   UNL     1       0.949   9.403  21.537  0.00  0.00    +0.000 C 
ATOM     15  O   UNL     1       1.706   9.256  22.491  0.00  0.00    +0.000 OA
ATOM     16  N   UNL     1      -0.267  10.051  21.663  0.00  0.00    +0.000 N 
ATOM     17  H   UNL     1      -0.938  10.000  20.906  0.00  0.00    +0.000 HD
BRANCH  16  18
ATOM     18  C   UNL     1      -0.764  10.438  22.966  0.00  0.00    +0.000 C 
BRANCH  18  19
ATOM     19  C   UNL     1      -1.501  11.732  22.841  0.00  0.00    +0.000 A 
ATOM     20  C   UNL     1      -2.748  12.057  23.340  0.00  0.00    +0.000 A 
ATOM     21  C   UNL     1      -3.146  13.382  22.995  0.00  0.00    +0.000 A 
ATOM     22  C   UNL     1      -2.187  14.028  22.248  0.00  0.00    +0.000 A 
ATOM     23  S   UNL     1      -0.817  13.043  21.972  0.00  0.00    +0.000 S 
ENDBRANCH  18  19
ENDBRANCH  16  18
ENDBRANCH  13  14
ENDBRANCH  12  13
ENDBRANCH   4  12
BRANCH   5  24
ATOM     24  C   UNL     1       4.183   5.011  19.669  0.00  0.00    +0.000 C 
BRANCH  24  25
ATOM     25  C   UNL     1       3.445   3.665  19.651  0.00  0.00    +0.000 C 
ATOM     26  C   UNL     1       2.282   3.531  18.682  0.00  0.00    +0.000 C 
ATOM     27  C   UNL     1       1.428   2.465  19.329  0.00  0.00    +0.000 C 
ATOM     28  C   UNL     1       1.699   2.625  20.810  0.00  0.00    +0.000 C 
ATOM     29  O   UNL     1       2.831   3.495  20.952  0.00  0.00    +0.000 OA
ENDBRANCH  24  25
ENDBRANCH   5  24
TORSDOF 8
ENDMDL
MODEL 7
REMARK VINA RESULT:      -7.0      3.485      7.444
REMARK  Name = 
REMARK  9 active torsions:
REMARK  status: ('A' for Active; 'I' for Inactive)
REMARK    1  A    between atoms: C_1  and  C_2
REMARK    2  A    between atoms: C_6  and  C_7
REMARK    3  A    between atoms: C_10  and  S_11
REMARK    4  A    between atoms: S_11  and  C_12
REMARK    5  A    between atoms: C_12  and  C_13
REMARK    6  A    between atoms: N_15  and  C_16
REMARK    7  A    between atoms: C_16  and  C_17
REMARK    8  A    between atoms: N_22  and  C_23
REMARK    9  A    between atoms: C_23  and  C_24
REMARK                            x       y       z     vdW  Elec       q    Type
REMARK                         _______ _______ _______ _____ _____    ______ ____
ROOT
ATOM      1  C   UNL     1       5.884   4.780  18.228  0.00  0.00    +0.000 A 
ATOM      2  N   UNL     1       5.868   4.158  19.392  0.00  0.00    +0.000 NA
ATOM      3  N   UNL     1       4.959   3.138  19.331  0.00  0.00    +0.000 NA
ATOM      4  C   UNL     1       4.443   3.136  18.125  0.00  0.00    +0.000 A 
ATOM      5  N   UNL     1       5.086   4.059  17.339  0.00  0.00    +0.000 N 
ENDROOT
BRANCH   1  11
ATOM      6  C   UNL     1       5.022   7.340  16.333  0.00  0.00    +0.000 C 
ATOM      7  C   UNL     1       6.204   7.099  17.190  0.00  0.00    +0.000 A 
ATOM      8  O   UNL     1       7.124   8.109  17.184  0.00  0.00    +0.000 OA
ATOM      9  C   UNL     1       8.139   7.731  17.994  0.00  0.00    +0.000 A 
ATOM     10  C   UNL     1       7.878   6.497  18.542  0.00  0.00    +0.000 A 
ATOM     11  C   UNL     1       6.628   6.071  18.021  0.00  0.00    +0.000 A 
ENDBRANCH   1  11
BRANCH   4  12
ATOM     12  S   UNL     1       3.083   2.182  17.659  0.00  0.00    +0.000 S 
BRANCH  12  13
ATOM     13  C   UNL     1       2.380   1.710  19.264  0.00  0.00    +0.000 C 
BRANCH  13  14
ATOM     14  C   UNL     1       1.600   2.863  19.895  0.00  0.00    +0.000 C 
ATOM     15  O   UNL     1       0.385   3.014  19.818  0.00  0.00    +0.000 OA
ATOM     16  N   UNL     1       2.400   3.736  20.613  0.00  0.00    +0.000 N 
ATOM     17  H   UNL     1       3.406   3.685  20.512  0.00  0.00    +0.000 HD
BRANCH  16  18
ATOM     18  C   UNL     1       1.848   4.954  21.167  0.00  0.00    +0.000 C 
BRANCH  18  19
ATOM     19  C   UNL     1       1.980   6.050  20.158  0.00  0.00    +0.000 A 
ATOM     20  C   UNL     1       2.396   5.955  18.843  0.00  0.00    +0.000 A 
ATOM     21  C   UNL     1       2.427   7.221  18.189  0.00  0.00    +0.000 A 
ATOM     22  C   UNL     1       2.029   8.241  19.023  0.00  0.00    +0.000 A 
ATOM     23  S   UNL     1       1.616   7.671  20.582  0.00  0.00    +0.000 S 
ENDBRANCH  18  19
ENDBRANCH  16  18
ENDBRANCH  13  14
ENDBRANCH  12  13
ENDBRANCH   4  12
BRANCH   5  24
ATOM     24  C   UNL     1       5.008   4.330  15.922  0.00  0.00    +0.000 C 
BRANCH  24  25
ATOM     25  C   UNL     1       6.093   3.922  14.916  0.00  0.00    +0.000 C 
ATOM     26  C   UNL     1       7.036   5.015  14.441  0.00  0.00    +0.000 C 
ATOM     27  C   UNL     1       7.485   4.508  13.090  0.00  0.00    +0.000 C 
ATOM     28  C   UNL     1       6.312   3.686  12.598  0.00  0.00    +0.000 C 
ATOM     29  O   UNL     1       5.418   3.500  13.705  0.00  0.00    +0.000 OA
ENDBRANCH  24  25
ENDBRANCH   5  24
TORSDOF 8
ENDMDL
MODEL 8
REMARK VINA RESULT:      -7.0      1.497      1.767
REMARK  Name = 
REMARK  9 active torsions:
REMARK  status: ('A' for Active; 'I' for Inactive)
REMARK    1  A    between atoms: C_1  and  C_2
REMARK    2  A    between atoms: C_6  and  C_7
REMARK    3  A    between atoms: C_10  and  S_11
REMARK    4  A    between atoms: S_11  and  C_12
REMARK    5  A    between atoms: C_12  and  C_13
REMARK    6  A    between atoms: N_15  and  C_16
REMARK    7  A    between atoms: C_16  and  C_17
REMARK    8  A    between atoms: N_22  and  C_23
REMARK    9  A    between atoms: C_23  and  C_24
REMARK                            x       y       z     vdW  Elec       q    Type
REMARK                         _______ _______ _______ _____ _____    ______ ____
ROOT
ATOM      1  C   UNL     1       4.758   4.378  18.986  0.00  0.00    +0.000 A 
ATOM      2  N   UNL     1       5.841   4.263  19.731  0.00  0.00    +0.000 NA
ATOM      3  N   UNL     1       6.737   5.224  19.354  0.00  0.00    +0.000 NA
ATOM      4  C   UNL     1       6.185   5.928  18.395  0.00  0.00    +0.000 A 
ATOM      5  N   UNL     1       4.883   5.533  18.212  0.00  0.00    +0.000 N 
ENDROOT
BRANCH   1  11
ATOM      6  C   UNL     1       2.446   3.920  21.296  0.00  0.00    +0.000 C 
ATOM      7  C   UNL     1       2.730   3.210  20.029  0.00  0.00    +0.000 A 
ATOM      8  O   UNL     1       1.902   2.156  19.770  0.00  0.00    +0.000 OA
ATOM      9  C   UNL     1       2.299   1.612  18.598  0.00  0.00    +0.000 A 
ATOM     10  C   UNL     1       3.363   2.314  18.082  0.00  0.00    +0.000 A 
ATOM     11  C   UNL     1       3.660   3.350  19.006  0.00  0.00    +0.000 A 
ENDBRANCH   1  11
BRANCH   4  12
ATOM     12  S   UNL     1       7.030   7.096  17.445  0.00  0.00    +0.000 S 
BRANCH  12  13
ATOM     13  C   UNL     1       8.276   7.708  18.614  0.00  0.00    +0.000 C 
BRANCH  13  14
ATOM     14  C   UNL     1       8.525   9.205  18.434  0.00  0.00    +0.000 C 
ATOM     15  O   UNL     1       7.977   9.911  17.593  0.00  0.00    +0.000 OA
ATOM     16  N   UNL     1       9.423   9.725  19.350  0.00  0.00    +0.000 N 
ATOM     17  H   UNL     1       9.984   9.093  19.908  0.00  0.00    +0.000 HD
BRANCH  16  18
ATOM     18  C   UNL     1       9.874  11.096  19.243  0.00  0.00    +0.000 C 
BRANCH  18  19
ATOM     19  C   UNL     1       9.523  11.822  20.502  0.00  0.00    +0.000 A 
ATOM     20  C   UNL     1       8.832  11.344  21.600  0.00  0.00    +0.000 A 
ATOM     21  C   UNL     1       8.656  12.336  22.608  0.00  0.00    +0.000 A 
ATOM     22  C   UNL     1       9.221  13.539  22.249  0.00  0.00    +0.000 A 
ATOM     23  S   UNL     1       9.964  13.466  20.710  0.00  0.00    +0.000 S 
ENDBRANCH  18  19
ENDBRANCH  16  18
ENDBRANCH  13  14
ENDBRANCH  12  13
ENDBRANCH   4  12
BRANCH   5  24
ATOM     24  C   UNL     1       3.818   6.087  17.411  0.00  0.00    +0.000 C 
BRANCH  24  25
ATOM     25  C   UNL     1       2.606   6.825  17.997  0.00  0.00    +0.000 C 
ATOM     26  C   UNL     1       2.518   8.320  17.733  0.00  0.00    +0.000 C 
ATOM     27  C   UNL     1       1.687   8.816  18.894  0.00  0.00    +0.000 C 
ATOM     28  C   UNL     1       2.003   7.847  20.014  0.00  0.00    +0.000 C 
ATOM     29  O   UNL     1       2.705   6.735  19.440  0.00  0.00    +0.000 OA
ENDBRANCH  24  25
ENDBRANCH   5  24
TORSDOF 8
ENDMDL
MODEL 9
REMARK VINA RESULT:      -7.0      3.567      7.176
REMARK  Name = 
REMARK  9 active torsions:
REMARK  status: ('A' for Active; 'I' for Inactive)
REMARK    1  A    between atoms: C_1  and  C_2
REMARK    2  A    between atoms: C_6  and  C_7
REMARK    3  A    between atoms: C_10  and  S_11
REMARK    4  A    between atoms: S_11  and  C_12
REMARK    5  A    between atoms: C_12  and  C_13
REMARK    6  A    between atoms: N_15  and  C_16
REMARK    7  A    between atoms: C_16  and  C_17
REMARK    8  A    between atoms: N_22  and  C_23
REMARK    9  A    between atoms: C_23  and  C_24
REMARK                            x       y       z     vdW  Elec       q    Type
REMARK                         _______ _______ _______ _____ _____    ______ ____
ROOT
ATOM      1  C   UNL     1       5.768   4.767  18.411  0.00  0.00    +0.000 A 
ATOM      2  N   UNL     1       5.781   4.223  19.613  0.00  0.00    +0.000 NA
ATOM      3  N   UNL     1       4.855   3.217  19.650  0.00  0.00    +0.000 NA
ATOM      4  C   UNL     1       4.299   3.145  18.465  0.00  0.00    +0.000 A 
ATOM      5  N   UNL     1       4.929   4.003  17.598  0.00  0.00    +0.000 N 
ENDROOT
BRANCH   1  11
ATOM      6  C   UNL     1       4.748   7.353  16.632  0.00  0.00    +0.000 C 
ATOM      7  C   UNL     1       6.027   7.071  17.321  0.00  0.00    +0.000 A 
ATOM      8  O   UNL     1       6.974   8.045  17.182  0.00  0.00    +0.000 OA
ATOM      9  C   UNL     1       8.075   7.632  17.849  0.00  0.00    +0.000 A 
ATOM     10  C   UNL     1       7.847   6.410  18.437  0.00  0.00    +0.000 A 
ATOM     11  C   UNL     1       6.522   6.029  18.095  0.00  0.00    +0.000 A 
ENDBRANCH   1  11
BRANCH   4  12
ATOM     12  S   UNL     1       2.910   2.185  18.107  0.00  0.00    +0.000 S 
BRANCH  12  13
ATOM     13  C   UNL     1       1.557   3.234  18.709  0.00  0.00    +0.000 C 
BRANCH  13  14
ATOM     14  C   UNL     1       1.855   4.717  18.483  0.00  0.00    +0.000 C 
ATOM     15  O   UNL     1       1.635   5.325  17.440  0.00  0.00    +0.000 OA
ATOM     16  N   UNL     1       2.379   5.346  19.599  0.00  0.00    +0.000 N 
ATOM     17  H   UNL     1       2.709   4.785  20.375  0.00  0.00    +0.000 HD
BRANCH  16  18
ATOM     18  C   UNL     1       2.841   6.715  19.523  0.00  0.00    +0.000 C 
BRANCH  18  19
ATOM     19  C   UNL     1       1.796   7.613  20.105  0.00  0.00    +0.000 A 
ATOM     20  C   UNL     1       1.079   7.444  21.274  0.00  0.00    +0.000 A 
ATOM     21  C   UNL     1       0.140   8.493  21.495  0.00  0.00    +0.000 A 
ATOM     22  C   UNL     1       0.173   9.432  20.488  0.00  0.00    +0.000 A 
ATOM     23  S   UNL     1       1.334   9.051  19.292  0.00  0.00    +0.000 S 
ENDBRANCH  18  19
ENDBRANCH  16  18
ENDBRANCH  13  14
ENDBRANCH  12  13
ENDBRANCH   4  12
BRANCH   5  24
ATOM     24  C   UNL     1       4.807   4.181  16.170  0.00  0.00    +0.000 C 
BRANCH  24  25
ATOM     25  C   UNL     1       5.919   3.831  15.170  0.00  0.00    +0.000 C 
ATOM     26  C   UNL     1       6.873   4.950  14.784  0.00  0.00    +0.000 C 
ATOM     27  C   UNL     1       7.356   4.520  13.417  0.00  0.00    +0.000 C 
ATOM     28  C   UNL     1       6.197   3.728  12.849  0.00  0.00    +0.000 C 
ATOM     29  O   UNL     1       5.275   3.480  13.920  0.00  0.00    +0.000 OA
ENDBRANCH  24  25
ENDBRANCH   5  24
TORSDOF 8
ENDMDL
