MODEL 1
REMARK VINA RESULT:      -8.0      0.000      0.000
REMARK  Name = 
REMARK  7 active torsions:
REMARK  status: ('A' for Active; 'I' for Inactive)
REMARK    1  A    between atoms: C_1  and  C_2
REMARK    2  A    between atoms: C_4  and  C_5
REMARK    3  A    between atoms: C_5  and  C_7
REMARK    4  A    between atoms: C_7  and  S_8
REMARK    5  A    between atoms: S_8  and  C_9
REMARK    6  A    between atoms: C_12  and  C_13
REMARK    7  A    between atoms: N_15  and  C_16
REMARK                            x       y       z     vdW  Elec       q    Type
REMARK                         _______ _______ _______ _____ _____    ______ ____
ROOT
ATOM      1  C   UNL     1       6.287   5.351  17.014  0.00  0.00    +0.000 A 
ATOM      2  C   UNL     1       7.143   5.401  18.118  0.00  0.00    +0.000 A 
ATOM      3  C   UNL     1       7.761   6.605  18.474  0.00  0.00    +0.000 A 
ATOM      4  C   UNL     1       7.506   7.735  17.711  0.00  0.00    +0.000 A 
ATOM      5  C   UNL     1       6.630   7.596  16.630  0.00  0.00    +0.000 A 
ATOM      6  N   UNL     1       6.023   6.432  16.256  0.00  0.00    +0.000 NA
ENDROOT
BRANCH   4   7
ATOM      7  C   UNL     1       8.039   9.087  18.017  0.00  0.00    +0.000 C 
ATOM      8  O   UNL     1       7.626  10.004  17.312  0.00  0.00    +0.000 OA
ATOM      9  N   UNL     1       8.998   9.193  19.019  0.00  0.00    +0.000 N 
ATOM     10  H   UNL     1       9.404   8.344  19.383  0.00  0.00    +0.000 HD
BRANCH   9  11
ATOM     11  C   UNL     1       9.632  10.409  19.394  0.00  0.00    +0.000 A 
ATOM     12  C   UNL     1      10.557  11.072  18.577  0.00  0.00    +0.000 A 
ATOM     13  C   UNL     1      11.211  12.226  19.015  0.00  0.00    +0.000 A 
ATOM     14  C   UNL     1      10.934  12.731  20.277  0.00  0.00    +0.000 A 
ATOM     15  F   UNL     1      11.583  13.819  20.710  0.00  0.00    +0.000 F 
ATOM     16  C   UNL     1       9.997  12.114  21.095  0.00  0.00    +0.000 A 
ATOM     17  C   UNL     1       9.330  10.963  20.647  0.00  0.00    +0.000 A 
ENDBRANCH   9  11
ENDBRANCH   4   7
BRANCH   1  18
ATOM     18  S   UNL     1       5.539   3.779  16.639  0.00  0.00    +0.000 S 
BRANCH  18  19
ATOM     19  C   UNL     1       4.502   3.411  18.108  0.00  0.00    +0.000 C 
BRANCH  19  20
ATOM     20  C   UNL     1       3.083   3.953  17.883  0.00  0.00    +0.000 C 
ATOM     21  O   UNL     1       2.259   3.417  17.139  0.00  0.00    +0.000 OA
BRANCH  20  25
ATOM     22  C   UNL     1       2.157   8.938  18.006  0.00  0.00    +0.000 C 
ATOM     23  C   UNL     1       2.190   7.601  18.696  0.00  0.00    +0.000 A 
ATOM     24  C   UNL     1       2.610   6.457  17.979  0.00  0.00    +0.000 A 
ATOM     25  C   UNL     1       2.646   5.203  18.592  0.00  0.00    +0.000 A 
ATOM     26  C   UNL     1       2.256   5.092  19.938  0.00  0.00    +0.000 A 
ATOM     27  C   UNL     1       1.841   6.215  20.659  0.00  0.00    +0.000 A 
ATOM     28  C   UNL     1       1.809   7.463  20.040  0.00  0.00    +0.000 A 
ATOM     29 CL   UNL     1       1.288   8.816  20.981  0.00  0.00    +0.000 Cl
ENDBRANCH  20  25
ENDBRANCH  19  20
ENDBRANCH  18  19
ENDBRANCH   1  18
TORSDOF 6
ENDMDL
MODEL 2
REMARK VINA RESULT:      -7.7      0.830      1.418
REMARK  Name = 
REMARK  7 active torsions:
REMARK  status: ('A' for Active; 'I' for Inactive)
REMARK    1  A    between atoms: C_1  and  C_2
REMARK    2  A    between atoms: C_4  and  C_5
REMARK    3  A    between atoms: C_5  and  C_7
REMARK    4  A    between atoms: C_7  and  S_8
REMARK    5  A    between atoms: S_8  and  C_9
REMARK    6  A    between atoms: C_12  and  C_13
REMARK    7  A    between atoms: N_15  and  C_16
REMARK                            x       y       z     vdW  Elec       q    Type
REMARK                         _______ _______ _______ _____ _____    ______ ____
ROOT
ATOM      1  C   UNL     1       6.789   5.534  17.486  0.00  0.00    +0.000 A 
ATOM      2  C   UNL     1       6.230   6.589  16.760  0.00  0.00    +0.000 A 
ATOM      3  C   UNL     1       6.671   7.900  16.972  0.00  0.00    +0.000 A 
ATOM      4  C   UNL     1       7.667   8.123  17.912  0.00  0.00    +0.000 A 
ATOM      5  C   UNL     1       8.176   7.007  18.586  0.00  0.00    +0.000 A 
ATOM      6  N   UNL     1       7.756   5.723  18.405  0.00  0.00    +0.000 NA
ENDROOT
BRANCH   4   7
ATOM      7  C   UNL     1       8.274   9.450  18.186  0.00  0.00    +0.000 C 
ATOM      8  O   UNL     1       7.998  10.346  17.394  0.00  0.00    +0.000 OA
ATOM      9  N   UNL     1       9.145   9.552  19.266  0.00  0.00    +0.000 N 
ATOM     10  H   UNL     1       9.449   8.701  19.716  0.00  0.00    +0.000 HD
BRANCH   9  11
ATOM     11  C   UNL     1       9.836  10.740  19.628  0.00  0.00    +0.000 A 
ATOM     12  C   UNL     1       9.549  11.465  20.792  0.00  0.00    +0.000 A 
ATOM     13  C   UNL     1      10.202  12.668  21.074  0.00  0.00    +0.000 A 
ATOM     14  C   UNL     1      11.158  13.148  20.191  0.00  0.00    +0.000 A 
ATOM     15  F   UNL     1      11.763  14.316  20.444  0.00  0.00    +0.000 F 
ATOM     16  C   UNL     1      11.487  12.434  19.047  0.00  0.00    +0.000 A 
ATOM     17  C   UNL     1      10.840  11.218  18.773  0.00  0.00    +0.000 A 
ENDBRANCH   9  11
ENDBRANCH   4   7
BRANCH   1  18
ATOM     18  S   UNL     1       6.172   3.898  17.147  0.00  0.00    +0.000 S 
BRANCH  18  19
ATOM     19  C   UNL     1       4.457   4.177  16.555  0.00  0.00    +0.000 C 
BRANCH  19  20
ATOM     20  C   UNL     1       3.474   3.960  17.713  0.00  0.00    +0.000 C 
ATOM     21  O   UNL     1       3.085   2.848  18.077  0.00  0.00    +0.000 OA
BRANCH  20  25
ATOM     22  C   UNL     1       2.307   8.883  18.058  0.00  0.00    +0.000 C 
ATOM     23  C   UNL     1       2.362   7.510  18.672  0.00  0.00    +0.000 A 
ATOM     24  C   UNL     1       2.877   6.430  17.920  0.00  0.00    +0.000 A 
ATOM     25  C   UNL     1       2.937   5.145  18.463  0.00  0.00    +0.000 A 
ATOM     26  C   UNL     1       2.475   4.939  19.775  0.00  0.00    +0.000 A 
ATOM     27  C   UNL     1       1.966   5.998  20.530  0.00  0.00    +0.000 A 
ATOM     28  C   UNL     1       1.911   7.278  19.981  0.00  0.00    +0.000 A 
ATOM     29 CL   UNL     1       1.272   8.549  20.963  0.00  0.00    +0.000 Cl
ENDBRANCH  20  25
ENDBRANCH  19  20
ENDBRANCH  18  19
ENDBRANCH   1  18
TORSDOF 6
ENDMDL
MODEL 3
REMARK VINA RESULT:      -7.6      4.981      6.795
REMARK  Name = 
REMARK  7 active torsions:
REMARK  status: ('A' for Active; 'I' for Inactive)
REMARK    1  A    between atoms: C_1  and  C_2
REMARK    2  A    between atoms: C_4  and  C_5
REMARK    3  A    between atoms: C_5  and  C_7
REMARK    4  A    between atoms: C_7  and  S_8
REMARK    5  A    between atoms: S_8  and  C_9
REMARK    6  A    between atoms: C_12  and  C_13
REMARK    7  A    between atoms: N_15  and  C_16
REMARK                            x       y       z     vdW  Elec       q    Type
REMARK                         _______ _______ _______ _____ _____    ______ ____
ROOT
ATOM      1  C   UNL     1       2.025   5.741  20.181  0.00  0.00    +0.000 A 
ATOM      2  C   UNL     1       2.359   5.931  18.837  0.00  0.00    +0.000 A 
ATOM      3  C   UNL     1       2.249   7.200  18.258  0.00  0.00    +0.000 A 
ATOM      4  C   UNL     1       1.803   8.253  19.043  0.00  0.00    +0.000 A 
ATOM      5  C   UNL     1       1.500   7.975  20.381  0.00  0.00    +0.000 A 
ATOM      6  N   UNL     1       1.589   6.745  20.965  0.00  0.00    +0.000 NA
ENDROOT
BRANCH   4   7
ATOM      7  C   UNL     1       1.705   9.660  18.577  0.00  0.00    +0.000 C 
ATOM      8  O   UNL     1       2.142   9.890  17.454  0.00  0.00    +0.000 OA
ATOM      9  N   UNL     1       1.192  10.601  19.464  0.00  0.00    +0.000 N 
ATOM     10  H   UNL     1       1.058  10.327  20.426  0.00  0.00    +0.000 HD
BRANCH   9  11
ATOM     11  C   UNL     1       1.077  11.988  19.180  0.00  0.00    +0.000 A 
ATOM     12  C   UNL     1       2.139  12.889  19.327  0.00  0.00    +0.000 A 
ATOM     13  C   UNL     1       1.964  14.257  19.106  0.00  0.00    +0.000 A 
ATOM     14  C   UNL     1       0.718  14.732  18.726  0.00  0.00    +0.000 A 
ATOM     15  F   UNL     1       0.539  16.047  18.544  0.00  0.00    +0.000 F 
ATOM     16  C   UNL     1      -0.345  13.859  18.539  0.00  0.00    +0.000 A 
ATOM     17  C   UNL     1      -0.163  12.483  18.747  0.00  0.00    +0.000 A 
ENDBRANCH   9  11
ENDBRANCH   4   7
BRANCH   1  18
ATOM     18  S   UNL     1       2.202   4.094  20.836  0.00  0.00    +0.000 S 
BRANCH  18  19
ATOM     19  C   UNL     1       2.733   3.090  19.394  0.00  0.00    +0.000 C 
BRANCH  19  20
ATOM     20  C   UNL     1       4.263   2.976  19.385  0.00  0.00    +0.000 C 
ATOM     21  O   UNL     1       4.881   2.059  19.932  0.00  0.00    +0.000 OA
BRANCH  20  25
ATOM     22  C   UNL     1       5.815   5.368  15.192  0.00  0.00    +0.000 C 
ATOM     23  C   UNL     1       5.857   5.198  16.686  0.00  0.00    +0.000 A 
ATOM     24  C   UNL     1       5.065   4.198  17.296  0.00  0.00    +0.000 A 
ATOM     25  C   UNL     1       5.081   4.020  18.681  0.00  0.00    +0.000 A 
ATOM     26  C   UNL     1       5.897   4.854  19.465  0.00  0.00    +0.000 A 
ATOM     27  C   UNL     1       6.685   5.845  18.875  0.00  0.00    +0.000 A 
ATOM     28  C   UNL     1       6.665   6.016  17.491  0.00  0.00    +0.000 A 
ATOM     29 CL   UNL     1       7.663   7.256  16.818  0.00  0.00    +0.000 Cl
ENDBRANCH  20  25
ENDBRANCH  19  20
ENDBRANCH  18  19
ENDBRANCH   1  18
TORSDOF 6
ENDMDL
MODEL 4
REMARK VINA RESULT:      -7.6      2.086      2.612
REMARK  Name = 
REMARK  7 active torsions:
REMARK  status: ('A' for Active; 'I' for Inactive)
REMARK    1  A    between atoms: C_1  and  C_2
REMARK    2  A    between atoms: C_4  and  C_5
REMARK    3  A    between atoms: C_5  and  C_7
REMARK    4  A    between atoms: C_7  and  S_8
REMARK    5  A    between atoms: S_8  and  C_9
REMARK    6  A    between atoms: C_12  and  C_13
REMARK    7  A    between atoms: N_15  and  C_16
REMARK                            x       y       z     vdW  Elec       q    Type
REMARK                         _______ _______ _______ _____ _____    ______ ____
ROOT
ATOM      1  C   UNL     1       7.275   6.109  17.566  0.00  0.00    +0.000 A 
ATOM      2  C   UNL     1       7.925   6.324  18.784  0.00  0.00    +0.000 A 
ATOM      3  C   UNL     1       8.424   7.592  19.100  0.00  0.00    +0.000 A 
ATOM      4  C   UNL     1       8.260   8.620  18.183  0.00  0.00    +0.000 A 
ATOM      5  C   UNL     1       7.589   8.318  16.992  0.00  0.00    +0.000 A 
ATOM      6  N   UNL     1       7.103   7.088  16.657  0.00  0.00    +0.000 NA
ENDROOT
BRANCH   4   7
ATOM      7  C   UNL     1       8.677  10.025  18.418  0.00  0.00    +0.000 C 
ATOM      8  O   UNL     1       8.282  10.852  17.601  0.00  0.00    +0.000 OA
ATOM      9  N   UNL     1       9.523  10.278  19.493  0.00  0.00    +0.000 N 
ATOM     10  H   UNL     1       9.941   9.491  19.967  0.00  0.00    +0.000 HD
BRANCH   9  11
ATOM     11  C   UNL     1      10.042  11.560  19.820  0.00  0.00    +0.000 A 
ATOM     12  C   UNL     1      11.286  12.018  19.368  0.00  0.00    +0.000 A 
ATOM     13  C   UNL     1      11.791  13.257  19.772  0.00  0.00    +0.000 A 
ATOM     14  C   UNL     1      11.044  14.052  20.627  0.00  0.00    +0.000 A 
ATOM     15  F   UNL     1      11.539  15.226  21.040  0.00  0.00    +0.000 F 
ATOM     16  C   UNL     1       9.792  13.639  21.064  0.00  0.00    +0.000 A 
ATOM     17  C   UNL     1       9.280  12.401  20.646  0.00  0.00    +0.000 A 
ENDBRANCH   9  11
ENDBRANCH   4   7
BRANCH   1  18
ATOM     18  S   UNL     1       6.667   4.465  17.250  0.00  0.00    +0.000 S 
BRANCH  18  19
ATOM     19  C   UNL     1       5.069   4.734  16.388  0.00  0.00    +0.000 C 
BRANCH  19  20
ATOM     20  C   UNL     1       4.116   5.512  17.305  0.00  0.00    +0.000 C 
ATOM     21  O   UNL     1       3.941   6.730  17.230  0.00  0.00    +0.000 OA
BRANCH  20  25
ATOM     22  C   UNL     1       0.643   2.113  18.756  0.00  0.00    +0.000 C 
ATOM     23  C   UNL     1       1.674   3.153  19.103  0.00  0.00    +0.000 A 
ATOM     24  C   UNL     1       2.375   3.812  18.068  0.00  0.00    +0.000 A 
ATOM     25  C   UNL     1       3.339   4.778  18.361  0.00  0.00    +0.000 A 
ATOM     26  C   UNL     1       3.606   5.087  19.706  0.00  0.00    +0.000 A 
ATOM     27  C   UNL     1       2.918   4.445  20.739  0.00  0.00    +0.000 A 
ATOM     28  C   UNL     1       1.956   3.482  20.438  0.00  0.00    +0.000 A 
ATOM     29 CL   UNL     1       1.137   2.722  21.757  0.00  0.00    +0.000 Cl
ENDBRANCH  20  25
ENDBRANCH  19  20
ENDBRANCH  18  19
ENDBRANCH   1  18
TORSDOF 6
ENDMDL
MODEL 5
REMARK VINA RESULT:      -7.5      1.224      1.783
REMARK  Name = 
REMARK  7 active torsions:
REMARK  status: ('A' for Active; 'I' for Inactive)
REMARK    1  A    between atoms: C_1  and  C_2
REMARK    2  A    between atoms: C_4  and  C_5
REMARK    3  A    between atoms: C_5  and  C_7
REMARK    4  A    between atoms: C_7  and  S_8
REMARK    5  A    between atoms: S_8  and  C_9
REMARK    6  A    between atoms: C_12  and  C_13
REMARK    7  A    between atoms: N_15  and  C_16
REMARK                            x       y       z     vdW  Elec       q    Type
REMARK                         _______ _______ _______ _____ _____    ______ ____
ROOT
ATOM      1  C   UNL     1       5.785   5.217  17.771  0.00  0.00    +0.000 A 
ATOM      2  C   UNL     1       6.838   5.248  18.690  0.00  0.00    +0.000 A 
ATOM      3  C   UNL     1       7.662   6.375  18.775  0.00  0.00    +0.000 A 
ATOM      4  C   UNL     1       7.411   7.449  17.934  0.00  0.00    +0.000 A 
ATOM      5  C   UNL     1       6.330   7.336  17.052  0.00  0.00    +0.000 A 
ATOM      6  N   UNL     1       5.519   6.244  16.942  0.00  0.00    +0.000 NA
ENDROOT
BRANCH   4   7
ATOM      7  C   UNL     1       8.161   8.730  17.967  0.00  0.00    +0.000 C 
ATOM      8  O   UNL     1       8.303   9.303  16.890  0.00  0.00    +0.000 OA
ATOM      9  N   UNL     1       8.690   9.139  19.186  0.00  0.00    +0.000 N 
ATOM     10  H   UNL     1       8.682   8.484  19.954  0.00  0.00    +0.000 HD
BRANCH   9  11
ATOM     11  C   UNL     1       9.467  10.316  19.367  0.00  0.00    +0.000 A 
ATOM     12  C   UNL     1      10.180  10.927  18.329  0.00  0.00    +0.000 A 
ATOM     13  C   UNL     1      10.989  12.042  18.565  0.00  0.00    +0.000 A 
ATOM     14  C   UNL     1      11.081  12.557  19.849  0.00  0.00    +0.000 A 
ATOM     15  F   UNL     1      11.881  13.606  20.084  0.00  0.00    +0.000 F 
ATOM     16  C   UNL     1      10.359  11.993  20.892  0.00  0.00    +0.000 A 
ATOM     17  C   UNL     1       9.535  10.882  20.649  0.00  0.00    +0.000 A 
ENDBRANCH   9  11
ENDBRANCH   4   7
BRANCH   1  18
ATOM     18  S   UNL     1       4.783   3.744  17.736  0.00  0.00    +0.000 S 
BRANCH  18  19
ATOM     19  C   UNL     1       3.071   4.358  17.983  0.00  0.00    +0.000 C 
BRANCH  19  20
ATOM     20  C   UNL     1       3.005   5.190  19.270  0.00  0.00    +0.000 C 
ATOM     21  O   UNL     1       3.377   4.775  20.370  0.00  0.00    +0.000 OA
BRANCH  20  25
ATOM     22  C   UNL     1       0.837   9.228  21.442  0.00  0.00    +0.000 C 
ATOM     23  C   UNL     1       1.418   8.556  20.227  0.00  0.00    +0.000 A 
ATOM     24  C   UNL     1       1.915   7.236  20.331  0.00  0.00    +0.000 A 
ATOM     25  C   UNL     1       2.462   6.590  19.221  0.00  0.00    +0.000 A 
ATOM     26  C   UNL     1       2.514   7.272  17.994  0.00  0.00    +0.000 A 
ATOM     27  C   UNL     1       2.025   8.575  17.877  0.00  0.00    +0.000 A 
ATOM     28  C   UNL     1       1.479   9.214  18.989  0.00  0.00    +0.000 A 
ATOM     29 CL   UNL     1       0.887  10.825  18.784  0.00  0.00    +0.000 Cl
ENDBRANCH  20  25
ENDBRANCH  19  20
ENDBRANCH  18  19
ENDBRANCH   1  18
TORSDOF 6
ENDMDL
MODEL 6
REMARK VINA RESULT:      -7.5      6.352      9.075
REMARK  Name = 
REMARK  7 active torsions:
REMARK  status: ('A' for Active; 'I' for Inactive)
REMARK    1  A    between atoms: C_1  and  C_2
REMARK    2  A    between atoms: C_4  and  C_5
REMARK    3  A    between atoms: C_5  and  C_7
REMARK    4  A    between atoms: C_7  and  S_8
REMARK    5  A    between atoms: S_8  and  C_9
REMARK    6  A    between atoms: C_12  and  C_13
REMARK    7  A    between atoms: N_15  and  C_16
REMARK                            x       y       z     vdW  Elec       q    Type
REMARK                         _______ _______ _______ _____ _____    ______ ____
ROOT
ATOM      1  C   UNL     1       1.624   8.122  19.860  0.00  0.00    +0.000 A 
ATOM      2  C   UNL     1       1.125   8.010  21.161  0.00  0.00    +0.000 A 
ATOM      3  C   UNL     1       0.322   9.023  21.695  0.00  0.00    +0.000 A 
ATOM      4  C   UNL     1       0.036  10.130  20.910  0.00  0.00    +0.000 A 
ATOM      5  C   UNL     1       0.569  10.155  19.616  0.00  0.00    +0.000 A 
ATOM      6  N   UNL     1       1.363   9.186  19.076  0.00  0.00    +0.000 NA
ENDROOT
BRANCH   4   7
ATOM      7  C   UNL     1      -0.856  11.242  21.325  0.00  0.00    +0.000 C 
ATOM      8  O   UNL     1      -1.406  11.862  20.420  0.00  0.00    +0.000 OA
ATOM      9  N   UNL     1      -0.946  11.527  22.684  0.00  0.00    +0.000 N 
ATOM     10  H   UNL     1      -0.291  11.081  23.309  0.00  0.00    +0.000 HD
BRANCH   9  11
ATOM     11  C   UNL     1      -1.721  12.584  23.230  0.00  0.00    +0.000 A 
ATOM     12  C   UNL     1      -1.200  13.858  23.491  0.00  0.00    +0.000 A 
ATOM     13  C   UNL     1      -1.978  14.848  24.096  0.00  0.00    +0.000 A 
ATOM     14  C   UNL     1      -3.293  14.569  24.436  0.00  0.00    +0.000 A 
ATOM     15  F   UNL     1      -4.031  15.507  25.045  0.00  0.00    +0.000 F 
ATOM     16  C   UNL     1      -3.847  13.327  24.159  0.00  0.00    +0.000 A 
ATOM     17  C   UNL     1      -3.068  12.338  23.537  0.00  0.00    +0.000 A 
ENDBRANCH   9  11
ENDBRANCH   4   7
BRANCH   1  18
ATOM     18  S   UNL     1       2.632   6.782  19.259  0.00  0.00    +0.000 S 
BRANCH  18  19
ATOM     19  C   UNL     1       2.158   5.355  20.311  0.00  0.00    +0.000 C 
BRANCH  19  20
ATOM     20  C   UNL     1       3.061   4.156  19.985  0.00  0.00    +0.000 C 
ATOM     21  O   UNL     1       2.980   3.068  20.558  0.00  0.00    +0.000 OA
BRANCH  20  25
ATOM     22  C   UNL     1       7.714   5.418  18.413  0.00  0.00    +0.000 C 
ATOM     23  C   UNL     1       6.339   4.882  18.118  0.00  0.00    +0.000 A 
ATOM     24  C   UNL     1       5.391   4.782  19.162  0.00  0.00    +0.000 A 
ATOM     25  C   UNL     1       4.109   4.286  18.918  0.00  0.00    +0.000 A 
ATOM     26  C   UNL     1       3.772   3.884  17.614  0.00  0.00    +0.000 A 
ATOM     27  C   UNL     1       4.699   3.979  16.573  0.00  0.00    +0.000 A 
ATOM     28  C   UNL     1       5.976   4.477  16.824  0.00  0.00    +0.000 A 
ATOM     29 CL   UNL     1       7.079   4.574  15.496  0.00  0.00    +0.000 Cl
ENDBRANCH  20  25
ENDBRANCH  19  20
ENDBRANCH  18  19
ENDBRANCH   1  18
TORSDOF 6
ENDMDL
MODEL 7
REMARK VINA RESULT:      -7.4      5.272      7.857
REMARK  Name = 
REMARK  7 active torsions:
REMARK  status: ('A' for Active; 'I' for Inactive)
REMARK    1  A    between atoms: C_1  and  C_2
REMARK    2  A    between atoms: C_4  and  C_5
REMARK    3  A    between atoms: C_5  and  C_7
REMARK    4  A    between atoms: C_7  and  S_8
REMARK    5  A    between atoms: S_8  and  C_9
REMARK    6  A    between atoms: C_12  and  C_13
REMARK    7  A    between atoms: N_15  and  C_16
REMARK                            x       y       z     vdW  Elec       q    Type
REMARK                         _______ _______ _______ _____ _____    ______ ____
ROOT
ATOM      1  C   UNL     1       3.038   7.865  17.825  0.00  0.00    +0.000 A 
ATOM      2  C   UNL     1       2.673   7.404  19.093  0.00  0.00    +0.000 A 
ATOM      3  C   UNL     1       1.752   8.121  19.863  0.00  0.00    +0.000 A 
ATOM      4  C   UNL     1       1.215   9.290  19.342  0.00  0.00    +0.000 A 
ATOM      5  C   UNL     1       1.630   9.672  18.061  0.00  0.00    +0.000 A 
ATOM      6  N   UNL     1       2.534   8.996  17.296  0.00  0.00    +0.000 NA
ENDROOT
BRANCH   4   7
ATOM      7  C   UNL     1       0.179  10.109  20.021  0.00  0.00    +0.000 C 
ATOM      8  O   UNL     1      -0.883  10.245  19.420  0.00  0.00    +0.000 OA
ATOM      9  N   UNL     1       0.514  10.701  21.234  0.00  0.00    +0.000 N 
ATOM     10  H   UNL     1       1.481  10.683  21.523  0.00  0.00    +0.000 HD
BRANCH   9  11
ATOM     11  C   UNL     1      -0.352  11.545  21.979  0.00  0.00    +0.000 A 
ATOM     12  C   UNL     1      -1.356  11.054  22.825  0.00  0.00    +0.000 A 
ATOM     13  C   UNL     1      -2.233  11.919  23.483  0.00  0.00    +0.000 A 
ATOM     14  C   UNL     1      -2.104  13.288  23.305  0.00  0.00    +0.000 A 
ATOM     15  F   UNL     1      -2.964  14.118  23.910  0.00  0.00    +0.000 F 
ATOM     16  C   UNL     1      -1.098  13.805  22.499  0.00  0.00    +0.000 A 
ATOM     17  C   UNL     1      -0.208  12.935  21.850  0.00  0.00    +0.000 A 
ENDBRANCH   9  11
ENDBRANCH   4   7
BRANCH   1  18
ATOM     18  S   UNL     1       4.213   6.885  16.913  0.00  0.00    +0.000 S 
BRANCH  18  19
ATOM     19  C   UNL     1       5.518   6.488  18.139  0.00  0.00    +0.000 C 
BRANCH  19  20
ATOM     20  C   UNL     1       5.551   4.972  18.381  0.00  0.00    +0.000 C 
ATOM     21  O   UNL     1       6.591   4.315  18.443  0.00  0.00    +0.000 OA
BRANCH  20  25
ATOM     22  C   UNL     1       1.616   3.427  21.183  0.00  0.00    +0.000 C 
ATOM     23  C   UNL     1       2.351   3.453  19.870  0.00  0.00    +0.000 A 
ATOM     24  C   UNL     1       3.561   4.177  19.762  0.00  0.00    +0.000 A 
ATOM     25  C   UNL     1       4.262   4.222  18.556  0.00  0.00    +0.000 A 
ATOM     26  C   UNL     1       3.745   3.535  17.443  0.00  0.00    +0.000 A 
ATOM     27  C   UNL     1       2.552   2.815  17.536  0.00  0.00    +0.000 A 
ATOM     28  C   UNL     1       1.859   2.774  18.745  0.00  0.00    +0.000 A 
ATOM     29 CL   UNL     1       0.389   1.865  18.800  0.00  0.00    +0.000 Cl
ENDBRANCH  20  25
ENDBRANCH  19  20
ENDBRANCH  18  19
ENDBRANCH   1  18
TORSDOF 6
ENDMDL
MODEL 8
REMARK VINA RESULT:      -7.3      1.292      1.706
REMARK  Name = 
REMARK  7 active torsions:
REMARK  status: ('A' for Active; 'I' for Inactive)
REMARK    1  A    between atoms: C_1  and  C_2
REMARK    2  A    between atoms: C_4  and  C_5
REMARK    3  A    between atoms: C_5  and  C_7
REMARK    4  A    between atoms: C_7  and  S_8
REMARK    5  A    between atoms: S_8  and  C_9
REMARK    6  A    between atoms: C_12  and  C_13
REMARK    7  A    between atoms: N_15  and  C_16
REMARK                            x       y       z     vdW  Elec       q    Type
REMARK                         _______ _______ _______ _____ _____    ______ ____
ROOT
ATOM      1  C   UNL     1       7.527   5.970  17.628  0.00  0.00    +0.000 A 
ATOM      2  C   UNL     1       8.054   6.176  18.906  0.00  0.00    +0.000 A 
ATOM      3  C   UNL     1       8.495   7.447  19.288  0.00  0.00    +0.000 A 
ATOM      4  C   UNL     1       8.398   8.488  18.375  0.00  0.00    +0.000 A 
ATOM      5  C   UNL     1       7.850   8.194  17.122  0.00  0.00    +0.000 A 
ATOM      6  N   UNL     1       7.423   6.961  16.722  0.00  0.00    +0.000 NA
ENDROOT
BRANCH   4   7
ATOM      7  C   UNL     1       8.764   9.896  18.671  0.00  0.00    +0.000 C 
ATOM      8  O   UNL     1       8.531  10.714  17.785  0.00  0.00    +0.000 OA
ATOM      9  N   UNL     1       9.390  10.161  19.884  0.00  0.00    +0.000 N 
ATOM     10  H   UNL     1       9.710   9.380  20.437  0.00  0.00    +0.000 HD
BRANCH   9  11
ATOM     11  C   UNL     1       9.837  11.447  20.290  0.00  0.00    +0.000 A 
ATOM     12  C   UNL     1       9.168  12.221  21.248  0.00  0.00    +0.000 A 
ATOM     13  C   UNL     1       9.601  13.511  21.566  0.00  0.00    +0.000 A 
ATOM     14  C   UNL     1      10.717  14.032  20.929  0.00  0.00    +0.000 A 
ATOM     15  F   UNL     1      11.116  15.280  21.209  0.00  0.00    +0.000 F 
ATOM     16  C   UNL     1      11.420  13.276  20.000  0.00  0.00    +0.000 A 
ATOM     17  C   UNL     1      10.992  11.975  19.693  0.00  0.00    +0.000 A 
ENDBRANCH   9  11
ENDBRANCH   4   7
BRANCH   1  18
ATOM     18  S   UNL     1       6.984   4.321  17.231  0.00  0.00    +0.000 S 
BRANCH  18  19
ATOM     19  C   UNL     1       5.256   4.255  17.845  0.00  0.00    +0.000 C 
BRANCH  19  20
ATOM     20  C   UNL     1       4.436   5.375  17.189  0.00  0.00    +0.000 C 
ATOM     21  O   UNL     1       4.461   5.619  15.981  0.00  0.00    +0.000 OA
BRANCH  20  25
ATOM     22  C   UNL     1       1.793   9.622  18.024  0.00  0.00    +0.000 C 
ATOM     23  C   UNL     1       2.262   8.267  18.482  0.00  0.00    +0.000 A 
ATOM     24  C   UNL     1       3.099   7.498  17.641  0.00  0.00    +0.000 A 
ATOM     25  C   UNL     1       3.546   6.236  18.038  0.00  0.00    +0.000 A 
ATOM     26  C   UNL     1       3.149   5.738  19.291  0.00  0.00    +0.000 A 
ATOM     27  C   UNL     1       2.324   6.488  20.133  0.00  0.00    +0.000 A 
ATOM     28  C   UNL     1       1.883   7.747  19.730  0.00  0.00    +0.000 A 
ATOM     29 CL   UNL     1       0.866   8.630  20.813  0.00  0.00    +0.000 Cl
ENDBRANCH  20  25
ENDBRANCH  19  20
ENDBRANCH  18  19
ENDBRANCH   1  18
TORSDOF 6
ENDMDL
MODEL 9
REMARK VINA RESULT:      -7.3      6.905      9.471
REMARK  Name = 
REMARK  7 active torsions:
REMARK  status: ('A' for Active; 'I' for Inactive)
REMARK    1  A    between atoms: C_1  and  C_2
REMARK    2  A    between atoms: C_4  and  C_5
REMARK    3  A    between atoms: C_5  and  C_7
REMARK    4  A    between atoms: C_7  and  S_8
REMARK    5  A    between atoms: S_8  and  C_9
REMARK    6  A    between atoms: C_12  and  C_13
REMARK    7  A    between atoms: N_15  and  C_16
REMARK                            x       y       z     vdW  Elec       q    Type
REMARK                         _______ _______ _______ _____ _____    ______ ____
ROOT
ATOM      1  C   UNL     1       0.209   9.831  21.396  0.00  0.00    +0.000 A 
ATOM      2  C   UNL     1       0.256  10.467  20.152  0.00  0.00    +0.000 A 
ATOM      3  C   UNL     1       1.000   9.912  19.106  0.00  0.00    +0.000 A 
ATOM      4  C   UNL     1       1.685   8.727  19.332  0.00  0.00    +0.000 A 
ATOM      5  C   UNL     1       1.575   8.154  20.605  0.00  0.00    +0.000 A 
ATOM      6  N   UNL     1       0.865   8.681  21.643  0.00  0.00    +0.000 NA
ENDROOT
BRANCH   4   7
ATOM      7  C   UNL     1       2.454   7.995  18.295  0.00  0.00    +0.000 C 
ATOM      8  O   UNL     1       2.375   8.434  17.151  0.00  0.00    +0.000 OA
ATOM      9  N   UNL     1       3.141   6.850  18.685  0.00  0.00    +0.000 N 
ATOM     10  H   UNL     1       2.964   6.478  19.607  0.00  0.00    +0.000 HD
BRANCH   9  11
ATOM     11  C   UNL     1       3.884   6.021  17.801  0.00  0.00    +0.000 A 
ATOM     12  C   UNL     1       4.963   6.490  17.042  0.00  0.00    +0.000 A 
ATOM     13  C   UNL     1       5.621   5.660  16.131  0.00  0.00    +0.000 A 
ATOM     14  C   UNL     1       5.205   4.346  15.981  0.00  0.00    +0.000 A 
ATOM     15  F   UNL     1       5.813   3.557  15.086  0.00  0.00    +0.000 F 
ATOM     16  C   UNL     1       4.159   3.844  16.746  0.00  0.00    +0.000 A 
ATOM     17  C   UNL     1       3.510   4.675  17.671  0.00  0.00    +0.000 A 
ENDBRANCH   9  11
ENDBRANCH   4   7
BRANCH   1  18
ATOM     18  S   UNL     1      -0.768  10.605  22.667  0.00  0.00    +0.000 S 
BRANCH  18  19
ATOM     19  C   UNL     1      -0.706  12.393  22.258  0.00  0.00    +0.000 C 
BRANCH  19  20
ATOM     20  C   UNL     1      -1.574  13.177  23.252  0.00  0.00    +0.000 C 
ATOM     21  O   UNL     1      -1.113  13.943  24.101  0.00  0.00    +0.000 OA
BRANCH  20  25
ATOM     22  C   UNL     1      -5.989  12.949  20.768  0.00  0.00    +0.000 C 
ATOM     23  C   UNL     1      -5.216  12.909  22.059  0.00  0.00    +0.000 A 
ATOM     24  C   UNL     1      -3.810  13.059  22.034  0.00  0.00    +0.000 A 
ATOM     25  C   UNL     1      -3.067  13.023  23.216  0.00  0.00    +0.000 A 
ATOM     26  C   UNL     1      -3.738  12.834  24.436  0.00  0.00    +0.000 A 
ATOM     27  C   UNL     1      -5.127  12.686  24.475  0.00  0.00    +0.000 A 
ATOM     28  C   UNL     1      -5.862  12.724  23.291  0.00  0.00    +0.000 A 
ATOM     29 CL   UNL     1      -7.577  12.538  23.401  0.00  0.00    +0.000 Cl
ENDBRANCH  20  25
ENDBRANCH  19  20
ENDBRANCH  18  19
ENDBRANCH   1  18
TORSDOF 6
ENDMDL
