MODEL 1
REMARK VINA RESULT:      -8.2      0.000      0.000
REMARK  Name = 
REMARK  7 active torsions:
REMARK  status: ('A' for Active; 'I' for Inactive)
REMARK    1  A    between atoms: C_1  and  O_2
REMARK    2  A    between atoms: O_2  and  C_3
REMARK    3  A    between atoms: C_6  and  S_7
REMARK    4  A    between atoms: S_7  and  C_8
REMARK    5  A    between atoms: N_10  and  C_11
REMARK    6  A    between atoms: C_11  and  C_12
REMARK    7  A    between atoms: C_23  and  C_24
REMARK                            x       y       z     vdW  Elec       q    Type
REMARK                         _______ _______ _______ _____ _____    ______ ____
ROOT
ATOM      1  C   UNL     1       2.570   5.829  19.477  0.00  0.00    +0.000 A 
ATOM      2  C   UNL     1       3.406   6.422  18.557  0.00  0.00    +0.000 A 
ATOM      3  N   UNL     1       4.046   5.422  17.866  0.00  0.00    +0.000 N 
ATOM      4  C   UNL     1       3.633   4.199  18.342  0.00  0.00    +0.000 A 
ATOM      5  N   UNL     1       4.096   3.009  17.929  0.00  0.00    +0.000 NA
ATOM      6  C   UNL     1       3.530   1.981  18.565  0.00  0.00    +0.000 A 
ATOM      7  N   UNL     1       3.956   0.712  18.224  0.00  0.00    +0.000 N 
ATOM      8  N   UNL     1       2.556   2.053  19.481  0.00  0.00    +0.000 NA
ATOM      9  C   UNL     1       2.087   3.267  19.880  0.00  0.00    +0.000 A 
ATOM     10  C   UNL     1       0.993   3.262  20.901  0.00  0.00    +0.000 C 
ATOM     11  C   UNL     1       2.667   4.418  19.320  0.00  0.00    +0.000 A 
ATOM     12  H   UNL     1       4.302   0.711  17.276  0.00  0.00    +0.000 HD
ATOM     13  H   UNL     1       3.224   0.051  18.450  0.00  0.00    +0.000 HD
ENDROOT
BRANCH   1  14
ATOM     14  S   UNL     1       1.550   6.693  20.602  0.00  0.00    +0.000 S 
BRANCH  14  18
ATOM     15  C   UNL     1       1.119  10.978  18.955  0.00  0.00    +0.000 A 
ATOM     16  C   UNL     1       0.695  10.642  20.241  0.00  0.00    +0.000 A 
ATOM     17  C   UNL     1       0.821   9.330  20.710  0.00  0.00    +0.000 A 
ATOM     18  C   UNL     1       1.351   8.323  19.893  0.00  0.00    +0.000 A 
ATOM     19  C   UNL     1       1.756   8.665  18.596  0.00  0.00    +0.000 A 
ATOM     20  C   UNL     1       1.637   9.982  18.129  0.00  0.00    +0.000 A 
BRANCH  15  22
ATOM     21  C   UNL     1      -0.401  12.770  18.669  0.00  0.00    +0.000 C 
ATOM     22  O   UNL     1       0.937  12.287  18.604  0.00  0.00    +0.000 OA
ENDBRANCH  15  22
ENDBRANCH  14  18
ENDBRANCH   1  14
BRANCH   3  23
ATOM     23  C   UNL     1       5.106   5.627  16.886  0.00  0.00    +0.000 C 
BRANCH  23  24
ATOM     24  C   UNL     1       6.309   6.337  17.455  0.00  0.00    +0.000 A 
ATOM     25  C   UNL     1       6.645   7.635  17.039  0.00  0.00    +0.000 A 
ATOM     26  C   UNL     1       7.726   8.308  17.613  0.00  0.00    +0.000 A 
ATOM     27  C   UNL     1       8.487   7.692  18.605  0.00  0.00    +0.000 A 
ATOM     28  C   UNL     1       8.175   6.398  19.016  0.00  0.00    +0.000 A 
ATOM     29  C   UNL     1       7.096   5.722  18.441  0.00  0.00    +0.000 A 
ENDBRANCH  23  24
ENDBRANCH   3  23
TORSDOF 5
ENDMDL
MODEL 2
REMARK VINA RESULT:      -8.2      0.502      1.083
REMARK  Name = 
REMARK  7 active torsions:
REMARK  status: ('A' for Active; 'I' for Inactive)
REMARK    1  A    between atoms: C_1  and  O_2
REMARK    2  A    between atoms: O_2  and  C_3
REMARK    3  A    between atoms: C_6  and  S_7
REMARK    4  A    between atoms: S_7  and  C_8
REMARK    5  A    between atoms: N_10  and  C_11
REMARK    6  A    between atoms: C_11  and  C_12
REMARK    7  A    between atoms: C_23  and  C_24
REMARK                            x       y       z     vdW  Elec       q    Type
REMARK                         _______ _______ _______ _____ _____    ______ ____
ROOT
ATOM      1  C   UNL     1       2.447   5.812  19.544  0.00  0.00    +0.000 A 
ATOM      2  C   UNL     1       3.234   6.453  18.613  0.00  0.00    +0.000 A 
ATOM      3  N   UNL     1       3.894   5.491  17.888  0.00  0.00    +0.000 N 
ATOM      4  C   UNL     1       3.541   4.245  18.352  0.00  0.00    +0.000 A 
ATOM      5  N   UNL     1       4.038   3.081  17.905  0.00  0.00    +0.000 NA
ATOM      6  C   UNL     1       3.530   2.021  18.536  0.00  0.00    +0.000 A 
ATOM      7  N   UNL     1       3.996   0.775  18.161  0.00  0.00    +0.000 N 
ATOM      8  N   UNL     1       2.579   2.038  19.478  0.00  0.00    +0.000 NA
ATOM      9  C   UNL     1       2.074   3.226  19.912  0.00  0.00    +0.000 A 
ATOM     10  C   UNL     1       1.009   3.161  20.961  0.00  0.00    +0.000 C 
ATOM     11  C   UNL     1       2.593   4.409  19.359  0.00  0.00    +0.000 A 
ATOM     12  H   UNL     1       4.317   0.804  17.205  0.00  0.00    +0.000 HD
ATOM     13  H   UNL     1       3.296   0.083  18.395  0.00  0.00    +0.000 HD
ENDROOT
BRANCH   1  14
ATOM     14  S   UNL     1       1.424   6.615  20.710  0.00  0.00    +0.000 S 
BRANCH  14  18
ATOM     15  C   UNL     1       1.140  10.943  19.145  0.00  0.00    +0.000 A 
ATOM     16  C   UNL     1       1.569   9.896  18.329  0.00  0.00    +0.000 A 
ATOM     17  C   UNL     1       1.664   8.595  18.834  0.00  0.00    +0.000 A 
ATOM     18  C   UNL     1       1.353   8.320  20.172  0.00  0.00    +0.000 A 
ATOM     19  C   UNL     1       0.941   9.379  20.989  0.00  0.00    +0.000 A 
ATOM     20  C   UNL     1       0.838  10.683  20.481  0.00  0.00    +0.000 A 
BRANCH  15  22
ATOM     21  C   UNL     1       2.355  12.742  18.203  0.00  0.00    +0.000 C 
ATOM     22  O   UNL     1       1.096  12.171  18.545  0.00  0.00    +0.000 OA
ENDBRANCH  15  22
ENDBRANCH  14  18
ENDBRANCH   1  14
BRANCH   3  23
ATOM     23  C   UNL     1       4.918   5.754  16.885  0.00  0.00    +0.000 C 
BRANCH  23  24
ATOM     24  C   UNL     1       6.178   6.348  17.466  0.00  0.00    +0.000 A 
ATOM     25  C   UNL     1       6.645   7.603  17.046  0.00  0.00    +0.000 A 
ATOM     26  C   UNL     1       7.779   8.171  17.631  0.00  0.00    +0.000 A 
ATOM     27  C   UNL     1       8.462   7.492  18.638  0.00  0.00    +0.000 A 
ATOM     28  C   UNL     1       8.018   6.237  19.053  0.00  0.00    +0.000 A 
ATOM     29  C   UNL     1       6.887   5.666  18.467  0.00  0.00    +0.000 A 
ENDBRANCH  23  24
ENDBRANCH   3  23
TORSDOF 5
ENDMDL
MODEL 3
REMARK VINA RESULT:      -8.1      0.475      1.067
REMARK  Name = 
REMARK  7 active torsions:
REMARK  status: ('A' for Active; 'I' for Inactive)
REMARK    1  A    between atoms: C_1  and  O_2
REMARK    2  A    between atoms: O_2  and  C_3
REMARK    3  A    between atoms: C_6  and  S_7
REMARK    4  A    between atoms: S_7  and  C_8
REMARK    5  A    between atoms: N_10  and  C_11
REMARK    6  A    between atoms: C_11  and  C_12
REMARK    7  A    between atoms: C_23  and  C_24
REMARK                            x       y       z     vdW  Elec       q    Type
REMARK                         _______ _______ _______ _____ _____    ______ ____
ROOT
ATOM      1  C   UNL     1       2.507   5.835  19.485  0.00  0.00    +0.000 A 
ATOM      2  C   UNL     1       3.356   6.448  18.590  0.00  0.00    +0.000 A 
ATOM      3  N   UNL     1       4.023   5.462  17.903  0.00  0.00    +0.000 N 
ATOM      4  C   UNL     1       3.614   4.230  18.357  0.00  0.00    +0.000 A 
ATOM      5  N   UNL     1       4.100   3.050  17.941  0.00  0.00    +0.000 NA
ATOM      6  C   UNL     1       3.533   2.009  18.553  0.00  0.00    +0.000 A 
ATOM      7  N   UNL     1       3.981   0.748  18.208  0.00  0.00    +0.000 N 
ATOM      8  N   UNL     1       2.538   2.058  19.447  0.00  0.00    +0.000 NA
ATOM      9  C   UNL     1       2.046   3.263  19.849  0.00  0.00    +0.000 A 
ATOM     10  C   UNL     1       0.929   3.234  20.845  0.00  0.00    +0.000 C 
ATOM     11  C   UNL     1       2.624   4.427  19.315  0.00  0.00    +0.000 A 
ATOM     12  H   UNL     1       4.349   0.761  17.268  0.00  0.00    +0.000 HD
ATOM     13  H   UNL     1       3.252   0.076  18.411  0.00  0.00    +0.000 HD
ENDROOT
BRANCH   1  14
ATOM     14  S   UNL     1       1.452   6.674  20.595  0.00  0.00    +0.000 S 
BRANCH  14  18
ATOM     15  C   UNL     1       1.205  11.029  19.100  0.00  0.00    +0.000 A 
ATOM     16  C   UNL     1       0.828  10.677  20.396  0.00  0.00    +0.000 A 
ATOM     17  C   UNL     1       0.896   9.346  20.819  0.00  0.00    +0.000 A 
ATOM     18  C   UNL     1       1.319   8.336  19.946  0.00  0.00    +0.000 A 
ATOM     19  C   UNL     1       1.677   8.694  18.640  0.00  0.00    +0.000 A 
ATOM     20  C   UNL     1       1.617  10.031  18.218  0.00  0.00    +0.000 A 
BRANCH  15  22
ATOM     21  C   UNL     1       2.229  12.965  18.204  0.00  0.00    +0.000 C 
ATOM     22  O   UNL     1       1.087  12.357  18.797  0.00  0.00    +0.000 OA
ENDBRANCH  15  22
ENDBRANCH  14  18
ENDBRANCH   1  14
BRANCH   3  23
ATOM     23  C   UNL     1       5.102   5.690  16.949  0.00  0.00    +0.000 C 
BRANCH  23  24
ATOM     24  C   UNL     1       6.277   6.425  17.548  0.00  0.00    +0.000 A 
ATOM     25  C   UNL     1       7.078   5.827  18.531  0.00  0.00    +0.000 A 
ATOM     26  C   UNL     1       8.198   6.492  19.037  0.00  0.00    +0.000 A 
ATOM     27  C   UNL     1       8.527   7.762  18.571  0.00  0.00    +0.000 A 
ATOM     28  C   UNL     1       7.731   8.375  17.605  0.00  0.00    +0.000 A 
ATOM     29  C   UNL     1       6.609   7.713  17.101  0.00  0.00    +0.000 A 
ENDBRANCH  23  24
ENDBRANCH   3  23
TORSDOF 5
ENDMDL
MODEL 4
REMARK VINA RESULT:      -7.7      2.507      3.544
REMARK  Name = 
REMARK  7 active torsions:
REMARK  status: ('A' for Active; 'I' for Inactive)
REMARK    1  A    between atoms: C_1  and  O_2
REMARK    2  A    between atoms: O_2  and  C_3
REMARK    3  A    between atoms: C_6  and  S_7
REMARK    4  A    between atoms: S_7  and  C_8
REMARK    5  A    between atoms: N_10  and  C_11
REMARK    6  A    between atoms: C_11  and  C_12
REMARK    7  A    between atoms: C_23  and  C_24
REMARK                            x       y       z     vdW  Elec       q    Type
REMARK                         _______ _______ _______ _____ _____    ______ ____
ROOT
ATOM      1  C   UNL     1       2.057   9.094  18.715  0.00  0.00    +0.000 A 
ATOM      2  C   UNL     1       2.844   8.667  17.668  0.00  0.00    +0.000 A 
ATOM      3  N   UNL     1       3.111   7.333  17.862  0.00  0.00    +0.000 N 
ATOM      4  C   UNL     1       2.510   6.909  19.025  0.00  0.00    +0.000 A 
ATOM      5  N   UNL     1       2.610   5.676  19.544  0.00  0.00    +0.000 NA
ATOM      6  C   UNL     1       1.935   5.536  20.687  0.00  0.00    +0.000 A 
ATOM      7  N   UNL     1       1.993   4.305  21.312  0.00  0.00    +0.000 N 
ATOM      8  N   UNL     1       1.169   6.463  21.276  0.00  0.00    +0.000 NA
ATOM      9  C   UNL     1       1.067   7.706  20.729  0.00  0.00    +0.000 A 
ATOM     10  C   UNL     1       0.186   8.684  21.442  0.00  0.00    +0.000 C 
ATOM     11  C   UNL     1       1.797   7.978  19.560  0.00  0.00    +0.000 A 
ATOM     12  H   UNL     1       2.168   3.583  20.630  0.00  0.00    +0.000 HD
ATOM     13  H   UNL     1       1.175   4.200  21.899  0.00  0.00    +0.000 HD
ENDROOT
BRANCH   1  14
ATOM     14  S   UNL     1       1.465  10.725  18.918  0.00  0.00    +0.000 S 
BRANCH  14  18
ATOM     15  C   UNL     1      -3.008  10.737  17.800  0.00  0.00    +0.000 A 
ATOM     16  C   UNL     1      -2.491  11.606  18.762  0.00  0.00    +0.000 A 
ATOM     17  C   UNL     1      -1.134  11.569  19.095  0.00  0.00    +0.000 A 
ATOM     18  C   UNL     1      -0.270  10.647  18.491  0.00  0.00    +0.000 A 
ATOM     19  C   UNL     1      -0.800   9.765  17.541  0.00  0.00    +0.000 A 
ATOM     20  C   UNL     1      -2.161   9.807  17.200  0.00  0.00    +0.000 A 
BRANCH  15  22
ATOM     21  C   UNL     1      -5.102  11.522  18.574  0.00  0.00    +0.000 C 
ATOM     22  O   UNL     1      -4.350  10.859  17.564  0.00  0.00    +0.000 OA
ENDBRANCH  15  22
ENDBRANCH  14  18
ENDBRANCH   1  14
BRANCH   3  23
ATOM     23  C   UNL     1       4.013   6.532  17.043  0.00  0.00    +0.000 C 
BRANCH  23  24
ATOM     24  C   UNL     1       5.427   6.507  17.569  0.00  0.00    +0.000 A 
ATOM     25  C   UNL     1       6.365   7.468  17.164  0.00  0.00    +0.000 A 
ATOM     26  C   UNL     1       7.655   7.473  17.701  0.00  0.00    +0.000 A 
ATOM     27  C   UNL     1       8.024   6.515  18.644  0.00  0.00    +0.000 A 
ATOM     28  C   UNL     1       7.107   5.545  19.043  0.00  0.00    +0.000 A 
ATOM     29  C   UNL     1       5.818   5.537  18.505  0.00  0.00    +0.000 A 
ENDBRANCH  23  24
ENDBRANCH   3  23
TORSDOF 5
ENDMDL
MODEL 5
REMARK VINA RESULT:      -7.6      3.333      6.731
REMARK  Name = 
REMARK  7 active torsions:
REMARK  status: ('A' for Active; 'I' for Inactive)
REMARK    1  A    between atoms: C_1  and  O_2
REMARK    2  A    between atoms: O_2  and  C_3
REMARK    3  A    between atoms: C_6  and  S_7
REMARK    4  A    between atoms: S_7  and  C_8
REMARK    5  A    between atoms: N_10  and  C_11
REMARK    6  A    between atoms: C_11  and  C_12
REMARK    7  A    between atoms: C_23  and  C_24
REMARK                            x       y       z     vdW  Elec       q    Type
REMARK                         _______ _______ _______ _____ _____    ______ ____
ROOT
ATOM      1  C   UNL     1       4.706   5.735  18.220  0.00  0.00    +0.000 A 
ATOM      2  C   UNL     1       4.071   6.921  17.927  0.00  0.00    +0.000 A 
ATOM      3  N   UNL     1       2.757   6.800  18.310  0.00  0.00    +0.000 N 
ATOM      4  C   UNL     1       2.547   5.546  18.836  0.00  0.00    +0.000 A 
ATOM      5  N   UNL     1       1.366   5.071  19.260  0.00  0.00    +0.000 NA
ATOM      6  C   UNL     1       1.442   3.819  19.715  0.00  0.00    +0.000 A 
ATOM      7  N   UNL     1       0.271   3.232  20.157  0.00  0.00    +0.000 N 
ATOM      8  N   UNL     1       2.552   3.080  19.826  0.00  0.00    +0.000 NA
ATOM      9  C   UNL     1       3.747   3.581  19.404  0.00  0.00    +0.000 A 
ATOM     10  C   UNL     1       4.942   2.696  19.568  0.00  0.00    +0.000 C 
ATOM     11  C   UNL     1       3.763   4.868  18.842  0.00  0.00    +0.000 A 
ATOM     12  H   UNL     1      -0.371   3.944  20.470  0.00  0.00    +0.000 HD
ATOM     13  H   UNL     1       0.503   2.495  20.811  0.00  0.00    +0.000 HD
ENDROOT
BRANCH   1  14
ATOM     14  S   UNL     1       6.391   5.399  17.905  0.00  0.00    +0.000 S 
BRANCH  14  18
ATOM     15  C   UNL     1       6.321   3.992  13.515  0.00  0.00    +0.000 A 
ATOM     16  C   UNL     1       5.376   3.549  14.441  0.00  0.00    +0.000 A 
ATOM     17  C   UNL     1       5.430   3.978  15.771  0.00  0.00    +0.000 A 
ATOM     18  C   UNL     1       6.445   4.839  16.208  0.00  0.00    +0.000 A 
ATOM     19  C   UNL     1       7.402   5.263  15.277  0.00  0.00    +0.000 A 
ATOM     20  C   UNL     1       7.343   4.839  13.940  0.00  0.00    +0.000 A 
BRANCH  15  22
ATOM     21  C   UNL     1       4.835   3.262  11.825  0.00  0.00    +0.000 C 
ATOM     22  O   UNL     1       6.173   3.499  12.248  0.00  0.00    +0.000 OA
ENDBRANCH  15  22
ENDBRANCH  14  18
ENDBRANCH   1  14
BRANCH   3  23
ATOM     23  C   UNL     1       1.718   7.790  18.061  0.00  0.00    +0.000 C 
BRANCH  23  24
ATOM     24  C   UNL     1       1.447   8.678  19.251  0.00  0.00    +0.000 A 
ATOM     25  C   UNL     1       1.075  10.020  19.080  0.00  0.00    +0.000 A 
ATOM     26  C   UNL     1       0.770  10.819  20.185  0.00  0.00    +0.000 A 
ATOM     27  C   UNL     1       0.837  10.289  21.472  0.00  0.00    +0.000 A 
ATOM     28  C   UNL     1       1.221   8.962  21.657  0.00  0.00    +0.000 A 
ATOM     29  C   UNL     1       1.530   8.163  20.553  0.00  0.00    +0.000 A 
ENDBRANCH  23  24
ENDBRANCH   3  23
TORSDOF 5
ENDMDL
MODEL 6
REMARK VINA RESULT:      -7.6      1.347      1.958
REMARK  Name = 
REMARK  7 active torsions:
REMARK  status: ('A' for Active; 'I' for Inactive)
REMARK    1  A    between atoms: C_1  and  O_2
REMARK    2  A    between atoms: O_2  and  C_3
REMARK    3  A    between atoms: C_6  and  S_7
REMARK    4  A    between atoms: S_7  and  C_8
REMARK    5  A    between atoms: N_10  and  C_11
REMARK    6  A    between atoms: C_11  and  C_12
REMARK    7  A    between atoms: C_23  and  C_24
REMARK                            x       y       z     vdW  Elec       q    Type
REMARK                         _______ _______ _______ _____ _____    ______ ____
ROOT
ATOM      1  C   UNL     1       2.722   5.777  19.959  0.00  0.00    +0.000 A 
ATOM      2  C   UNL     1       3.878   6.360  19.490  0.00  0.00    +0.000 A 
ATOM      3  N   UNL     1       4.638   5.375  18.908  0.00  0.00    +0.000 N 
ATOM      4  C   UNL     1       3.982   4.170  19.009  0.00  0.00    +0.000 A 
ATOM      5  N   UNL     1       4.462   2.988  18.591  0.00  0.00    +0.000 NA
ATOM      6  C   UNL     1       3.623   1.976  18.819  0.00  0.00    +0.000 A 
ATOM      7  N   UNL     1       4.035   0.712  18.444  0.00  0.00    +0.000 N 
ATOM      8  N   UNL     1       2.394   2.065  19.345  0.00  0.00    +0.000 NA
ATOM      9  C   UNL     1       1.915   3.274  19.750  0.00  0.00    +0.000 A 
ATOM     10  C   UNL     1       0.532   3.291  20.319  0.00  0.00    +0.000 C 
ATOM     11  C   UNL     1       2.751   4.396  19.618  0.00  0.00    +0.000 A 
ATOM     12  H   UNL     1       4.697   0.780  17.685  0.00  0.00    +0.000 HD
ATOM     13  H   UNL     1       3.219   0.133  18.295  0.00  0.00    +0.000 HD
ENDROOT
BRANCH   1  14
ATOM     14  S   UNL     1       1.441   6.626  20.790  0.00  0.00    +0.000 S 
BRANCH  14  18
ATOM     15  C   UNL     1       1.282  10.831  18.905  0.00  0.00    +0.000 A 
ATOM     16  C   UNL     1       0.836  10.594  20.206  0.00  0.00    +0.000 A 
ATOM     17  C   UNL     1       0.879   9.305  20.747  0.00  0.00    +0.000 A 
ATOM     18  C   UNL     1       1.346   8.224  19.991  0.00  0.00    +0.000 A 
ATOM     19  C   UNL     1       1.774   8.466  18.679  0.00  0.00    +0.000 A 
ATOM     20  C   UNL     1       1.739   9.761  18.139  0.00  0.00    +0.000 A 
BRANCH  15  22
ATOM     21  C   UNL     1       2.414  12.801  18.242  0.00  0.00    +0.000 C 
ATOM     22  O   UNL     1       1.183  12.128  18.481  0.00  0.00    +0.000 OA
ENDBRANCH  15  22
ENDBRANCH  14  18
ENDBRANCH   1  14
BRANCH   3  23
ATOM     23  C   UNL     1       5.992   5.553  18.398  0.00  0.00    +0.000 C 
BRANCH  23  24
ATOM     24  C   UNL     1       6.103   5.308  16.913  0.00  0.00    +0.000 A 
ATOM     25  C   UNL     1       5.219   5.921  16.012  0.00  0.00    +0.000 A 
ATOM     26  C   UNL     1       5.366   5.735  14.635  0.00  0.00    +0.000 A 
ATOM     27  C   UNL     1       6.392   4.932  14.142  0.00  0.00    +0.000 A 
ATOM     28  C   UNL     1       7.267   4.304  15.027  0.00  0.00    +0.000 A 
ATOM     29  C   UNL     1       7.120   4.486  16.404  0.00  0.00    +0.000 A 
ENDBRANCH  23  24
ENDBRANCH   3  23
TORSDOF 5
ENDMDL
MODEL 7
REMARK VINA RESULT:      -7.6      1.354      2.285
REMARK  Name = 
REMARK  7 active torsions:
REMARK  status: ('A' for Active; 'I' for Inactive)
REMARK    1  A    between atoms: C_1  and  O_2
REMARK    2  A    between atoms: O_2  and  C_3
REMARK    3  A    between atoms: C_6  and  S_7
REMARK    4  A    between atoms: S_7  and  C_8
REMARK    5  A    between atoms: N_10  and  C_11
REMARK    6  A    between atoms: C_11  and  C_12
REMARK    7  A    between atoms: C_23  and  C_24
REMARK                            x       y       z     vdW  Elec       q    Type
REMARK                         _______ _______ _______ _____ _____    ______ ____
ROOT
ATOM      1  C   UNL     1       2.643   5.729  20.023  0.00  0.00    +0.000 A 
ATOM      2  C   UNL     1       3.803   6.343  19.605  0.00  0.00    +0.000 A 
ATOM      3  N   UNL     1       4.590   5.390  19.007  0.00  0.00    +0.000 N 
ATOM      4  C   UNL     1       3.948   4.174  19.047  0.00  0.00    +0.000 A 
ATOM      5  N   UNL     1       4.454   3.014  18.599  0.00  0.00    +0.000 NA
ATOM      6  C   UNL     1       3.623   1.984  18.769  0.00  0.00    +0.000 A 
ATOM      7  N   UNL     1       4.062   0.740  18.358  0.00  0.00    +0.000 N 
ATOM      8  N   UNL     1       2.381   2.038  19.265  0.00  0.00    +0.000 NA
ATOM      9  C   UNL     1       1.876   3.225  19.702  0.00  0.00    +0.000 A 
ATOM     10  C   UNL     1       0.478   3.205  20.236  0.00  0.00    +0.000 C 
ATOM     11  C   UNL     1       2.699   4.362  19.633  0.00  0.00    +0.000 A 
ATOM     12  H   UNL     1       4.742   0.844  17.620  0.00  0.00    +0.000 HD
ATOM     13  H   UNL     1       3.257   0.157  18.168  0.00  0.00    +0.000 HD
ENDROOT
BRANCH   1  14
ATOM     14  S   UNL     1       1.330   6.531  20.851  0.00  0.00    +0.000 S 
BRANCH  14  18
ATOM     15  C   UNL     1       1.231  10.769  19.037  0.00  0.00    +0.000 A 
ATOM     16  C   UNL     1       1.637   9.662  18.291  0.00  0.00    +0.000 A 
ATOM     17  C   UNL     1       1.676   8.390  18.871  0.00  0.00    +0.000 A 
ATOM     18  C   UNL     1       1.330   8.203  20.215  0.00  0.00    +0.000 A 
ATOM     19  C   UNL     1       0.942   9.322  20.963  0.00  0.00    +0.000 A 
ATOM     20  C   UNL     1       0.896  10.597  20.379  0.00  0.00    +0.000 A 
BRANCH  15  22
ATOM     21  C   UNL     1       2.517  12.579  18.218  0.00  0.00    +0.000 C 
ATOM     22  O   UNL     1       1.243  11.961  18.367  0.00  0.00    +0.000 OA
ENDBRANCH  15  22
ENDBRANCH  14  18
ENDBRANCH   1  14
BRANCH   3  23
ATOM     23  C   UNL     1       5.954   5.603  18.539  0.00  0.00    +0.000 C 
BRANCH  23  24
ATOM     24  C   UNL     1       6.110   5.395  17.053  0.00  0.00    +0.000 A 
ATOM     25  C   UNL     1       7.104   4.546  16.543  0.00  0.00    +0.000 A 
ATOM     26  C   UNL     1       7.203   4.313  15.169  0.00  0.00    +0.000 A 
ATOM     27  C   UNL     1       6.315   4.928  14.288  0.00  0.00    +0.000 A 
ATOM     28  C   UNL     1       5.333   5.786  14.780  0.00  0.00    +0.000 A 
ATOM     29  C   UNL     1       5.235   6.023  16.153  0.00  0.00    +0.000 A 
ENDBRANCH  23  24
ENDBRANCH   3  23
TORSDOF 5
ENDMDL
MODEL 8
REMARK VINA RESULT:      -7.5      1.462      2.250
REMARK  Name = 
REMARK  7 active torsions:
REMARK  status: ('A' for Active; 'I' for Inactive)
REMARK    1  A    between atoms: C_1  and  O_2
REMARK    2  A    between atoms: O_2  and  C_3
REMARK    3  A    between atoms: C_6  and  S_7
REMARK    4  A    between atoms: S_7  and  C_8
REMARK    5  A    between atoms: N_10  and  C_11
REMARK    6  A    between atoms: C_11  and  C_12
REMARK    7  A    between atoms: C_23  and  C_24
REMARK                            x       y       z     vdW  Elec       q    Type
REMARK                         _______ _______ _______ _____ _____    ______ ____
ROOT
ATOM      1  C   UNL     1       2.759   5.976  19.919  0.00  0.00    +0.000 A 
ATOM      2  C   UNL     1       3.765   6.612  19.226  0.00  0.00    +0.000 A 
ATOM      3  N   UNL     1       4.738   5.681  18.951  0.00  0.00    +0.000 N 
ATOM      4  C   UNL     1       4.365   4.463  19.469  0.00  0.00    +0.000 A 
ATOM      5  N   UNL     1       5.106   3.344  19.428  0.00  0.00    +0.000 NA
ATOM      6  C   UNL     1       4.510   2.304  20.015  0.00  0.00    +0.000 A 
ATOM      7  N   UNL     1       5.202   1.108  20.044  0.00  0.00    +0.000 N 
ATOM      8  N   UNL     1       3.282   2.290  20.549  0.00  0.00    +0.000 NA
ATOM      9  C   UNL     1       2.537   3.430  20.570  0.00  0.00    +0.000 A 
ATOM     10  C   UNL     1       1.173   3.330  21.178  0.00  0.00    +0.000 C 
ATOM     11  C   UNL     1       3.103   4.601  20.039  0.00  0.00    +0.000 A 
ATOM     12  H   UNL     1       5.847   1.068  19.269  0.00  0.00    +0.000 HD
ATOM     13  H   UNL     1       4.538   0.350  20.134  0.00  0.00    +0.000 HD
ENDROOT
BRANCH   1  14
ATOM     14  S   UNL     1       1.305   6.750  20.501  0.00  0.00    +0.000 S 
BRANCH  14  18
ATOM     15  C   UNL     1       1.446  11.034  18.803  0.00  0.00    +0.000 A 
ATOM     16  C   UNL     1       1.004  10.775  20.101  0.00  0.00    +0.000 A 
ATOM     17  C   UNL     1       0.954   9.464  20.585  0.00  0.00    +0.000 A 
ATOM     18  C   UNL     1       1.323   8.384  19.774  0.00  0.00    +0.000 A 
ATOM     19  C   UNL     1       1.747   8.650  18.466  0.00  0.00    +0.000 A 
ATOM     20  C   UNL     1       1.805   9.967  17.982  0.00  0.00    +0.000 A 
BRANCH  15  22
ATOM     21  C   UNL     1       1.992  13.262  19.383  0.00  0.00    +0.000 C 
ATOM     22  O   UNL     1       1.442  12.352  18.437  0.00  0.00    +0.000 OA
ENDBRANCH  15  22
ENDBRANCH  14  18
ENDBRANCH   1  14
BRANCH   3  23
ATOM     23  C   UNL     1       6.028   5.974  18.338  0.00  0.00    +0.000 C 
BRANCH  23  24
ATOM     24  C   UNL     1       6.114   5.529  16.899  0.00  0.00    +0.000 A 
ATOM     25  C   UNL     1       7.028   4.540  16.502  0.00  0.00    +0.000 A 
ATOM     26  C   UNL     1       7.061   4.093  15.180  0.00  0.00    +0.000 A 
ATOM     27  C   UNL     1       6.187   4.629  14.237  0.00  0.00    +0.000 A 
ATOM     28  C   UNL     1       5.285   5.623  14.613  0.00  0.00    +0.000 A 
ATOM     29  C   UNL     1       5.253   6.075  15.935  0.00  0.00    +0.000 A 
ENDBRANCH  23  24
ENDBRANCH   3  23
TORSDOF 5
ENDMDL
MODEL 9
REMARK VINA RESULT:      -7.5      2.031      5.085
REMARK  Name = 
REMARK  7 active torsions:
REMARK  status: ('A' for Active; 'I' for Inactive)
REMARK    1  A    between atoms: C_1  and  O_2
REMARK    2  A    between atoms: O_2  and  C_3
REMARK    3  A    between atoms: C_6  and  S_7
REMARK    4  A    between atoms: S_7  and  C_8
REMARK    5  A    between atoms: N_10  and  C_11
REMARK    6  A    between atoms: C_11  and  C_12
REMARK    7  A    between atoms: C_23  and  C_24
REMARK                            x       y       z     vdW  Elec       q    Type
REMARK                         _______ _______ _______ _____ _____    ______ ____
ROOT
ATOM      1  C   UNL     1       3.675   6.954  17.604  0.00  0.00    +0.000 A 
ATOM      2  C   UNL     1       2.852   5.864  17.783  0.00  0.00    +0.000 A 
ATOM      3  N   UNL     1       3.648   4.748  17.872  0.00  0.00    +0.000 N 
ATOM      4  C   UNL     1       4.967   5.115  17.742  0.00  0.00    +0.000 A 
ATOM      5  N   UNL     1       6.009   4.269  17.728  0.00  0.00    +0.000 NA
ATOM      6  C   UNL     1       7.181   4.890  17.580  0.00  0.00    +0.000 A 
ATOM      7  N   UNL     1       8.316   4.102  17.533  0.00  0.00    +0.000 N 
ATOM      8  N   UNL     1       7.377   6.212  17.511  0.00  0.00    +0.000 NA
ATOM      9  C   UNL     1       6.310   7.059  17.541  0.00  0.00    +0.000 A 
ATOM     10  C   UNL     1       6.612   8.523  17.467  0.00  0.00    +0.000 C 
ATOM     11  C   UNL     1       5.023   6.501  17.624  0.00  0.00    +0.000 A 
ATOM     12  H   UNL     1       8.155   3.241  18.033  0.00  0.00    +0.000 HD
ATOM     13  H   UNL     1       9.112   4.660  17.814  0.00  0.00    +0.000 HD
ENDROOT
BRANCH   1  14
ATOM     14  S   UNL     1       3.124   8.603  17.426  0.00  0.00    +0.000 S 
BRANCH  14  18
ATOM     15  C   UNL     1       0.158   9.191  20.907  0.00  0.00    +0.000 A 
ATOM     16  C   UNL     1       1.169   8.231  20.961  0.00  0.00    +0.000 A 
ATOM     17  C   UNL     1       2.044   8.060  19.883  0.00  0.00    +0.000 A 
ATOM     18  C   UNL     1       1.912   8.831  18.721  0.00  0.00    +0.000 A 
ATOM     19  C   UNL     1       0.882   9.779  18.668  0.00  0.00    +0.000 A 
ATOM     20  C   UNL     1       0.009   9.956  19.752  0.00  0.00    +0.000 A 
BRANCH  15  22
ATOM     21  C   UNL     1       0.024   9.503  23.249  0.00  0.00    +0.000 C 
ATOM     22  O   UNL     1      -0.641   9.260  22.014  0.00  0.00    +0.000 OA
ENDBRANCH  15  22
ENDBRANCH  14  18
ENDBRANCH   1  14
BRANCH   3  23
ATOM     23  C   UNL     1       3.161   3.376  17.941  0.00  0.00    +0.000 C 
BRANCH  23  24
ATOM     24  C   UNL     1       2.552   3.031  19.278  0.00  0.00    +0.000 A 
ATOM     25  C   UNL     1       3.356   2.641  20.360  0.00  0.00    +0.000 A 
ATOM     26  C   UNL     1       2.790   2.380  21.609  0.00  0.00    +0.000 A 
ATOM     27  C   UNL     1       1.413   2.500  21.793  0.00  0.00    +0.000 A 
ATOM     28  C   UNL     1       0.600   2.870  20.723  0.00  0.00    +0.000 A 
ATOM     29  C   UNL     1       1.165   3.128  19.472  0.00  0.00    +0.000 A 
ENDBRANCH  23  24
ENDBRANCH   3  23
TORSDOF 5
ENDMDL
