MODEL 1
REMARK VINA RESULT:      -8.3      0.000      0.000
REMARK  Name = 
REMARK  4 active torsions:
REMARK  status: ('A' for Active; 'I' for Inactive)
REMARK    1  A    between atoms: C_1  and  N_2
REMARK    2  A    between atoms: N_5  and  C_6
REMARK    3  A    between atoms: C_9  and  N_10
REMARK    4  A    between atoms: N_10  and  C_11
REMARK                            x       y       z     vdW  Elec       q    Type
REMARK                         _______ _______ _______ _____ _____    ______ ____
ROOT
ATOM      1  N   UNL     1       0.607  10.719  18.749  0.00  0.00    +0.000 N 
ATOM      2  H   UNL     1       1.133  11.176  17.993  0.00  0.00    +0.000 HD
ENDROOT
BRANCH   1   3
ATOM      3  C   UNL     1      -0.757  10.736  18.442  0.00  0.00    +0.000 C 
ATOM      4  C   UNL     1      -1.266  10.105  17.380  0.00  0.00    +0.000 C 
ATOM      5  C   UNL     1      -2.682  10.208  16.995  0.00  0.00    +0.000 C 
ATOM      6  O   UNL     1      -3.106   9.617  16.012  0.00  0.00    +0.000 OA
ATOM      7  C   UNL     1      -3.555  11.057  17.806  0.00  0.00    +0.000 A 
ATOM      8  C   UNL     1      -4.891  11.238  17.440  0.00  0.00    +0.000 A 
ATOM      9  C   UNL     1      -5.707  12.045  18.223  0.00  0.00    +0.000 A 
ATOM     10  C   UNL     1      -5.151  12.645  19.343  0.00  0.00    +0.000 A 
ATOM     11  N   UNL     1      -3.859  12.492  19.716  0.00  0.00    +0.000 NA
ATOM     12  C   UNL     1      -3.077  11.694  18.937  0.00  0.00    +0.000 A 
ATOM     13  C   UNL     1      -1.653  11.536  19.348  0.00  0.00    +0.000 C 
ATOM     14  O   UNL     1      -1.181  12.053  20.358  0.00  0.00    +0.000 OA
ENDBRANCH   1   3
BRANCH   1  18
ATOM     15  C   UNL     1       2.396   6.920  19.554  0.00  0.00    +0.000 A 
ATOM     16  C   UNL     1       1.658   7.595  20.533  0.00  0.00    +0.000 A 
ATOM     17  C   UNL     1       1.078   8.841  20.285  0.00  0.00    +0.000 A 
ATOM     18  C   UNL     1       1.248   9.485  19.052  0.00  0.00    +0.000 A 
ATOM     19  C   UNL     1       1.977   8.827  18.065  0.00  0.00    +0.000 A 
ATOM     20  C   UNL     1       2.552   7.574  18.323  0.00  0.00    +0.000 A 
BRANCH  15  25
ATOM     21  C   UNL     1       3.648   1.575  18.749  0.00  0.00    +0.000 C 
ATOM     22  N   UNL     1       3.596   2.857  19.440  0.00  0.00    +0.000 NA
ATOM     23  C   UNL     1       2.199   3.273  19.691  0.00  0.00    +0.000 C 
ATOM     24  C   UNL     1       2.113   4.616  20.458  0.00  0.00    +0.000 C 
ATOM     25  N   UNL     1       2.895   5.652  19.764  0.00  0.00    +0.000 N 
ATOM     26  C   UNL     1       4.266   5.266  19.397  0.00  0.00    +0.000 C 
ATOM     27  C   UNL     1       4.263   3.915  18.650  0.00  0.00    +0.000 C 
ENDBRANCH  15  25
ENDBRANCH   1  18
TORSDOF 3
ENDMDL
MODEL 2
REMARK VINA RESULT:      -7.7      0.672      1.215
REMARK  Name = 
REMARK  4 active torsions:
REMARK  status: ('A' for Active; 'I' for Inactive)
REMARK    1  A    between atoms: C_1  and  N_2
REMARK    2  A    between atoms: N_5  and  C_6
REMARK    3  A    between atoms: C_9  and  N_10
REMARK    4  A    between atoms: N_10  and  C_11
REMARK                            x       y       z     vdW  Elec       q    Type
REMARK                         _______ _______ _______ _____ _____    ______ ____
ROOT
ATOM      1  N   UNL     1       0.652  10.786  19.015  0.00  0.00    +0.000 N 
ATOM      2  H   UNL     1       1.122  11.297  18.255  0.00  0.00    +0.000 HD
ENDROOT
BRANCH   1   3
ATOM      3  C   UNL     1      -0.730  10.970  18.912  0.00  0.00    +0.000 C 
ATOM      4  C   UNL     1      -1.470  10.373  17.974  0.00  0.00    +0.000 C 
ATOM      5  C   UNL     1      -2.905  10.645  17.797  0.00  0.00    +0.000 C 
ATOM      6  O   UNL     1      -3.544  10.080  16.920  0.00  0.00    +0.000 OA
ATOM      7  C   UNL     1      -3.532  11.628  18.681  0.00  0.00    +0.000 A 
ATOM      8  C   UNL     1      -4.876  11.968  18.507  0.00  0.00    +0.000 A 
ATOM      9  C   UNL     1      -5.457  12.901  19.358  0.00  0.00    +0.000 A 
ATOM     10  C   UNL     1      -4.666  13.462  20.349  0.00  0.00    +0.000 A 
ATOM     11  N   UNL     1      -3.361  13.156  20.534  0.00  0.00    +0.000 NA
ATOM     12  C   UNL     1      -2.811  12.236  19.693  0.00  0.00    +0.000 A 
ATOM     13  C   UNL     1      -1.371  11.910  19.896  0.00  0.00    +0.000 C 
ATOM     14  O   UNL     1      -0.690  12.396  20.796  0.00  0.00    +0.000 OA
ENDBRANCH   1   3
BRANCH   1  18
ATOM     15  C   UNL     1       2.416   6.899  19.261  0.00  0.00    +0.000 A 
ATOM     16  C   UNL     1       2.475   7.649  18.080  0.00  0.00    +0.000 A 
ATOM     17  C   UNL     1       1.894   8.914  17.985  0.00  0.00    +0.000 A 
ATOM     18  C   UNL     1       1.189   9.470  19.062  0.00  0.00    +0.000 A 
ATOM     19  C   UNL     1       1.122   8.740  20.246  0.00  0.00    +0.000 A 
ATOM     20  C   UNL     1       1.713   7.471  20.332  0.00  0.00    +0.000 A 
BRANCH  15  25
ATOM     21  C   UNL     1       3.620   1.513  18.697  0.00  0.00    +0.000 C 
ATOM     22  N   UNL     1       3.776   2.887  19.157  0.00  0.00    +0.000 NA
ATOM     23  C   UNL     1       2.611   3.318  19.960  0.00  0.00    +0.000 C 
ATOM     24  C   UNL     1       2.766   4.763  20.494  0.00  0.00    +0.000 C 
ATOM     25  N   UNL     1       3.062   5.688  19.388  0.00  0.00    +0.000 N 
ATOM     26  C   UNL     1       4.149   5.268  18.490  0.00  0.00    +0.000 C 
ATOM     27  C   UNL     1       3.925   3.817  18.016  0.00  0.00    +0.000 C 
ENDBRANCH  15  25
ENDBRANCH   1  18
TORSDOF 3
ENDMDL
MODEL 3
REMARK VINA RESULT:      -7.7      3.410      9.361
REMARK  Name = 
REMARK  4 active torsions:
REMARK  status: ('A' for Active; 'I' for Inactive)
REMARK    1  A    between atoms: C_1  and  N_2
REMARK    2  A    between atoms: N_5  and  C_6
REMARK    3  A    between atoms: C_9  and  N_10
REMARK    4  A    between atoms: N_10  and  C_11
REMARK                            x       y       z     vdW  Elec       q    Type
REMARK                         _______ _______ _______ _____ _____    ______ ____
ROOT
ATOM      1  N   UNL     1       3.106   5.640  19.824  0.00  0.00    +0.000 N 
ATOM      2  H   UNL     1       2.399   4.904  19.696  0.00  0.00    +0.000 HD
ENDROOT
BRANCH   1   3
ATOM      3  C   UNL     1       4.190   5.393  18.976  0.00  0.00    +0.000 C 
ATOM      4  C   UNL     1       5.451   5.675  19.316  0.00  0.00    +0.000 C 
ATOM      5  C   UNL     1       6.582   5.514  18.388  0.00  0.00    +0.000 C 
ATOM      6  O   UNL     1       7.721   5.789  18.739  0.00  0.00    +0.000 OA
ATOM      7  C   UNL     1       6.297   5.045  17.032  0.00  0.00    +0.000 A 
ATOM      8  C   UNL     1       7.329   4.942  16.096  0.00  0.00    +0.000 A 
ATOM      9  C   UNL     1       7.042   4.491  14.814  0.00  0.00    +0.000 A 
ATOM     10  C   UNL     1       5.728   4.165  14.515  0.00  0.00    +0.000 A 
ATOM     11  N   UNL     1       4.708   4.263  15.400  0.00  0.00    +0.000 NA
ATOM     12  C   UNL     1       5.011   4.702  16.654  0.00  0.00    +0.000 A 
ATOM     13  C   UNL     1       3.883   4.817  17.621  0.00  0.00    +0.000 C 
ATOM     14  O   UNL     1       2.727   4.499  17.350  0.00  0.00    +0.000 OA
ENDBRANCH   1   3
BRANCH   1  18
ATOM     15  C   UNL     1       0.955   9.331  19.663  0.00  0.00    +0.000 A 
ATOM     16  C   UNL     1       1.761   8.915  18.597  0.00  0.00    +0.000 A 
ATOM     17  C   UNL     1       2.477   7.717  18.642  0.00  0.00    +0.000 A 
ATOM     18  C   UNL     1       2.446   6.900  19.780  0.00  0.00    +0.000 A 
ATOM     19  C   UNL     1       1.648   7.296  20.850  0.00  0.00    +0.000 A 
ATOM     20  C   UNL     1       0.931   8.500  20.792  0.00  0.00    +0.000 A 
BRANCH  15  25
ATOM     21  C   UNL     1      -3.367  12.773  20.160  0.00  0.00    +0.000 C 
ATOM     22  N   UNL     1      -2.022  12.344  19.799  0.00  0.00    +0.000 NA
ATOM     23  C   UNL     1      -2.059  11.224  18.834  0.00  0.00    +0.000 C 
ATOM     24  C   UNL     1      -0.642  10.771  18.404  0.00  0.00    +0.000 C 
ATOM     25  N   UNL     1       0.180  10.468  19.588  0.00  0.00    +0.000 N 
ATOM     26  C   UNL     1       0.180  11.502  20.634  0.00  0.00    +0.000 C 
ATOM     27  C   UNL     1      -1.266  11.905  20.993  0.00  0.00    +0.000 C 
ENDBRANCH  15  25
ENDBRANCH   1  18
TORSDOF 3
ENDMDL
MODEL 4
REMARK VINA RESULT:      -7.7      2.635      8.894
REMARK  Name = 
REMARK  4 active torsions:
REMARK  status: ('A' for Active; 'I' for Inactive)
REMARK    1  A    between atoms: C_1  and  N_2
REMARK    2  A    between atoms: N_5  and  C_6
REMARK    3  A    between atoms: C_9  and  N_10
REMARK    4  A    between atoms: N_10  and  C_11
REMARK                            x       y       z     vdW  Elec       q    Type
REMARK                         _______ _______ _______ _____ _____    ______ ____
ROOT
ATOM      1  N   UNL     1       2.458   7.765  20.275  0.00  0.00    +0.000 N 
ATOM      2  H   UNL     1       2.594   7.864  21.290  0.00  0.00    +0.000 HD
ENDROOT
BRANCH   1   3
ATOM      3  C   UNL     1       2.363   6.408  19.951  0.00  0.00    +0.000 C 
ATOM      4  C   UNL     1       1.633   5.544  20.664  0.00  0.00    +0.000 C 
ATOM      5  C   UNL     1       1.615   4.099  20.388  0.00  0.00    +0.000 C 
ATOM      6  O   UNL     1       0.937   3.343  21.069  0.00  0.00    +0.000 OA
ATOM      7  C   UNL     1       2.451   3.596  19.297  0.00  0.00    +0.000 A 
ATOM      8  C   UNL     1       2.517   2.225  19.043  0.00  0.00    +0.000 A 
ATOM      9  C   UNL     1       3.313   1.764  18.001  0.00  0.00    +0.000 A 
ATOM     10  C   UNL     1       4.018   2.697  17.256  0.00  0.00    +0.000 A 
ATOM     11  N   UNL     1       3.977   4.031  17.487  0.00  0.00    +0.000 NA
ATOM     12  C   UNL     1       3.188   4.462  18.509  0.00  0.00    +0.000 A 
ATOM     13  C   UNL     1       3.154   5.930  18.764  0.00  0.00    +0.000 C 
ATOM     14  O   UNL     1       3.763   6.748  18.078  0.00  0.00    +0.000 OA
ENDBRANCH   1   3
BRANCH   1  18
ATOM     15  C   UNL     1      -0.764  10.308  19.082  0.00  0.00    +0.000 A 
ATOM     16  C   UNL     1       0.205   9.887  18.164  0.00  0.00    +0.000 A 
ATOM     17  C   UNL     1       1.268   9.065  18.544  0.00  0.00    +0.000 A 
ATOM     18  C   UNL     1       1.428   8.661  19.876  0.00  0.00    +0.000 A 
ATOM     19  C   UNL     1       0.472   9.068  20.803  0.00  0.00    +0.000 A 
ATOM     20  C   UNL     1      -0.594   9.891  20.409  0.00  0.00    +0.000 A 
BRANCH  15  25
ATOM     21  C   UNL     1      -6.000  12.090  18.651  0.00  0.00    +0.000 C 
ATOM     22  N   UNL     1      -4.566  12.052  18.398  0.00  0.00    +0.000 NA
ATOM     23  C   UNL     1      -4.160  10.757  17.810  0.00  0.00    +0.000 C 
ATOM     24  C   UNL     1      -2.645  10.701  17.496  0.00  0.00    +0.000 C 
ATOM     25  N   UNL     1      -1.861  11.047  18.694  0.00  0.00    +0.000 N 
ATOM     26  C   UNL     1      -2.279  12.276  19.386  0.00  0.00    +0.000 C 
ATOM     27  C   UNL     1      -3.800  12.256  19.648  0.00  0.00    +0.000 C 
ENDBRANCH  15  25
ENDBRANCH   1  18
TORSDOF 3
ENDMDL
MODEL 5
REMARK VINA RESULT:      -7.7      1.154      2.164
REMARK  Name = 
REMARK  4 active torsions:
REMARK  status: ('A' for Active; 'I' for Inactive)
REMARK    1  A    between atoms: C_1  and  N_2
REMARK    2  A    between atoms: N_5  and  C_6
REMARK    3  A    between atoms: C_9  and  N_10
REMARK    4  A    between atoms: N_10  and  C_11
REMARK                            x       y       z     vdW  Elec       q    Type
REMARK                         _______ _______ _______ _____ _____    ______ ____
ROOT
ATOM      1  N   UNL     1       0.679  11.335  18.281  0.00  0.00    +0.000 N 
ATOM      2  H   UNL     1       0.769  11.388  17.258  0.00  0.00    +0.000 HD
ENDROOT
BRANCH   1   3
ATOM      3  C   UNL     1      -0.615  11.714  18.653  0.00  0.00    +0.000 C 
ATOM      4  C   UNL     1      -0.857  12.594  19.629  0.00  0.00    +0.000 C 
ATOM      5  C   UNL     1      -2.216  12.915  20.093  0.00  0.00    +0.000 C 
ATOM      6  O   UNL     1      -2.393  13.723  20.994  0.00  0.00    +0.000 OA
ATOM      7  C   UNL     1      -3.340  12.220  19.465  0.00  0.00    +0.000 A 
ATOM      8  C   UNL     1      -4.642  12.442  19.918  0.00  0.00    +0.000 A 
ATOM      9  C   UNL     1      -5.698  11.776  19.308  0.00  0.00    +0.000 A 
ATOM     10  C   UNL     1      -5.407  10.907  18.268  0.00  0.00    +0.000 A 
ATOM     11  N   UNL     1      -4.155  10.667  17.814  0.00  0.00    +0.000 NA
ATOM     12  C   UNL     1      -3.134  11.333  18.423  0.00  0.00    +0.000 A 
ATOM     13  C   UNL     1      -1.756  11.059  17.925  0.00  0.00    +0.000 C 
ATOM     14  O   UNL     1      -1.516  10.305  16.984  0.00  0.00    +0.000 OA
ENDBRANCH   1   3
BRANCH   1  18
ATOM     15  C   UNL     1       2.100   7.479  19.460  0.00  0.00    +0.000 A 
ATOM     16  C   UNL     1       1.402   8.299  20.355  0.00  0.00    +0.000 A 
ATOM     17  C   UNL     1       0.943   9.565  19.984  0.00  0.00    +0.000 A 
ATOM     18  C   UNL     1       1.199  10.082  18.707  0.00  0.00    +0.000 A 
ATOM     19  C   UNL     1       1.890   9.279  17.803  0.00  0.00    +0.000 A 
ATOM     20  C   UNL     1       2.343   8.008  18.184  0.00  0.00    +0.000 A 
BRANCH  15  25
ATOM     21  C   UNL     1       2.754   1.975  19.220  0.00  0.00    +0.000 C 
ATOM     22  N   UNL     1       2.871   3.323  19.761  0.00  0.00    +0.000 NA
ATOM     23  C   UNL     1       1.540   3.912  20.023  0.00  0.00    +0.000 C 
ATOM     24  C   UNL     1       1.635   5.332  20.634  0.00  0.00    +0.000 C 
ATOM     25  N   UNL     1       2.479   6.196  19.793  0.00  0.00    +0.000 N 
ATOM     26  C   UNL     1       3.780   5.627  19.412  0.00  0.00    +0.000 C 
ATOM     27  C   UNL     1       3.598   4.211  18.826  0.00  0.00    +0.000 C 
ENDBRANCH  15  25
ENDBRANCH   1  18
TORSDOF 3
ENDMDL
MODEL 6
REMARK VINA RESULT:      -7.7      0.884      1.300
REMARK  Name = 
REMARK  4 active torsions:
REMARK  status: ('A' for Active; 'I' for Inactive)
REMARK    1  A    between atoms: C_1  and  N_2
REMARK    2  A    between atoms: N_5  and  C_6
REMARK    3  A    between atoms: C_9  and  N_10
REMARK    4  A    between atoms: N_10  and  C_11
REMARK                            x       y       z     vdW  Elec       q    Type
REMARK                         _______ _______ _______ _____ _____    ______ ____
ROOT
ATOM      1  N   UNL     1       0.605  11.072  19.137  0.00  0.00    +0.000 N 
ATOM      2  H   UNL     1       1.070  11.726  18.493  0.00  0.00    +0.000 HD
ENDROOT
BRANCH   1   3
ATOM      3  C   UNL     1      -0.778  11.137  18.946  0.00  0.00    +0.000 C 
ATOM      4  C   UNL     1      -1.400  10.499  17.950  0.00  0.00    +0.000 C 
ATOM      5  C   UNL     1      -2.839  10.649  17.683  0.00  0.00    +0.000 C 
ATOM      6  O   UNL     1      -3.367  10.049  16.757  0.00  0.00    +0.000 OA
ATOM      7  C   UNL     1      -3.607  11.554  18.538  0.00  0.00    +0.000 A 
ATOM      8  C   UNL     1      -4.961  11.779  18.281  0.00  0.00    +0.000 A 
ATOM      9  C   UNL     1      -5.676  12.639  19.106  0.00  0.00    +0.000 A 
ATOM     10  C   UNL     1      -5.004  13.246  20.156  0.00  0.00    +0.000 A 
ATOM     11  N   UNL     1      -3.692  13.050  20.423  0.00  0.00    +0.000 NA
ATOM     12  C   UNL     1      -3.010  12.201  19.606  0.00  0.00    +0.000 A 
ATOM     13  C   UNL     1      -1.563  11.997  19.899  0.00  0.00    +0.000 C 
ATOM     14  O   UNL     1      -0.987  12.520  20.850  0.00  0.00    +0.000 OA
ENDBRANCH   1   3
BRANCH   1  18
ATOM     15  C   UNL     1       2.464   7.239  18.778  0.00  0.00    +0.000 A 
ATOM     16  C   UNL     1       1.829   7.629  19.963  0.00  0.00    +0.000 A 
ATOM     17  C   UNL     1       1.228   8.882  20.096  0.00  0.00    +0.000 A 
ATOM     18  C   UNL     1       1.273   9.819  19.055  0.00  0.00    +0.000 A 
ATOM     19  C   UNL     1       1.898   9.448  17.867  0.00  0.00    +0.000 A 
ATOM     20  C   UNL     1       2.495   8.185  17.744  0.00  0.00    +0.000 A 
BRANCH  15  25
ATOM     21  C   UNL     1       4.454   2.193  19.942  0.00  0.00    +0.000 C 
ATOM     22  N   UNL     1       4.037   3.318  19.115  0.00  0.00    +0.000 NA
ATOM     23  C   UNL     1       4.830   4.529  19.420  0.00  0.00    +0.000 C 
ATOM     24  C   UNL     1       4.433   5.733  18.530  0.00  0.00    +0.000 C 
ATOM     25  N   UNL     1       2.982   5.973  18.612  0.00  0.00    +0.000 N 
ATOM     26  C   UNL     1       2.136   4.786  18.417  0.00  0.00    +0.000 C 
ATOM     27  C   UNL     1       2.606   3.633  19.328  0.00  0.00    +0.000 C 
ENDBRANCH  15  25
ENDBRANCH   1  18
TORSDOF 3
ENDMDL
MODEL 7
REMARK VINA RESULT:      -7.7      2.587      8.654
REMARK  Name = 
REMARK  4 active torsions:
REMARK  status: ('A' for Active; 'I' for Inactive)
REMARK    1  A    between atoms: C_1  and  N_2
REMARK    2  A    between atoms: N_5  and  C_6
REMARK    3  A    between atoms: C_9  and  N_10
REMARK    4  A    between atoms: N_10  and  C_11
REMARK                            x       y       z     vdW  Elec       q    Type
REMARK                         _______ _______ _______ _____ _____    ______ ____
ROOT
ATOM      1  N   UNL     1       2.245   7.965  20.313  0.00  0.00    +0.000 N 
ATOM      2  H   UNL     1       1.991   7.689  21.271  0.00  0.00    +0.000 HD
ENDROOT
BRANCH   1   3
ATOM      3  C   UNL     1       2.584   6.825  19.577  0.00  0.00    +0.000 C 
ATOM      4  C   UNL     1       3.400   6.864  18.520  0.00  0.00    +0.000 C 
ATOM      5  C   UNL     1       3.676   5.687  17.682  0.00  0.00    +0.000 C 
ATOM      6  O   UNL     1       4.426   5.768  16.719  0.00  0.00    +0.000 OA
ATOM      7  C   UNL     1       3.006   4.430  18.019  0.00  0.00    +0.000 A 
ATOM      8  C   UNL     1       3.185   3.304  17.212  0.00  0.00    +0.000 A 
ATOM      9  C   UNL     1       2.544   2.118  17.549  0.00  0.00    +0.000 A 
ATOM     10  C   UNL     1       1.743   2.107  18.680  0.00  0.00    +0.000 A 
ATOM     11  N   UNL     1       1.547   3.186  19.475  0.00  0.00    +0.000 NA
ATOM     12  C   UNL     1       2.187   4.337  19.130  0.00  0.00    +0.000 A 
ATOM     13  C   UNL     1       1.960   5.524  20.003  0.00  0.00    +0.000 C 
ATOM     14  O   UNL     1       1.269   5.492  21.018  0.00  0.00    +0.000 OA
ENDBRANCH   1   3
BRANCH   1  18
ATOM     15  C   UNL     1      -0.898  10.474  18.864  0.00  0.00    +0.000 A 
ATOM     16  C   UNL     1       0.073   9.957  17.999  0.00  0.00    +0.000 A 
ATOM     17  C   UNL     1       1.110   9.145  18.462  0.00  0.00    +0.000 A 
ATOM     18  C   UNL     1       1.242   8.848  19.825  0.00  0.00    +0.000 A 
ATOM     19  C   UNL     1       0.284   9.352  20.701  0.00  0.00    +0.000 A 
ATOM     20  C   UNL     1      -0.756  10.164  20.224  0.00  0.00    +0.000 A 
BRANCH  15  25
ATOM     21  C   UNL     1      -6.094  11.885  17.527  0.00  0.00    +0.000 C 
ATOM     22  N   UNL     1      -4.651  12.034  17.663  0.00  0.00    +0.000 NA
ATOM     23  C   UNL     1      -3.932  10.995  16.894  0.00  0.00    +0.000 C 
ATOM     24  C   UNL     1      -2.394  11.151  16.990  0.00  0.00    +0.000 C 
ATOM     25  N   UNL     1      -1.972  11.203  18.400  0.00  0.00    +0.000 N 
ATOM     26  C   UNL     1      -2.717  12.149  19.245  0.00  0.00    +0.000 C 
ATOM     27  C   UNL     1      -4.237  11.935  19.080  0.00  0.00    +0.000 C 
ENDBRANCH  15  25
ENDBRANCH   1  18
TORSDOF 3
ENDMDL
MODEL 8
REMARK VINA RESULT:      -7.6      3.581      9.363
REMARK  Name = 
REMARK  4 active torsions:
REMARK  status: ('A' for Active; 'I' for Inactive)
REMARK    1  A    between atoms: C_1  and  N_2
REMARK    2  A    between atoms: N_5  and  C_6
REMARK    3  A    between atoms: C_9  and  N_10
REMARK    4  A    between atoms: N_10  and  C_11
REMARK                            x       y       z     vdW  Elec       q    Type
REMARK                         _______ _______ _______ _____ _____    ______ ____
ROOT
ATOM      1  N   UNL     1       3.204   5.207  19.609  0.00  0.00    +0.000 N 
ATOM      2  H   UNL     1       2.540   4.447  19.413  0.00  0.00    +0.000 HD
ENDROOT
BRANCH   1   3
ATOM      3  C   UNL     1       4.300   5.098  18.747  0.00  0.00    +0.000 C 
ATOM      4  C   UNL     1       5.528   5.501  19.086  0.00  0.00    +0.000 C 
ATOM      5  C   UNL     1       6.660   5.485  18.145  0.00  0.00    +0.000 C 
ATOM      6  O   UNL     1       7.767   5.868  18.496  0.00  0.00    +0.000 OA
ATOM      7  C   UNL     1       6.412   5.025  16.778  0.00  0.00    +0.000 A 
ATOM      8  C   UNL     1       7.439   5.056  15.833  0.00  0.00    +0.000 A 
ATOM      9  C   UNL     1       7.188   4.612  14.540  0.00  0.00    +0.000 A 
ATOM     10  C   UNL     1       5.912   4.159  14.243  0.00  0.00    +0.000 A 
ATOM     11  N   UNL     1       4.897   4.125  15.137  0.00  0.00    +0.000 NA
ATOM     12  C   UNL     1       5.165   4.560  16.400  0.00  0.00    +0.000 A 
ATOM     13  C   UNL     1       4.041   4.530  17.378  0.00  0.00    +0.000 C 
ATOM     14  O   UNL     1       2.922   4.100  17.107  0.00  0.00    +0.000 OA
ENDBRANCH   1   3
BRANCH   1  18
ATOM     15  C   UNL     1       1.183   8.967  19.837  0.00  0.00    +0.000 A 
ATOM     16  C   UNL     1       1.145   8.058  20.901  0.00  0.00    +0.000 A 
ATOM     17  C   UNL     1       1.792   6.823  20.834  0.00  0.00    +0.000 A 
ATOM     18  C   UNL     1       2.475   6.427  19.676  0.00  0.00    +0.000 A 
ATOM     19  C   UNL     1       2.526   7.319  18.609  0.00  0.00    +0.000 A 
ATOM     20  C   UNL     1       1.876   8.559  18.688  0.00  0.00    +0.000 A 
BRANCH  15  25
ATOM     21  C   UNL     1      -2.586  12.991  20.448  0.00  0.00    +0.000 C 
ATOM     22  N   UNL     1      -1.273  12.398  20.236  0.00  0.00    +0.000 NA
ATOM     23  C   UNL     1      -1.253  11.563  19.015  0.00  0.00    +0.000 C 
ATOM     24  C   UNL     1       0.142  10.948  18.744  0.00  0.00    +0.000 C 
ATOM     25  N   UNL     1       0.620  10.222  19.932  0.00  0.00    +0.000 N 
ATOM     26  C   UNL     1       0.535  10.963  21.199  0.00  0.00    +0.000 C 
ATOM     27  C   UNL     1      -0.879  11.552  21.385  0.00  0.00    +0.000 C 
ENDBRANCH  15  25
ENDBRANCH   1  18
TORSDOF 3
ENDMDL
MODEL 9
REMARK VINA RESULT:      -7.6      3.460      9.401
REMARK  Name = 
REMARK  4 active torsions:
REMARK  status: ('A' for Active; 'I' for Inactive)
REMARK    1  A    between atoms: C_1  and  N_2
REMARK    2  A    between atoms: N_5  and  C_6
REMARK    3  A    between atoms: C_9  and  N_10
REMARK    4  A    between atoms: N_10  and  C_11
REMARK                            x       y       z     vdW  Elec       q    Type
REMARK                         _______ _______ _______ _____ _____    ______ ____
ROOT
ATOM      1  N   UNL     1       2.741   5.536  19.889  0.00  0.00    +0.000 N 
ATOM      2  H   UNL     1       1.985   4.894  19.615  0.00  0.00    +0.000 HD
ENDROOT
BRANCH   1   3
ATOM      3  C   UNL     1       3.884   5.255  19.134  0.00  0.00    +0.000 C 
ATOM      4  C   UNL     1       5.121   5.432  19.604  0.00  0.00    +0.000 C 
ATOM      5  C   UNL     1       6.324   5.238  18.778  0.00  0.00    +0.000 C 
ATOM      6  O   UNL     1       7.439   5.416  19.248  0.00  0.00    +0.000 OA
ATOM      7  C   UNL     1       6.141   4.855  17.378  0.00  0.00    +0.000 A 
ATOM      8  C   UNL     1       7.250   4.725  16.539  0.00  0.00    +0.000 A 
ATOM      9  C   UNL     1       7.059   4.357  15.212  0.00  0.00    +0.000 A 
ATOM     10  C   UNL     1       5.762   4.138  14.775  0.00  0.00    +0.000 A 
ATOM     11  N   UNL     1       4.670   4.264  15.566  0.00  0.00    +0.000 NA
ATOM     12  C   UNL     1       4.879   4.621  16.864  0.00  0.00    +0.000 A 
ATOM     13  C   UNL     1       3.672   4.767  17.726  0.00  0.00    +0.000 C 
ATOM     14  O   UNL     1       2.530   4.543  17.332  0.00  0.00    +0.000 OA
ENDBRANCH   1   3
BRANCH   1  18
ATOM     15  C   UNL     1       0.977   9.430  19.929  0.00  0.00    +0.000 A 
ATOM     16  C   UNL     1       1.678   8.963  18.811  0.00  0.00    +0.000 A 
ATOM     17  C   UNL     1       2.268   7.698  18.790  0.00  0.00    +0.000 A 
ATOM     18  C   UNL     1       2.213   6.857  19.910  0.00  0.00    +0.000 A 
ATOM     19  C   UNL     1       1.518   7.303  21.030  0.00  0.00    +0.000 A 
ATOM     20  C   UNL     1       0.926   8.575  21.039  0.00  0.00    +0.000 A 
BRANCH  15  25
ATOM     21  C   UNL     1      -0.148  14.781  18.987  0.00  0.00    +0.000 C 
ATOM     22  N   UNL     1      -0.360  13.427  19.484  0.00  0.00    +0.000 NA
ATOM     23  C   UNL     1       0.698  13.037  20.442  0.00  0.00    +0.000 C 
ATOM     24  C   UNL     1       0.478  11.615  21.015  0.00  0.00    +0.000 C 
ATOM     25  N   UNL     1       0.320  10.642  19.922  0.00  0.00    +0.000 N 
ATOM     26  C   UNL     1      -0.647  11.017  18.880  0.00  0.00    +0.000 C 
ATOM     27  C   UNL     1      -0.366  12.448  18.374  0.00  0.00    +0.000 C 
ENDBRANCH  15  25
ENDBRANCH   1  18
TORSDOF 3
ENDMDL
