MODEL 1
REMARK VINA RESULT:      -7.9      0.000      0.000
REMARK  Name = 
REMARK  5 active torsions:
REMARK  status: ('A' for Active; 'I' for Inactive)
REMARK    1  A    between atoms: C_2  and  C_3
REMARK    2  A    between atoms: C_3  and  C_4
REMARK    3  A    between atoms: C_4  and  C_5
REMARK    4  A    between atoms: N_17  and  C_18
REMARK    5  A    between atoms: C_18  and  C_19
REMARK                            x       y       z     vdW  Elec       q    Type
REMARK                         _______ _______ _______ _____ _____    ______ ____
ROOT
ATOM      1  O   UNL     1       7.395   3.603  11.860  0.00  0.00    +0.000 OA
ATOM      2  C   UNL     1       6.331   3.532  12.478  0.00  0.00    +0.000 C 
ATOM      3  N   UNL     1       6.136   4.156  13.702  0.00  0.00    +0.000 N 
ATOM      4  C   UNL     1       4.840   4.278  14.364  0.00  0.00    +0.000 C 
ATOM      5  C   UNL     1       4.979   4.051  15.861  0.00  0.00    +0.000 C 
ATOM      6  C   UNL     1       6.026   4.988  16.516  0.00  0.00    +0.000 C 
ATOM      7  C   UNL     1       5.606   6.473  16.515  0.00  0.00    +0.000 C 
ATOM      8  C   UNL     1       4.343   6.728  17.322  0.00  0.00    +0.000 C 
ATOM      9  C   UNL     1       4.228   5.975  18.636  0.00  0.00    +0.000 C 
ATOM     10  O   UNL     1       3.403   6.333  19.475  0.00  0.00    +0.000 OA
ATOM     11  N   UNL     1       4.943   4.794  18.728  0.00  0.00    +0.000 N 
ATOM     12  C   UNL     1       6.189   4.596  17.993  0.00  0.00    +0.000 C 
ATOM     13  C   UNL     1       7.362   4.814  15.755  0.00  0.00    +0.000 C 
ATOM     14  C   UNL     1       7.208   4.992  14.241  0.00  0.00    +0.000 C 
ENDROOT
BRANCH   2  15
ATOM     15  C   UNL     1       5.166   2.741  11.910  0.00  0.00    +0.000 C 
BRANCH  15  16
ATOM     16  C   UNL     1       4.767   3.213  10.515  0.00  0.00    +0.000 C 
BRANCH  16  17
ATOM     17  C   UNL     1       3.284   3.491  10.377  0.00  0.00    +0.000 C 
ATOM     18  F   UNL     1       2.999   4.808  10.292  0.00  0.00    +0.000 F 
ATOM     19  F   UNL     1       2.818   2.918   9.239  0.00  0.00    +0.000 F 
ATOM     20  F   UNL     1       2.577   2.965  11.398  0.00  0.00    +0.000 F 
ENDBRANCH  16  17
ENDBRANCH  15  16
ENDBRANCH   2  15
BRANCH  11  21
ATOM     21  C   UNL     1       4.550   3.804  19.724  0.00  0.00    +0.000 C 
BRANCH  21  22
ATOM     22  C   UNL     1       3.125   3.343  19.614  0.00  0.00    +0.000 A 
ATOM     23  C   UNL     1       2.643   2.817  18.411  0.00  0.00    +0.000 A 
ATOM     24  C   UNL     1       1.336   2.363  18.359  0.00  0.00    +0.000 A 
ATOM     25  N   UNL     1       0.488   2.400  19.408  0.00  0.00    +0.000 NA
ATOM     26  C   UNL     1       0.968   2.918  20.557  0.00  0.00    +0.000 A 
ATOM     27  C   UNL     1       2.260   3.399  20.710  0.00  0.00    +0.000 A 
ENDBRANCH  21  22
ENDBRANCH  11  21
TORSDOF 5
ENDMDL
MODEL 2
REMARK VINA RESULT:      -7.8      0.251      1.192
REMARK  Name = 
REMARK  5 active torsions:
REMARK  status: ('A' for Active; 'I' for Inactive)
REMARK    1  A    between atoms: C_2  and  C_3
REMARK    2  A    between atoms: C_3  and  C_4
REMARK    3  A    between atoms: C_4  and  C_5
REMARK    4  A    between atoms: N_17  and  C_18
REMARK    5  A    between atoms: C_18  and  C_19
REMARK                            x       y       z     vdW  Elec       q    Type
REMARK                         _______ _______ _______ _____ _____    ______ ____
ROOT
ATOM      1  O   UNL     1       7.386   3.678  11.909  0.00  0.00    +0.000 OA
ATOM      2  C   UNL     1       6.314   3.640  12.514  0.00  0.00    +0.000 C 
ATOM      3  N   UNL     1       6.142   4.216  13.765  0.00  0.00    +0.000 N 
ATOM      4  C   UNL     1       4.849   4.381  14.422  0.00  0.00    +0.000 C 
ATOM      5  C   UNL     1       4.958   4.075  15.908  0.00  0.00    +0.000 C 
ATOM      6  C   UNL     1       6.050   4.917  16.615  0.00  0.00    +0.000 C 
ATOM      7  C   UNL     1       5.718   6.422  16.683  0.00  0.00    +0.000 C 
ATOM      8  C   UNL     1       4.462   6.711  17.490  0.00  0.00    +0.000 C 
ATOM      9  C   UNL     1       4.290   5.905  18.765  0.00  0.00    +0.000 C 
ATOM     10  O   UNL     1       3.478   6.270  19.615  0.00  0.00    +0.000 OA
ATOM     11  N   UNL     1       4.935   4.680  18.807  0.00  0.00    +0.000 N 
ATOM     12  C   UNL     1       6.174   4.446  18.073  0.00  0.00    +0.000 C 
ATOM     13  C   UNL     1       7.382   4.701  15.858  0.00  0.00    +0.000 C 
ATOM     14  C   UNL     1       7.255   4.961  14.352  0.00  0.00    +0.000 C 
ENDROOT
BRANCH   2  15
ATOM     15  C   UNL     1       5.111   2.947  11.899  0.00  0.00    +0.000 C 
BRANCH  15  16
ATOM     16  C   UNL     1       4.633   3.632  10.622  0.00  0.00    +0.000 C 
BRANCH  16  17
ATOM     17  C   UNL     1       3.156   3.433  10.352  0.00  0.00    +0.000 C 
ATOM     18  F   UNL     1       2.914   2.531   9.377  0.00  0.00    +0.000 F 
ATOM     19  F   UNL     1       2.549   2.968  11.473  0.00  0.00    +0.000 F 
ATOM     20  F   UNL     1       2.545   4.590  10.026  0.00  0.00    +0.000 F 
ENDBRANCH  16  17
ENDBRANCH  15  16
ENDBRANCH   2  15
BRANCH  11  21
ATOM     21  C   UNL     1       4.473   3.669  19.750  0.00  0.00    +0.000 C 
BRANCH  21  22
ATOM     22  C   UNL     1       3.063   3.204  19.525  0.00  0.00    +0.000 A 
ATOM     23  C   UNL     1       2.067   3.487  20.465  0.00  0.00    +0.000 A 
ATOM     24  C   UNL     1       0.770   3.080  20.204  0.00  0.00    +0.000 A 
ATOM     25  N   UNL     1       0.404   2.415  19.088  0.00  0.00    +0.000 NA
ATOM     26  C   UNL     1       1.380   2.144  18.198  0.00  0.00    +0.000 A 
ATOM     27  C   UNL     1       2.707   2.509  18.367  0.00  0.00    +0.000 A 
ENDBRANCH  21  22
ENDBRANCH  11  21
TORSDOF 5
ENDMDL
MODEL 3
REMARK VINA RESULT:      -7.2      7.132      9.135
REMARK  Name = 
REMARK  5 active torsions:
REMARK  status: ('A' for Active; 'I' for Inactive)
REMARK    1  A    between atoms: C_2  and  C_3
REMARK    2  A    between atoms: C_3  and  C_4
REMARK    3  A    between atoms: C_4  and  C_5
REMARK    4  A    between atoms: N_17  and  C_18
REMARK    5  A    between atoms: C_18  and  C_19
REMARK                            x       y       z     vdW  Elec       q    Type
REMARK                         _______ _______ _______ _____ _____    ______ ____
ROOT
ATOM      1  O   UNL     1       2.637   5.668  20.586  0.00  0.00    +0.000 OA
ATOM      2  C   UNL     1       2.536   6.433  19.626  0.00  0.00    +0.000 C 
ATOM      3  N   UNL     1       1.946   7.685  19.729  0.00  0.00    +0.000 N 
ATOM      4  C   UNL     1       1.994   8.703  18.683  0.00  0.00    +0.000 C 
ATOM      5  C   UNL     1       0.652   9.409  18.560  0.00  0.00    +0.000 C 
ATOM      6  C   UNL     1       0.168  10.015  19.902  0.00  0.00    +0.000 C 
ATOM      7  C   UNL     1       1.038  11.191  20.395  0.00  0.00    +0.000 C 
ATOM      8  C   UNL     1       1.022  12.374  19.440  0.00  0.00    +0.000 C 
ATOM      9  C   UNL     1      -0.324  12.717  18.826  0.00  0.00    +0.000 C 
ATOM     10  O   UNL     1      -0.490  13.811  18.288  0.00  0.00    +0.000 OA
ATOM     11  N   UNL     1      -1.239  11.681  18.741  0.00  0.00    +0.000 N 
ATOM     12  C   UNL     1      -1.245  10.588  19.708  0.00  0.00    +0.000 C 
ATOM     13  C   UNL     1       0.157   8.885  20.958  0.00  0.00    +0.000 C 
ATOM     14  C   UNL     1       1.495   8.141  21.042  0.00  0.00    +0.000 C 
ENDROOT
BRANCH   2  15
ATOM     15  C   UNL     1       3.069   6.028  18.263  0.00  0.00    +0.000 C 
BRANCH  15  16
ATOM     16  C   UNL     1       3.290   4.522  18.147  0.00  0.00    +0.000 C 
BRANCH  16  17
ATOM     17  C   UNL     1       2.025   3.753  17.829  0.00  0.00    +0.000 C 
ATOM     18  F   UNL     1       1.435   3.230  18.925  0.00  0.00    +0.000 F 
ATOM     19  F   UNL     1       1.118   4.587  17.260  0.00  0.00    +0.000 F 
ATOM     20  F   UNL     1       2.249   2.758  16.948  0.00  0.00    +0.000 F 
ENDBRANCH  16  17
ENDBRANCH  15  16
ENDBRANCH   2  15
BRANCH  11  21
ATOM     21  C   UNL     1      -2.337  11.783  17.787  0.00  0.00    +0.000 C 
BRANCH  21  22
ATOM     22  C   UNL     1      -3.705  11.678  18.398  0.00  0.00    +0.000 A 
ATOM     23  C   UNL     1      -4.047  12.460  19.505  0.00  0.00    +0.000 A 
ATOM     24  C   UNL     1      -5.330  12.367  20.016  0.00  0.00    +0.000 A 
ATOM     25  N   UNL     1      -6.282  11.555  19.507  0.00  0.00    +0.000 NA
ATOM     26  C   UNL     1      -5.930  10.802  18.445  0.00  0.00    +0.000 A 
ATOM     27  C   UNL     1      -4.672  10.824  17.862  0.00  0.00    +0.000 A 
ENDBRANCH  21  22
ENDBRANCH  11  21
TORSDOF 5
ENDMDL
MODEL 4
REMARK VINA RESULT:      -7.2      1.698      2.171
REMARK  Name = 
REMARK  5 active torsions:
REMARK  status: ('A' for Active; 'I' for Inactive)
REMARK    1  A    between atoms: C_2  and  C_3
REMARK    2  A    between atoms: C_3  and  C_4
REMARK    3  A    between atoms: C_4  and  C_5
REMARK    4  A    between atoms: N_17  and  C_18
REMARK    5  A    between atoms: C_18  and  C_19
REMARK                            x       y       z     vdW  Elec       q    Type
REMARK                         _______ _______ _______ _____ _____    ______ ____
ROOT
ATOM      1  O   UNL     1       7.651   4.121  11.888  0.00  0.00    +0.000 OA
ATOM      2  C   UNL     1       6.574   3.965  12.466  0.00  0.00    +0.000 C 
ATOM      3  N   UNL     1       6.331   4.468  13.737  0.00  0.00    +0.000 N 
ATOM      4  C   UNL     1       5.015   4.495  14.370  0.00  0.00    +0.000 C 
ATOM      5  C   UNL     1       5.122   4.132  15.844  0.00  0.00    +0.000 C 
ATOM      6  C   UNL     1       6.125   5.031  16.611  0.00  0.00    +0.000 C 
ATOM      7  C   UNL     1       5.665   6.498  16.736  0.00  0.00    +0.000 C 
ATOM      8  C   UNL     1       4.374   6.644  17.527  0.00  0.00    +0.000 C 
ATOM      9  C   UNL     1       4.248   5.770  18.762  0.00  0.00    +0.000 C 
ATOM     10  O   UNL     1       3.391   6.027  19.608  0.00  0.00    +0.000 OA
ATOM     11  N   UNL     1       4.993   4.604  18.765  0.00  0.00    +0.000 N 
ATOM     12  C   UNL     1       6.262   4.508  18.050  0.00  0.00    +0.000 C 
ATOM     13  C   UNL     1       7.485   4.962  15.876  0.00  0.00    +0.000 C 
ATOM     14  C   UNL     1       7.364   5.277  14.380  0.00  0.00    +0.000 C 
ENDROOT
BRANCH   2  15
ATOM     15  C   UNL     1       5.446   3.202  11.795  0.00  0.00    +0.000 C 
BRANCH  15  16
ATOM     16  C   UNL     1       5.556   1.694  12.006  0.00  0.00    +0.000 C 
BRANCH  16  17
ATOM     17  C   UNL     1       6.485   1.018  11.018  0.00  0.00    +0.000 C 
ATOM     18  F   UNL     1       7.786   1.111  11.367  0.00  0.00    +0.000 F 
ATOM     19  F   UNL     1       6.193  -0.306  10.954  0.00  0.00    +0.000 F 
ATOM     20  F   UNL     1       6.340   1.512   9.772  0.00  0.00    +0.000 F 
ENDBRANCH  16  17
ENDBRANCH  15  16
ENDBRANCH   2  15
BRANCH  11  21
ATOM     21  C   UNL     1       4.602   3.516  19.654  0.00  0.00    +0.000 C 
BRANCH  21  22
ATOM     22  C   UNL     1       3.162   3.106  19.540  0.00  0.00    +0.000 A 
ATOM     23  C   UNL     1       2.308   3.209  20.643  0.00  0.00    +0.000 A 
ATOM     24  C   UNL     1       0.977   2.861  20.490  0.00  0.00    +0.000 A 
ATOM     25  N   UNL     1       0.446   2.421  19.329  0.00  0.00    +0.000 NA
ATOM     26  C   UNL     1       1.287   2.321  18.279  0.00  0.00    +0.000 A 
ATOM     27  C   UNL     1       2.635   2.643  18.332  0.00  0.00    +0.000 A 
ENDBRANCH  21  22
ENDBRANCH  11  21
TORSDOF 5
ENDMDL
MODEL 5
REMARK VINA RESULT:      -7.2      4.681      8.110
REMARK  Name = 
REMARK  5 active torsions:
REMARK  status: ('A' for Active; 'I' for Inactive)
REMARK    1  A    between atoms: C_2  and  C_3
REMARK    2  A    between atoms: C_3  and  C_4
REMARK    3  A    between atoms: C_4  and  C_5
REMARK    4  A    between atoms: N_17  and  C_18
REMARK    5  A    between atoms: C_18  and  C_19
REMARK                            x       y       z     vdW  Elec       q    Type
REMARK                         _______ _______ _______ _____ _____    ______ ____
ROOT
ATOM      1  O   UNL     1       0.444   8.298  21.599  0.00  0.00    +0.000 OA
ATOM      2  C   UNL     1       1.127   8.390  20.578  0.00  0.00    +0.000 C 
ATOM      3  N   UNL     1       1.742   7.293  19.991  0.00  0.00    +0.000 N 
ATOM      4  C   UNL     1       2.377   7.314  18.676  0.00  0.00    +0.000 C 
ATOM      5  C   UNL     1       3.671   6.514  18.692  0.00  0.00    +0.000 C 
ATOM      6  C   UNL     1       3.471   5.060  19.188  0.00  0.00    +0.000 C 
ATOM      7  C   UNL     1       2.639   4.191  18.221  0.00  0.00    +0.000 C 
ATOM      8  C   UNL     1       3.304   4.020  16.864  0.00  0.00    +0.000 C 
ATOM      9  C   UNL     1       4.806   3.795  16.882  0.00  0.00    +0.000 C 
ATOM     10  O   UNL     1       5.371   3.361  15.878  0.00  0.00    +0.000 OA
ATOM     11  N   UNL     1       5.485   4.282  17.985  0.00  0.00    +0.000 N 
ATOM     12  C   UNL     1       4.844   4.377  19.293  0.00  0.00    +0.000 C 
ATOM     13  C   UNL     1       2.784   5.118  20.572  0.00  0.00    +0.000 C 
ATOM     14  C   UNL     1       1.508   5.968  20.564  0.00  0.00    +0.000 C 
ENDROOT
BRANCH   2  15
ATOM     15  C   UNL     1       1.324   9.737  19.906  0.00  0.00    +0.000 C 
BRANCH  15  16
ATOM     16  C   UNL     1       0.031  10.542  19.822  0.00  0.00    +0.000 C 
BRANCH  16  17
ATOM     17  C   UNL     1      -0.700  10.368  18.507  0.00  0.00    +0.000 C 
ATOM     18  F   UNL     1      -1.931   9.831  18.654  0.00  0.00    +0.000 F 
ATOM     19  F   UNL     1      -0.872  11.578  17.919  0.00  0.00    +0.000 F 
ATOM     20  F   UNL     1      -0.002   9.607  17.641  0.00  0.00    +0.000 F 
ENDBRANCH  16  17
ENDBRANCH  15  16
ENDBRANCH   2  15
BRANCH  11  21
ATOM     21  C   UNL     1       6.919   4.522  17.884  0.00  0.00    +0.000 C 
BRANCH  21  22
ATOM     22  C   UNL     1       7.315   5.969  17.970  0.00  0.00    +0.000 A 
ATOM     23  C   UNL     1       8.161   6.411  18.992  0.00  0.00    +0.000 A 
ATOM     24  C   UNL     1       8.539   7.742  19.015  0.00  0.00    +0.000 A 
ATOM     25  N   UNL     1       8.134   8.652  18.103  0.00  0.00    +0.000 NA
ATOM     26  C   UNL     1       7.311   8.208  17.131  0.00  0.00    +0.000 A 
ATOM     27  C   UNL     1       6.876   6.896  17.022  0.00  0.00    +0.000 A 
ENDBRANCH  21  22
ENDBRANCH  11  21
TORSDOF 5
ENDMDL
MODEL 6
REMARK VINA RESULT:      -7.2      4.636      8.064
REMARK  Name = 
REMARK  5 active torsions:
REMARK  status: ('A' for Active; 'I' for Inactive)
REMARK    1  A    between atoms: C_2  and  C_3
REMARK    2  A    between atoms: C_3  and  C_4
REMARK    3  A    between atoms: C_4  and  C_5
REMARK    4  A    between atoms: N_17  and  C_18
REMARK    5  A    between atoms: C_18  and  C_19
REMARK                            x       y       z     vdW  Elec       q    Type
REMARK                         _______ _______ _______ _____ _____    ______ ____
ROOT
ATOM      1  O   UNL     1       0.411   8.047  21.690  0.00  0.00    +0.000 OA
ATOM      2  C   UNL     1       1.102   8.189  20.680  0.00  0.00    +0.000 C 
ATOM      3  N   UNL     1       1.743   7.125  20.060  0.00  0.00    +0.000 N 
ATOM      4  C   UNL     1       2.390   7.206  18.753  0.00  0.00    +0.000 C 
ATOM      5  C   UNL     1       3.699   6.430  18.754  0.00  0.00    +0.000 C 
ATOM      6  C   UNL     1       3.520   4.955  19.193  0.00  0.00    +0.000 C 
ATOM      7  C   UNL     1       2.714   4.107  18.186  0.00  0.00    +0.000 C 
ATOM      8  C   UNL     1       3.395   3.998  16.831  0.00  0.00    +0.000 C 
ATOM      9  C   UNL     1       4.900   3.800  16.856  0.00  0.00    +0.000 C 
ATOM     10  O   UNL     1       5.483   3.414  15.843  0.00  0.00    +0.000 OA
ATOM     11  N   UNL     1       5.559   4.258  17.984  0.00  0.00    +0.000 N 
ATOM     12  C   UNL     1       4.904   4.293  19.288  0.00  0.00    +0.000 C 
ATOM     13  C   UNL     1       2.819   4.950  20.572  0.00  0.00    +0.000 C 
ATOM     14  C   UNL     1       1.528   5.777  20.581  0.00  0.00    +0.000 C 
ENDROOT
BRANCH   2  15
ATOM     15  C   UNL     1       1.281   9.563  20.060  0.00  0.00    +0.000 C 
BRANCH  15  16
ATOM     16  C   UNL     1      -0.036  10.324  19.938  0.00  0.00    +0.000 C 
BRANCH  16  17
ATOM     17  C   UNL     1      -0.592  10.338  18.529  0.00  0.00    +0.000 C 
ATOM     18  F   UNL     1       0.136   9.596  17.667  0.00  0.00    +0.000 F 
ATOM     19  F   UNL     1      -1.844   9.814  18.531  0.00  0.00    +0.000 F 
ATOM     20  F   UNL     1      -0.691  11.589  18.040  0.00  0.00    +0.000 F 
ENDBRANCH  16  17
ENDBRANCH  15  16
ENDBRANCH   2  15
BRANCH  11  21
ATOM     21  C   UNL     1       6.990   4.528  17.907  0.00  0.00    +0.000 C 
BRANCH  21  22
ATOM     22  C   UNL     1       7.350   5.986  17.926  0.00  0.00    +0.000 A 
ATOM     23  C   UNL     1       6.778   6.868  17.005  0.00  0.00    +0.000 A 
ATOM     24  C   UNL     1       7.101   8.211  17.079  0.00  0.00    +0.000 A 
ATOM     25  N   UNL     1       7.948   8.729  17.994  0.00  0.00    +0.000 NA
ATOM     26  C   UNL     1       8.497   7.861  18.868  0.00  0.00    +0.000 A 
ATOM     27  C   UNL     1       8.237   6.499  18.875  0.00  0.00    +0.000 A 
ENDBRANCH  21  22
ENDBRANCH  11  21
TORSDOF 5
ENDMDL
MODEL 7
REMARK VINA RESULT:      -7.1      1.698      1.950
REMARK  Name = 
REMARK  5 active torsions:
REMARK  status: ('A' for Active; 'I' for Inactive)
REMARK    1  A    between atoms: C_2  and  C_3
REMARK    2  A    between atoms: C_3  and  C_4
REMARK    3  A    between atoms: C_4  and  C_5
REMARK    4  A    between atoms: N_17  and  C_18
REMARK    5  A    between atoms: C_18  and  C_19
REMARK                            x       y       z     vdW  Elec       q    Type
REMARK                         _______ _______ _______ _____ _____    ______ ____
ROOT
ATOM      1  O   UNL     1       7.656   4.137  11.896  0.00  0.00    +0.000 OA
ATOM      2  C   UNL     1       6.582   3.974  12.475  0.00  0.00    +0.000 C 
ATOM      3  N   UNL     1       6.337   4.473  13.747  0.00  0.00    +0.000 N 
ATOM      4  C   UNL     1       5.022   4.490  14.383  0.00  0.00    +0.000 C 
ATOM      5  C   UNL     1       5.133   4.125  15.855  0.00  0.00    +0.000 C 
ATOM      6  C   UNL     1       6.132   5.027  16.623  0.00  0.00    +0.000 C 
ATOM      7  C   UNL     1       5.664   6.492  16.752  0.00  0.00    +0.000 C 
ATOM      8  C   UNL     1       4.373   6.629  17.545  0.00  0.00    +0.000 C 
ATOM      9  C   UNL     1       4.253   5.751  18.778  0.00  0.00    +0.000 C 
ATOM     10  O   UNL     1       3.397   6.001  19.626  0.00  0.00    +0.000 OA
ATOM     11  N   UNL     1       5.005   4.589  18.778  0.00  0.00    +0.000 N 
ATOM     12  C   UNL     1       6.273   4.501  18.060  0.00  0.00    +0.000 C 
ATOM     13  C   UNL     1       7.491   4.968  15.886  0.00  0.00    +0.000 C 
ATOM     14  C   UNL     1       7.367   5.286  14.391  0.00  0.00    +0.000 C 
ENDROOT
BRANCH   2  15
ATOM     15  C   UNL     1       5.457   3.206  11.804  0.00  0.00    +0.000 C 
BRANCH  15  16
ATOM     16  C   UNL     1       5.560   1.701  12.034  0.00  0.00    +0.000 C 
BRANCH  16  17
ATOM     17  C   UNL     1       6.455   1.001  11.032  0.00  0.00    +0.000 C 
ATOM     18  F   UNL     1       6.363   1.521   9.789  0.00  0.00    +0.000 F 
ATOM     19  F   UNL     1       7.751   1.132  11.413  0.00  0.00    +0.000 F 
ATOM     20  F   UNL     1       6.197  -0.320  10.964  0.00  0.00    +0.000 F 
ENDBRANCH  16  17
ENDBRANCH  15  16
ENDBRANCH   2  15
BRANCH  11  21
ATOM     21  C   UNL     1       4.621   3.497  19.664  0.00  0.00    +0.000 C 
BRANCH  21  22
ATOM     22  C   UNL     1       3.166   3.131  19.608  0.00  0.00    +0.000 A 
ATOM     23  C   UNL     1       2.577   2.760  18.395  0.00  0.00    +0.000 A 
ATOM     24  C   UNL     1       1.243   2.389  18.388  0.00  0.00    +0.000 A 
ATOM     25  N   UNL     1       0.466   2.365  19.492  0.00  0.00    +0.000 NA
ATOM     26  C   UNL     1       1.050   2.734  20.650  0.00  0.00    +0.000 A 
ATOM     27  C   UNL     1       2.377   3.123  20.760  0.00  0.00    +0.000 A 
ENDBRANCH  21  22
ENDBRANCH  11  21
TORSDOF 5
ENDMDL
MODEL 8
REMARK VINA RESULT:      -7.1      6.963      8.840
REMARK  Name = 
REMARK  5 active torsions:
REMARK  status: ('A' for Active; 'I' for Inactive)
REMARK    1  A    between atoms: C_2  and  C_3
REMARK    2  A    between atoms: C_3  and  C_4
REMARK    3  A    between atoms: C_4  and  C_5
REMARK    4  A    between atoms: N_17  and  C_18
REMARK    5  A    between atoms: C_18  and  C_19
REMARK                            x       y       z     vdW  Elec       q    Type
REMARK                         _______ _______ _______ _____ _____    ______ ____
ROOT
ATOM      1  O   UNL     1       2.932   5.620  20.097  0.00  0.00    +0.000 OA
ATOM      2  C   UNL     1       2.775   6.406  19.162  0.00  0.00    +0.000 C 
ATOM      3  N   UNL     1       2.155   7.638  19.320  0.00  0.00    +0.000 N 
ATOM      4  C   UNL     1       2.136   8.684  18.302  0.00  0.00    +0.000 C 
ATOM      5  C   UNL     1       0.772   9.355  18.247  0.00  0.00    +0.000 C 
ATOM      6  C   UNL     1       0.322   9.912  19.621  0.00  0.00    +0.000 C 
ATOM      7  C   UNL     1       1.177  11.099  20.113  0.00  0.00    +0.000 C 
ATOM      8  C   UNL     1       1.094  12.306  19.192  0.00  0.00    +0.000 C 
ATOM      9  C   UNL     1      -0.283  12.626  18.637  0.00  0.00    +0.000 C 
ATOM     10  O   UNL     1      -0.498  13.729  18.135  0.00  0.00    +0.000 OA
ATOM     11  N   UNL     1      -1.172  11.568  18.558  0.00  0.00    +0.000 N 
ATOM     12  C   UNL     1      -1.112  10.450  19.494  0.00  0.00    +0.000 C 
ATOM     13  C   UNL     1       0.381   8.755  20.646  0.00  0.00    +0.000 C 
ATOM     14  C   UNL     1       1.741   8.047  20.661  0.00  0.00    +0.000 C 
ENDROOT
BRANCH   2  15
ATOM     15  C   UNL     1       3.267   6.052  17.770  0.00  0.00    +0.000 C 
BRANCH  15  16
ATOM     16  C   UNL     1       4.788   5.962  17.695  0.00  0.00    +0.000 C 
BRANCH  16  17
ATOM     17  C   UNL     1       5.318   5.945  16.276  0.00  0.00    +0.000 C 
ATOM     18  F   UNL     1       4.974   4.829  15.597  0.00  0.00    +0.000 F 
ATOM     19  F   UNL     1       4.803   6.994  15.587  0.00  0.00    +0.000 F 
ATOM     20  F   UNL     1       6.659   6.072  16.239  0.00  0.00    +0.000 F 
ENDBRANCH  16  17
ENDBRANCH  15  16
ENDBRANCH   2  15
BRANCH  11  21
ATOM     21  C   UNL     1      -2.307  11.664  17.647  0.00  0.00    +0.000 C 
BRANCH  21  22
ATOM     22  C   UNL     1      -3.649  11.592  18.316  0.00  0.00    +0.000 A 
ATOM     23  C   UNL     1      -3.933  12.401  19.421  0.00  0.00    +0.000 A 
ATOM     24  C   UNL     1      -5.195  12.339  19.986  0.00  0.00    +0.000 A 
ATOM     25  N   UNL     1      -6.180  11.533  19.533  0.00  0.00    +0.000 NA
ATOM     26  C   UNL     1      -5.884  10.754  18.472  0.00  0.00    +0.000 A 
ATOM     27  C   UNL     1      -4.651  10.744  17.838  0.00  0.00    +0.000 A 
ENDBRANCH  21  22
ENDBRANCH  11  21
TORSDOF 5
ENDMDL
MODEL 9
REMARK VINA RESULT:      -7.1      7.033      8.941
REMARK  Name = 
REMARK  5 active torsions:
REMARK  status: ('A' for Active; 'I' for Inactive)
REMARK    1  A    between atoms: C_2  and  C_3
REMARK    2  A    between atoms: C_3  and  C_4
REMARK    3  A    between atoms: C_4  and  C_5
REMARK    4  A    between atoms: N_17  and  C_18
REMARK    5  A    between atoms: C_18  and  C_19
REMARK                            x       y       z     vdW  Elec       q    Type
REMARK                         _______ _______ _______ _____ _____    ______ ____
ROOT
ATOM      1  O   UNL     1       2.736   5.576  20.390  0.00  0.00    +0.000 OA
ATOM      2  C   UNL     1       2.632   6.359  19.446  0.00  0.00    +0.000 C 
ATOM      3  N   UNL     1       2.036   7.606  19.575  0.00  0.00    +0.000 N 
ATOM      4  C   UNL     1       2.079   8.646  18.550  0.00  0.00    +0.000 C 
ATOM      5  C   UNL     1       0.734   9.349  18.442  0.00  0.00    +0.000 C 
ATOM      6  C   UNL     1       0.249   9.925  19.796  0.00  0.00    +0.000 C 
ATOM      7  C   UNL     1       1.114  11.095  20.311  0.00  0.00    +0.000 C 
ATOM      8  C   UNL     1       1.092  12.297  19.381  0.00  0.00    +0.000 C 
ATOM      9  C   UNL     1      -0.256  12.646  18.775  0.00  0.00    +0.000 C 
ATOM     10  O   UNL     1      -0.427  13.750  18.258  0.00  0.00    +0.000 OA
ATOM     11  N   UNL     1      -1.166  11.609  18.669  0.00  0.00    +0.000 N 
ATOM     12  C   UNL     1      -1.167  10.496  19.614  0.00  0.00    +0.000 C 
ATOM     13  C   UNL     1       0.243   8.774  20.829  0.00  0.00    +0.000 C 
ATOM     14  C   UNL     1       1.584   8.034  20.897  0.00  0.00    +0.000 C 
ENDROOT
BRANCH   2  15
ATOM     15  C   UNL     1       3.165   5.984  18.075  0.00  0.00    +0.000 C 
BRANCH  15  16
ATOM     16  C   UNL     1       2.703   4.600  17.628  0.00  0.00    +0.000 C 
BRANCH  16  17
ATOM     17  C   UNL     1       3.842   3.617  17.449  0.00  0.00    +0.000 C 
ATOM     18  F   UNL     1       4.435   3.712  16.239  0.00  0.00    +0.000 F 
ATOM     19  F   UNL     1       4.804   3.864  18.374  0.00  0.00    +0.000 F 
ATOM     20  F   UNL     1       3.441   2.344  17.630  0.00  0.00    +0.000 F 
ENDBRANCH  16  17
ENDBRANCH  15  16
ENDBRANCH   2  15
BRANCH  11  21
ATOM     21  C   UNL     1      -2.265  11.725  17.718  0.00  0.00    +0.000 C 
BRANCH  21  22
ATOM     22  C   UNL     1      -3.633  11.667  18.336  0.00  0.00    +0.000 A 
ATOM     23  C   UNL     1      -4.589  10.769  17.853  0.00  0.00    +0.000 A 
ATOM     24  C   UNL     1      -5.825  10.714  18.474  0.00  0.00    +0.000 A 
ATOM     25  N   UNL     1      -6.169  11.486  19.527  0.00  0.00    +0.000 NA
ATOM     26  C   UNL     1      -5.236  12.352  19.973  0.00  0.00    +0.000 A 
ATOM     27  C   UNL     1      -3.972  12.482  19.419  0.00  0.00    +0.000 A 
ENDBRANCH  21  22
ENDBRANCH  11  21
TORSDOF 5
ENDMDL
