MODEL 1
REMARK VINA RESULT:      -7.3      0.000      0.000
REMARK  Name = 
REMARK  8 active torsions:
REMARK  status: ('A' for Active; 'I' for Inactive)
REMARK    1  A    between atoms: C_1  and  C_2
REMARK    2  A    between atoms: C_8  and  C_9
REMARK    3  A    between atoms: C_9  and  C_10
REMARK    4  A    between atoms: C_10  and  C_11
REMARK    5  A    between atoms: C_10  and  C_13
REMARK    6  A    between atoms: C_11  and  O_12
REMARK    7  A    between atoms: C_13  and  N_14
REMARK    8  A    between atoms: N_14  and  C_15
REMARK                            x       y       z     vdW  Elec       q    Type
REMARK                         _______ _______ _______ _____ _____    ______ ____
ROOT
ATOM      1  C   UNL     1       6.429   5.681  17.886  0.00  0.00    +0.000 C 
ENDROOT
BRANCH   1   2
ATOM      2  C   UNL     1       5.264   4.663  17.779  0.00  0.00    +0.000 C 
BRANCH   2  10
ATOM      3  C   UNL     1       4.409   2.534  19.756  0.00  0.00    +0.000 C 
ATOM      4  C   UNL     1       3.664   3.839  19.644  0.00  0.00    +0.000 A 
ATOM      5  C   UNL     1       2.513   4.098  20.423  0.00  0.00    +0.000 A 
ATOM      6 BR   UNL     1       1.676   2.773  21.499  0.00  0.00    +0.000 Br
ATOM      7  C   UNL     1       1.914   5.360  20.422  0.00  0.00    +0.000 A 
ATOM      8  C   UNL     1       2.434   6.383  19.638  0.00  0.00    +0.000 A 
ATOM      9  C   UNL     1       3.518   6.128  18.806  0.00  0.00    +0.000 A 
ATOM     10  C   UNL     1       4.123   4.856  18.764  0.00  0.00    +0.000 A 
ENDBRANCH   2  10
ENDBRANCH   1   2
BRANCH   1  11
ATOM     11  C   UNL     1       7.611   5.169  18.725  0.00  0.00    +0.000 C 
BRANCH  11  12
ATOM     12  O   UNL     1       7.424   5.422  20.108  0.00  0.00    +0.000 OA
ATOM     13  H   UNL     1       7.203   4.569  20.522  0.00  0.00    +0.000 HD
ENDBRANCH  11  12
ENDBRANCH   1  11
BRANCH   1  14
ATOM     14  C   UNL     1       6.923   6.079  16.477  0.00  0.00    +0.000 C 
BRANCH  14  15
ATOM     15  N   UNL     1       7.257   4.880  15.706  0.00  0.00    +0.000 NA
ATOM     16  H   UNL     1       6.863   4.058  16.160  0.00  0.00    +0.000 HD
BRANCH  15  17
ATOM     17  C   UNL     1       6.809   4.930  14.319  0.00  0.00    +0.000 C 
ATOM     18  C   UNL     1       7.861   5.288  13.259  0.00  0.00    +0.000 C 
ATOM     19  O   UNL     1       7.353   4.703  12.045  0.00  0.00    +0.000 OA
ATOM     20  C   UNL     1       6.439   3.622  12.354  0.00  0.00    +0.000 C 
ATOM     21  C   UNL     1       5.076   3.659  11.603  0.00  0.00    +0.000 C 
ATOM     22  C   UNL     1       5.166   2.124  11.509  0.00  0.00    +0.000 C 
ATOM     23  C   UNL     1       6.696   2.282  11.616  0.00  0.00    +0.000 C 
ATOM     24  C   UNL     1       6.367   3.539  13.877  0.00  0.00    +0.000 C 
ENDBRANCH  15  17
ENDBRANCH  14  15
ENDBRANCH   1  14
TORSDOF 7
ENDMDL
MODEL 2
REMARK VINA RESULT:      -7.1      1.248      1.864
REMARK  Name = 
REMARK  8 active torsions:
REMARK  status: ('A' for Active; 'I' for Inactive)
REMARK    1  A    between atoms: C_1  and  C_2
REMARK    2  A    between atoms: C_8  and  C_9
REMARK    3  A    between atoms: C_9  and  C_10
REMARK    4  A    between atoms: C_10  and  C_11
REMARK    5  A    between atoms: C_10  and  C_13
REMARK    6  A    between atoms: C_11  and  O_12
REMARK    7  A    between atoms: C_13  and  N_14
REMARK    8  A    between atoms: N_14  and  C_15
REMARK                            x       y       z     vdW  Elec       q    Type
REMARK                         _______ _______ _______ _____ _____    ______ ____
ROOT
ATOM      1  C   UNL     1       5.409   5.987  17.857  0.00  0.00    +0.000 C 
ENDROOT
BRANCH   1   2
ATOM      2  C   UNL     1       3.921   5.822  17.448  0.00  0.00    +0.000 C 
BRANCH   2  10
ATOM      3  C   UNL     1       2.395   5.640  20.056  0.00  0.00    +0.000 C 
ATOM      4  C   UNL     1       2.587   4.430  19.179  0.00  0.00    +0.000 A 
ATOM      5  C   UNL     1       2.103   3.159  19.563  0.00  0.00    +0.000 A 
ATOM      6 BR   UNL     1       1.378   2.808  21.285  0.00  0.00    +0.000 Br
ATOM      7  C   UNL     1       2.155   2.075  18.683  0.00  0.00    +0.000 A 
ATOM      8  C   UNL     1       2.702   2.226  17.415  0.00  0.00    +0.000 A 
ATOM      9  C   UNL     1       3.253   3.448  17.045  0.00  0.00    +0.000 A 
ATOM     10  C   UNL     1       3.241   4.549  17.923  0.00  0.00    +0.000 A 
ENDBRANCH   2  10
ENDBRANCH   1   2
BRANCH   1  11
ATOM     11  C   UNL     1       5.953   4.801  18.668  0.00  0.00    +0.000 C 
BRANCH  11  12
ATOM     12  O   UNL     1       7.333   4.949  18.958  0.00  0.00    +0.000 OA
ATOM     13  H   UNL     1       7.399   5.185  19.900  0.00  0.00    +0.000 HD
ENDBRANCH  11  12
ENDBRANCH   1  11
BRANCH   1  14
ATOM     14  C   UNL     1       6.287   6.210  16.604  0.00  0.00    +0.000 C 
BRANCH  14  15
ATOM     15  N   UNL     1       6.543   4.932  15.939  0.00  0.00    +0.000 NA
ATOM     16  H   UNL     1       5.941   4.210  16.334  0.00  0.00    +0.000 HD
BRANCH  15  17
ATOM     17  C   UNL     1       6.362   4.976  14.493  0.00  0.00    +0.000 C 
ATOM     18  C   UNL     1       7.620   5.192  13.638  0.00  0.00    +0.000 C 
ATOM     19  O   UNL     1       7.284   4.616  12.362  0.00  0.00    +0.000 OA
ATOM     20  C   UNL     1       6.223   3.642  12.515  0.00  0.00    +0.000 C 
ATOM     21  C   UNL     1       5.029   3.784  11.526  0.00  0.00    +0.000 C 
ATOM     22  C   UNL     1       4.978   2.245  11.476  0.00  0.00    +0.000 C 
ATOM     23  C   UNL     1       6.471   2.257  11.860  0.00  0.00    +0.000 C 
ATOM     24  C   UNL     1       5.867   3.619  14.000  0.00  0.00    +0.000 C 
ENDBRANCH  15  17
ENDBRANCH  14  15
ENDBRANCH   1  14
TORSDOF 7
ENDMDL
MODEL 3
REMARK VINA RESULT:      -7.1      1.267      1.295
REMARK  Name = 
REMARK  8 active torsions:
REMARK  status: ('A' for Active; 'I' for Inactive)
REMARK    1  A    between atoms: C_1  and  C_2
REMARK    2  A    between atoms: C_8  and  C_9
REMARK    3  A    between atoms: C_9  and  C_10
REMARK    4  A    between atoms: C_10  and  C_11
REMARK    5  A    between atoms: C_10  and  C_13
REMARK    6  A    between atoms: C_11  and  O_12
REMARK    7  A    between atoms: C_13  and  N_14
REMARK    8  A    between atoms: N_14  and  C_15
REMARK                            x       y       z     vdW  Elec       q    Type
REMARK                         _______ _______ _______ _____ _____    ______ ____
ROOT
ATOM      1  C   UNL     1       5.901   6.202  17.813  0.00  0.00    +0.000 C 
ENDROOT
BRANCH   1   2
ATOM      2  C   UNL     1       4.453   6.072  17.273  0.00  0.00    +0.000 C 
BRANCH   2  10
ATOM      3  C   UNL     1       3.362   3.249  17.157  0.00  0.00    +0.000 C 
ATOM      4  C   UNL     1       2.850   4.243  18.167  0.00  0.00    +0.000 A 
ATOM      5  C   UNL     1       1.810   3.910  19.065  0.00  0.00    +0.000 A 
ATOM      6 BR   UNL     1       0.822   2.290  18.943  0.00  0.00    +0.000 Br
ATOM      7  C   UNL     1       1.441   4.782  20.092  0.00  0.00    +0.000 A 
ATOM      8  C   UNL     1       2.082   6.005  20.238  0.00  0.00    +0.000 A 
ATOM      9  C   UNL     1       3.054   6.386  19.320  0.00  0.00    +0.000 A 
ATOM     10  C   UNL     1       3.425   5.539  18.256  0.00  0.00    +0.000 A 
ENDBRANCH   2  10
ENDBRANCH   1   2
BRANCH   1  11
ATOM     11  C   UNL     1       6.170   5.334  19.053  0.00  0.00    +0.000 C 
BRANCH  11  12
ATOM     12  O   UNL     1       6.473   3.994  18.702  0.00  0.00    +0.000 OA
ATOM     13  H   UNL     1       6.239   3.443  19.470  0.00  0.00    +0.000 HD
ENDBRANCH  11  12
ENDBRANCH   1  11
BRANCH   1  14
ATOM     14  C   UNL     1       6.921   5.858  16.704  0.00  0.00    +0.000 C 
BRANCH  14  15
ATOM     15  N   UNL     1       6.532   4.614  16.036  0.00  0.00    +0.000 NA
ATOM     16  H   UNL     1       5.691   4.238  16.470  0.00  0.00    +0.000 HD
BRANCH  15  17
ATOM     17  C   UNL     1       6.314   4.761  14.602  0.00  0.00    +0.000 C 
ATOM     18  C   UNL     1       7.525   5.168  13.749  0.00  0.00    +0.000 C 
ATOM     19  O   UNL     1       7.215   4.671  12.435  0.00  0.00    +0.000 OA
ATOM     20  C   UNL     1       6.256   3.589  12.520  0.00  0.00    +0.000 C 
ATOM     21  C   UNL     1       5.031   3.697  11.566  0.00  0.00    +0.000 C 
ATOM     22  C   UNL     1       5.125   2.170  11.386  0.00  0.00    +0.000 C 
ATOM     23  C   UNL     1       6.619   2.294  11.746  0.00  0.00    +0.000 C 
ATOM     24  C   UNL     1       5.939   3.409  14.004  0.00  0.00    +0.000 C 
ENDBRANCH  15  17
ENDBRANCH  14  15
ENDBRANCH   1  14
TORSDOF 7
ENDMDL
MODEL 4
REMARK VINA RESULT:      -6.9      3.932      7.986
REMARK  Name = 
REMARK  8 active torsions:
REMARK  status: ('A' for Active; 'I' for Inactive)
REMARK    1  A    between atoms: C_1  and  C_2
REMARK    2  A    between atoms: C_8  and  C_9
REMARK    3  A    between atoms: C_9  and  C_10
REMARK    4  A    between atoms: C_10  and  C_11
REMARK    5  A    between atoms: C_10  and  C_13
REMARK    6  A    between atoms: C_11  and  O_12
REMARK    7  A    between atoms: C_13  and  N_14
REMARK    8  A    between atoms: N_14  and  C_15
REMARK                            x       y       z     vdW  Elec       q    Type
REMARK                         _______ _______ _______ _____ _____    ______ ____
ROOT
ATOM      1  C   UNL     1       2.328   3.678  17.764  0.00  0.00    +0.000 C 
ENDROOT
BRANCH   1   2
ATOM      2  C   UNL     1       3.818   3.287  17.952  0.00  0.00    +0.000 C 
BRANCH   2  10
ATOM      3  C   UNL     1       5.795   5.145  19.296  0.00  0.00    +0.000 C 
ATOM      4  C   UNL     1       5.705   5.056  17.795  0.00  0.00    +0.000 A 
ATOM      5  C   UNL     1       6.505   5.869  16.960  0.00  0.00    +0.000 A 
ATOM      6 BR   UNL     1       7.588   7.282  17.629  0.00  0.00    +0.000 Br
ATOM      7  C   UNL     1       6.523   5.680  15.576  0.00  0.00    +0.000 A 
ATOM      8  C   UNL     1       5.737   4.694  14.993  0.00  0.00    +0.000 A 
ATOM      9  C   UNL     1       4.884   3.935  15.787  0.00  0.00    +0.000 A 
ATOM     10  C   UNL     1       4.824   4.126  17.181  0.00  0.00    +0.000 A 
ENDBRANCH   2  10
ENDBRANCH   1   2
BRANCH   1  11
ATOM     11  C   UNL     1       1.360   2.791  18.563  0.00  0.00    +0.000 C 
BRANCH  11  12
ATOM     12  O   UNL     1       1.803   1.445  18.622  0.00  0.00    +0.000 OA
ATOM     13  H   UNL     1       2.774   1.472  18.692  0.00  0.00    +0.000 HD
ENDBRANCH  11  12
ENDBRANCH   1  11
BRANCH   1  14
ATOM     14  C   UNL     1       2.111   5.160  18.143  0.00  0.00    +0.000 C 
BRANCH  14  15
ATOM     15  N   UNL     1       2.278   5.337  19.587  0.00  0.00    +0.000 NA
ATOM     16  H   UNL     1       3.122   4.860  19.898  0.00  0.00    +0.000 HD
BRANCH  15  17
ATOM     17  C   UNL     1       2.328   6.733  20.005  0.00  0.00    +0.000 C 
ATOM     18  C   UNL     1       2.095   7.796  18.921  0.00  0.00    +0.000 C 
ATOM     19  O   UNL     1       1.615   8.942  19.647  0.00  0.00    +0.000 OA
ATOM     20  C   UNL     1       1.043   8.532  20.913  0.00  0.00    +0.000 C 
ATOM     21  C   UNL     1       1.531   9.324  22.161  0.00  0.00    +0.000 C 
ATOM     22  C   UNL     1       0.091   9.224  22.700  0.00  0.00    +0.000 C 
ATOM     23  C   UNL     1      -0.369   9.089  21.235  0.00  0.00    +0.000 C 
ATOM     24  C   UNL     1       1.189   7.013  20.981  0.00  0.00    +0.000 C 
ENDBRANCH  15  17
ENDBRANCH  14  15
ENDBRANCH   1  14
TORSDOF 7
ENDMDL
MODEL 5
REMARK VINA RESULT:      -6.9      4.009      6.034
REMARK  Name = 
REMARK  8 active torsions:
REMARK  status: ('A' for Active; 'I' for Inactive)
REMARK    1  A    between atoms: C_1  and  C_2
REMARK    2  A    between atoms: C_8  and  C_9
REMARK    3  A    between atoms: C_9  and  C_10
REMARK    4  A    between atoms: C_10  and  C_11
REMARK    5  A    between atoms: C_10  and  C_13
REMARK    6  A    between atoms: C_11  and  O_12
REMARK    7  A    between atoms: C_13  and  N_14
REMARK    8  A    between atoms: N_14  and  C_15
REMARK                            x       y       z     vdW  Elec       q    Type
REMARK                         _______ _______ _______ _____ _____    ______ ____
ROOT
ATOM      1  C   UNL     1       2.024   5.216  20.553  0.00  0.00    +0.000 C 
ENDROOT
BRANCH   1   2
ATOM      2  C   UNL     1       2.240   6.432  19.614  0.00  0.00    +0.000 C 
BRANCH   2  10
ATOM      3  C   UNL     1       1.901   8.827  17.793  0.00  0.00    +0.000 C 
ATOM      4  C   UNL     1       1.524   8.895  19.250  0.00  0.00    +0.000 A 
ATOM      5  C   UNL     1       1.043  10.091  19.830  0.00  0.00    +0.000 A 
ATOM      6 BR   UNL     1       1.036  11.755  18.908  0.00  0.00    +0.000 Br
ATOM      7  C   UNL     1       0.558  10.111  21.140  0.00  0.00    +0.000 A 
ATOM      8  C   UNL     1       0.557   8.950  21.904  0.00  0.00    +0.000 A 
ATOM      9  C   UNL     1       1.096   7.781  21.380  0.00  0.00    +0.000 A 
ATOM     10  C   UNL     1       1.619   7.741  20.073  0.00  0.00    +0.000 A 
ENDBRANCH   2  10
ENDBRANCH   1   2
BRANCH   1  11
ATOM     11  C   UNL     1       0.831   4.336  20.146  0.00  0.00    +0.000 C 
BRANCH  11  12
ATOM     12  O   UNL     1       0.761   3.151  20.922  0.00  0.00    +0.000 OA
ATOM     13  H   UNL     1      -0.122   2.769  20.774  0.00  0.00    +0.000 HD
ENDBRANCH  11  12
ENDBRANCH   1  11
BRANCH   1  14
ATOM     14  C   UNL     1       3.307   4.357  20.621  0.00  0.00    +0.000 C 
BRANCH  14  15
ATOM     15  N   UNL     1       3.351   3.432  19.488  0.00  0.00    +0.000 NA
ATOM     16  H   UNL     1       2.527   3.564  18.903  0.00  0.00    +0.000 HD
BRANCH  15  17
ATOM     17  C   UNL     1       4.551   3.562  18.671  0.00  0.00    +0.000 C 
ATOM     18  C   UNL     1       4.352   3.707  17.154  0.00  0.00    +0.000 C 
ATOM     19  O   UNL     1       5.538   4.387  16.705  0.00  0.00    +0.000 OA
ATOM     20  C   UNL     1       6.144   5.116  17.799  0.00  0.00    +0.000 C 
ATOM     21  C   UNL     1       7.674   4.899  17.990  0.00  0.00    +0.000 C 
ATOM     22  C   UNL     1       7.771   6.392  18.353  0.00  0.00    +0.000 C 
ATOM     23  C   UNL     1       6.492   6.602  17.517  0.00  0.00    +0.000 C 
ATOM     24  C   UNL     1       5.270   4.860  19.026  0.00  0.00    +0.000 C 
ENDBRANCH  15  17
ENDBRANCH  14  15
ENDBRANCH   1  14
TORSDOF 7
ENDMDL
MODEL 6
REMARK VINA RESULT:      -6.8      1.427      2.075
REMARK  Name = 
REMARK  8 active torsions:
REMARK  status: ('A' for Active; 'I' for Inactive)
REMARK    1  A    between atoms: C_1  and  C_2
REMARK    2  A    between atoms: C_8  and  C_9
REMARK    3  A    between atoms: C_9  and  C_10
REMARK    4  A    between atoms: C_10  and  C_11
REMARK    5  A    between atoms: C_10  and  C_13
REMARK    6  A    between atoms: C_11  and  O_12
REMARK    7  A    between atoms: C_13  and  N_14
REMARK    8  A    between atoms: N_14  and  C_15
REMARK                            x       y       z     vdW  Elec       q    Type
REMARK                         _______ _______ _______ _____ _____    ______ ____
ROOT
ATOM      1  C   UNL     1       5.505   5.130  17.323  0.00  0.00    +0.000 C 
ENDROOT
BRANCH   1   2
ATOM      2  C   UNL     1       4.074   4.533  17.343  0.00  0.00    +0.000 C 
BRANCH   2  10
ATOM      3  C   UNL     1       2.845   7.257  17.832  0.00  0.00    +0.000 C 
ATOM      4  C   UNL     1       2.720   6.151  18.847  0.00  0.00    +0.000 A 
ATOM      5  C   UNL     1       2.066   6.358  20.084  0.00  0.00    +0.000 A 
ATOM      6 BR   UNL     1       1.490   8.072  20.672  0.00  0.00    +0.000 Br
ATOM      7  C   UNL     1       1.826   5.294  20.956  0.00  0.00    +0.000 A 
ATOM      8  C   UNL     1       2.243   4.010  20.628  0.00  0.00    +0.000 A 
ATOM      9  C   UNL     1       2.955   3.797  19.454  0.00  0.00    +0.000 A 
ATOM     10  C   UNL     1       3.238   4.858  18.570  0.00  0.00    +0.000 A 
ENDBRANCH   2  10
ENDBRANCH   1   2
BRANCH   1  11
ATOM     11  C   UNL     1       6.082   5.379  18.725  0.00  0.00    +0.000 C 
BRANCH  11  12
ATOM     12  O   UNL     1       7.293   4.670  18.931  0.00  0.00    +0.000 OA
ATOM     13  H   UNL     1       7.838   5.211  19.529  0.00  0.00    +0.000 HD
ENDBRANCH  11  12
ENDBRANCH   1  11
BRANCH   1  14
ATOM     14  C   UNL     1       6.457   4.213  16.522  0.00  0.00    +0.000 C 
BRANCH  14  15
ATOM     15  N   UNL     1       7.299   5.017  15.635  0.00  0.00    +0.000 NA
ATOM     16  H   UNL     1       8.262   4.689  15.682  0.00  0.00    +0.000 HD
BRANCH  15  17
ATOM     17  C   UNL     1       6.855   5.020  14.246  0.00  0.00    +0.000 C 
ATOM     18  C   UNL     1       7.912   5.330  13.176  0.00  0.00    +0.000 C 
ATOM     19  O   UNL     1       7.402   4.704  11.984  0.00  0.00    +0.000 OA
ATOM     20  C   UNL     1       6.478   3.643  12.329  0.00  0.00    +0.000 C 
ATOM     21  C   UNL     1       5.116   3.663  11.575  0.00  0.00    +0.000 C 
ATOM     22  C   UNL     1       5.195   2.125  11.538  0.00  0.00    +0.000 C 
ATOM     23  C   UNL     1       6.726   2.274  11.642  0.00  0.00    +0.000 C 
ATOM     24  C   UNL     1       6.402   3.616  13.855  0.00  0.00    +0.000 C 
ENDBRANCH  15  17
ENDBRANCH  14  15
ENDBRANCH   1  14
TORSDOF 7
ENDMDL
MODEL 7
REMARK VINA RESULT:      -6.8      2.238      3.233
REMARK  Name = 
REMARK  8 active torsions:
REMARK  status: ('A' for Active; 'I' for Inactive)
REMARK    1  A    between atoms: C_1  and  C_2
REMARK    2  A    between atoms: C_8  and  C_9
REMARK    3  A    between atoms: C_9  and  C_10
REMARK    4  A    between atoms: C_10  and  C_11
REMARK    5  A    between atoms: C_10  and  C_13
REMARK    6  A    between atoms: C_11  and  O_12
REMARK    7  A    between atoms: C_13  and  N_14
REMARK    8  A    between atoms: N_14  and  C_15
REMARK                            x       y       z     vdW  Elec       q    Type
REMARK                         _______ _______ _______ _____ _____    ______ ____
ROOT
ATOM      1  C   UNL     1       4.146   4.593  19.255  0.00  0.00    +0.000 C 
ENDROOT
BRANCH   1   2
ATOM      2  C   UNL     1       3.035   5.184  18.348  0.00  0.00    +0.000 C 
BRANCH   2  10
ATOM      3  C   UNL     1       1.698   5.911  20.966  0.00  0.00    +0.000 C 
ATOM      4  C   UNL     1       1.890   6.935  19.877  0.00  0.00    +0.000 A 
ATOM      5  C   UNL     1       1.413   8.258  20.018  0.00  0.00    +0.000 A 
ATOM      6 BR   UNL     1       0.308   8.806  21.466  0.00  0.00    +0.000 Br
ATOM      7  C   UNL     1       1.720   9.238  19.072  0.00  0.00    +0.000 A 
ATOM      8  C   UNL     1       2.492   8.922  17.960  0.00  0.00    +0.000 A 
ATOM      9  C   UNL     1       2.907   7.610  17.762  0.00  0.00    +0.000 A 
ATOM     10  C   UNL     1       2.585   6.596  18.685  0.00  0.00    +0.000 A 
ENDBRANCH   2  10
ENDBRANCH   1   2
BRANCH   1  11
ATOM     11  C   UNL     1       4.009   3.080  19.482  0.00  0.00    +0.000 C 
BRANCH  11  12
ATOM     12  O   UNL     1       5.222   2.502  19.934  0.00  0.00    +0.000 OA
ATOM     13  H   UNL     1       5.734   3.215  20.355  0.00  0.00    +0.000 HD
ENDBRANCH  11  12
ENDBRANCH   1  11
BRANCH   1  14
ATOM     14  C   UNL     1       5.541   4.909  18.667  0.00  0.00    +0.000 C 
BRANCH  14  15
ATOM     15  N   UNL     1       5.868   3.947  17.612  0.00  0.00    +0.000 NA
ATOM     16  H   UNL     1       5.472   3.037  17.840  0.00  0.00    +0.000 HD
BRANCH  15  17
ATOM     17  C   UNL     1       5.418   4.354  16.287  0.00  0.00    +0.000 C 
ATOM     18  C   UNL     1       5.642   5.822  15.893  0.00  0.00    +0.000 C 
ATOM     19  O   UNL     1       5.683   5.800  14.454  0.00  0.00    +0.000 OA
ATOM     20  C   UNL     1       6.039   4.478  13.982  0.00  0.00    +0.000 C 
ATOM     21  C   UNL     1       5.126   3.891  12.866  0.00  0.00    +0.000 C 
ATOM     22  C   UNL     1       6.397   3.288  12.240  0.00  0.00    +0.000 C 
ATOM     23  C   UNL     1       7.186   4.413  12.939  0.00  0.00    +0.000 C 
ATOM     24  C   UNL     1       6.224   3.610  15.226  0.00  0.00    +0.000 C 
ENDBRANCH  15  17
ENDBRANCH  14  15
ENDBRANCH   1  14
TORSDOF 7
ENDMDL
MODEL 8
REMARK VINA RESULT:      -6.7      5.902      8.791
REMARK  Name = 
REMARK  8 active torsions:
REMARK  status: ('A' for Active; 'I' for Inactive)
REMARK    1  A    between atoms: C_1  and  C_2
REMARK    2  A    between atoms: C_8  and  C_9
REMARK    3  A    between atoms: C_9  and  C_10
REMARK    4  A    between atoms: C_10  and  C_11
REMARK    5  A    between atoms: C_10  and  C_13
REMARK    6  A    between atoms: C_11  and  O_12
REMARK    7  A    between atoms: C_13  and  N_14
REMARK    8  A    between atoms: N_14  and  C_15
REMARK                            x       y       z     vdW  Elec       q    Type
REMARK                         _______ _______ _______ _____ _____    ______ ____
ROOT
ATOM      1  C   UNL     1       0.612   9.462  19.105  0.00  0.00    +0.000 C 
ENDROOT
BRANCH   1   2
ATOM      2  C   UNL     1      -0.456  10.537  19.436  0.00  0.00    +0.000 C 
BRANCH   2  10
ATOM      3  C   UNL     1      -2.788  12.427  19.835  0.00  0.00    +0.000 C 
ATOM      4  C   UNL     1      -2.754  11.464  18.677  0.00  0.00    +0.000 A 
ATOM      5  C   UNL     1      -3.828  11.375  17.762  0.00  0.00    +0.000 A 
ATOM      6 BR   UNL     1      -5.482  12.277  18.023  0.00  0.00    +0.000 Br
ATOM      7  C   UNL     1      -3.729  10.588  16.612  0.00  0.00    +0.000 A 
ATOM      8  C   UNL     1      -2.572   9.864  16.355  0.00  0.00    +0.000 A 
ATOM      9  C   UNL     1      -1.533   9.877  17.279  0.00  0.00    +0.000 A 
ATOM     10  C   UNL     1      -1.619  10.637  18.463  0.00  0.00    +0.000 A 
ENDBRANCH   2  10
ENDBRANCH   1   2
BRANCH   1  11
ATOM     11  C   UNL     1       1.844  10.028  18.383  0.00  0.00    +0.000 C 
BRANCH  11  12
ATOM     12  O   UNL     1       2.246   9.206  17.300  0.00  0.00    +0.000 OA
ATOM     13  H   UNL     1       1.992   9.672  16.483  0.00  0.00    +0.000 HD
ENDBRANCH  11  12
ENDBRANCH   1  11
BRANCH   1  14
ATOM     14  C   UNL     1       1.052   8.730  20.394  0.00  0.00    +0.000 C 
BRANCH  14  15
ATOM     15  N   UNL     1       2.244   7.922  20.128  0.00  0.00    +0.000 NA
ATOM     16  H   UNL     1       2.803   7.842  20.976  0.00  0.00    +0.000 HD
BRANCH  15  17
ATOM     17  C   UNL     1       1.947   6.590  19.616  0.00  0.00    +0.000 C 
ATOM     18  C   UNL     1       2.993   5.948  18.692  0.00  0.00    +0.000 C 
ATOM     19  O   UNL     1       2.768   4.533  18.832  0.00  0.00    +0.000 OA
ATOM     20  C   UNL     1       2.104   4.252  20.088  0.00  0.00    +0.000 C 
ATOM     21  C   UNL     1       0.858   3.324  20.000  0.00  0.00    +0.000 C 
ATOM     22  C   UNL     1       1.314   2.700  21.332  0.00  0.00    +0.000 C 
ATOM     23  C   UNL     1       2.744   3.142  20.964  0.00  0.00    +0.000 C 
ATOM     24  C   UNL     1       1.892   5.600  20.776  0.00  0.00    +0.000 C 
ENDBRANCH  15  17
ENDBRANCH  14  15
ENDBRANCH   1  14
TORSDOF 7
ENDMDL
MODEL 9
REMARK VINA RESULT:      -6.7      4.608      7.190
REMARK  Name = 
REMARK  8 active torsions:
REMARK  status: ('A' for Active; 'I' for Inactive)
REMARK    1  A    between atoms: C_1  and  C_2
REMARK    2  A    between atoms: C_8  and  C_9
REMARK    3  A    between atoms: C_9  and  C_10
REMARK    4  A    between atoms: C_10  and  C_11
REMARK    5  A    between atoms: C_10  and  C_13
REMARK    6  A    between atoms: C_11  and  O_12
REMARK    7  A    between atoms: C_13  and  N_14
REMARK    8  A    between atoms: N_14  and  C_15
REMARK                            x       y       z     vdW  Elec       q    Type
REMARK                         _______ _______ _______ _____ _____    ______ ____
ROOT
ATOM      1  C   UNL     1       7.064   7.219  18.067  0.00  0.00    +0.000 C 
ENDROOT
BRANCH   1   2
ATOM      2  C   UNL     1       6.123   6.988  16.855  0.00  0.00    +0.000 C 
BRANCH   2  10
ATOM      3  C   UNL     1       3.351   7.062  18.071  0.00  0.00    +0.000 C 
ATOM      4  C   UNL     1       3.951   5.772  17.575  0.00  0.00    +0.000 A 
ATOM      5  C   UNL     1       3.262   4.544  17.702  0.00  0.00    +0.000 A 
ATOM      6 BR   UNL     1       1.647   4.364  18.690  0.00  0.00    +0.000 Br
ATOM      7  C   UNL     1       3.758   3.378  17.113  0.00  0.00    +0.000 A 
ATOM      8  C   UNL     1       4.951   3.404  16.401  0.00  0.00    +0.000 A 
ATOM      9  C   UNL     1       5.682   4.584  16.329  0.00  0.00    +0.000 A 
ATOM     10  C   UNL     1       5.221   5.767  16.941  0.00  0.00    +0.000 A 
ENDBRANCH   2  10
ENDBRANCH   1   2
BRANCH   1  11
ATOM     11  C   UNL     1       7.781   5.942  18.534  0.00  0.00    +0.000 C 
BRANCH  11  12
ATOM     12  O   UNL     1       7.756   5.809  19.946  0.00  0.00    +0.000 OA
ATOM     13  H   UNL     1       6.854   5.535  20.186  0.00  0.00    +0.000 HD
ENDBRANCH  11  12
ENDBRANCH   1  11
BRANCH   1  14
ATOM     14  C   UNL     1       8.106   8.311  17.734  0.00  0.00    +0.000 C 
BRANCH  14  15
ATOM     15  N   UNL     1       8.754   8.774  18.962  0.00  0.00    +0.000 NA
ATOM     16  H   UNL     1       9.663   8.325  19.064  0.00  0.00    +0.000 HD
BRANCH  15  17
ATOM     17  C   UNL     1       8.919  10.221  19.029  0.00  0.00    +0.000 C 
ATOM     18  C   UNL     1       9.514  10.798  20.322  0.00  0.00    +0.000 C 
ATOM     19  O   UNL     1      10.098  12.049  19.916  0.00  0.00    +0.000 OA
ATOM     20  C   UNL     1      10.386  12.032  18.497  0.00  0.00    +0.000 C 
ATOM     21  C   UNL     1       9.887  13.267  17.692  0.00  0.00    +0.000 C 
ATOM     22  C   UNL     1      11.184  13.166  16.867  0.00  0.00    +0.000 C 
ATOM     23  C   UNL     1      11.818  12.469  18.087  0.00  0.00    +0.000 C 
ATOM     24  C   UNL     1       9.936  10.666  17.981  0.00  0.00    +0.000 C 
ENDBRANCH  15  17
ENDBRANCH  14  15
ENDBRANCH   1  14
TORSDOF 7
ENDMDL
