MODEL 1
REMARK VINA RESULT:      -5.6      0.000      0.000
REMARK  Name = 
REMARK  8 active torsions:
REMARK  status: ('A' for Active; 'I' for Inactive)
REMARK    1  A    between atoms: S_2  and  O_4
REMARK    2  A    between atoms: S_2  and  S_5
REMARK    3  A    between atoms: S_5  and  C_6
REMARK    4  A    between atoms: C_6  and  C_7
REMARK    5  A    between atoms: C_8  and  C_9
REMARK    6  A    between atoms: C_9  and  S_10
REMARK    7  A    between atoms: S_10  and  S_11
REMARK    8  A    between atoms: S_11  and  O_14
REMARK                            x       y       z     vdW  Elec       q    Type
REMARK                         _______ _______ _______ _____ _____    ______ ____
ROOT
ATOM      1  C   UNL     1       4.499   4.410  18.015  0.00  0.00    +0.000 C 
ATOM      2  C   UNL     1       3.188   4.347  17.719  0.00  0.00    +0.000 C 
ENDROOT
BRANCH   1   3
ATOM      3  C   UNL     1       5.382   5.592  17.716  0.00  0.00    +0.000 C 
BRANCH   3   4
ATOM      4  S   UNL     1       5.396   5.950  15.947  0.00  0.00    +0.000 S 
BRANCH   4   6
ATOM      5  O   UNL     1       7.762   4.426  16.512  0.00  0.00    +0.000 OA
ATOM      6  S   UNL     1       6.994   4.790  15.341  0.00  0.00    +0.000 S 
ATOM      7  O   UNL     1       7.618   5.440  14.212  0.00  0.00    +0.000 OA
BRANCH   6   8
ATOM      8  O   UNL     1       6.343   3.420  14.799  0.00  0.00    +0.000 OA
ATOM      9  H   UNL     1       6.038   2.901  15.572  0.00  0.00    +0.000 HD
ENDBRANCH   6   8
ENDBRANCH   4   6
ENDBRANCH   3   4
ENDBRANCH   1   3
BRANCH   2  10
ATOM     10  C   UNL     1       2.299   3.178  18.026  0.00  0.00    +0.000 C 
BRANCH  10  11
ATOM     11  S   UNL     1       2.902   2.348  19.512  0.00  0.00    +0.000 S 
BRANCH  11  12
ATOM     12  S   UNL     1       1.834   3.361  20.964  0.00  0.00    +0.000 S 
ATOM     13  O   UNL     1       1.665   2.454  22.078  0.00  0.00    +0.000 OA
ATOM     14  O   UNL     1       2.419   4.671  21.124  0.00  0.00    +0.000 OA
BRANCH  12  15
ATOM     15  O   UNL     1       0.368   3.533  20.317  0.00  0.00    +0.000 OA
ATOM     16  H   UNL     1      -0.250   2.956  20.810  0.00  0.00    +0.000 HD
ENDBRANCH  12  15
ENDBRANCH  11  12
ENDBRANCH  10  11
ENDBRANCH   2  10
TORSDOF 8
ENDMDL
MODEL 2
REMARK VINA RESULT:      -5.5      1.796      6.420
REMARK  Name = 
REMARK  8 active torsions:
REMARK  status: ('A' for Active; 'I' for Inactive)
REMARK    1  A    between atoms: S_2  and  O_4
REMARK    2  A    between atoms: S_2  and  S_5
REMARK    3  A    between atoms: S_5  and  C_6
REMARK    4  A    between atoms: C_6  and  C_7
REMARK    5  A    between atoms: C_8  and  C_9
REMARK    6  A    between atoms: C_9  and  S_10
REMARK    7  A    between atoms: S_10  and  S_11
REMARK    8  A    between atoms: S_11  and  O_14
REMARK                            x       y       z     vdW  Elec       q    Type
REMARK                         _______ _______ _______ _____ _____    ______ ____
ROOT
ATOM      1  C   UNL     1       4.910   3.812  18.513  0.00  0.00    +0.000 C 
ATOM      2  C   UNL     1       5.141   5.104  18.808  0.00  0.00    +0.000 C 
ENDROOT
BRANCH   1   3
ATOM      3  C   UNL     1       4.143   2.864  19.396  0.00  0.00    +0.000 C 
BRANCH   3   4
ATOM      4  S   UNL     1       2.573   3.593  19.907  0.00  0.00    +0.000 S 
BRANCH   4   6
ATOM      5  O   UNL     1       1.219   4.103  17.428  0.00  0.00    +0.000 OA
ATOM      6  S   UNL     1       1.357   2.996  18.348  0.00  0.00    +0.000 S 
ATOM      7  O   UNL     1       0.196   2.343  18.908  0.00  0.00    +0.000 OA
BRANCH   6   8
ATOM      8  O   UNL     1       2.199   1.871  17.559  0.00  0.00    +0.000 OA
ATOM      9  H   UNL     1       3.049   2.268  17.279  0.00  0.00    +0.000 HD
ENDBRANCH   6   8
ENDBRANCH   4   6
ENDBRANCH   3   4
ENDBRANCH   1   3
BRANCH   2  10
ATOM     10  C   UNL     1       5.892   6.059  17.927  0.00  0.00    +0.000 C 
BRANCH  10  11
ATOM     11  S   UNL     1       5.377   5.815  16.213  0.00  0.00    +0.000 S 
BRANCH  11  12
ATOM     12  S   UNL     1       7.003   4.767  15.482  0.00  0.00    +0.000 S 
ATOM     13  O   UNL     1       7.522   5.517  14.359  0.00  0.00    +0.000 OA
ATOM     14  O   UNL     1       7.835   4.386  16.599  0.00  0.00    +0.000 OA
BRANCH  12  15
ATOM     15  O   UNL     1       6.354   3.434  14.852  0.00  0.00    +0.000 OA
ATOM     16  H   UNL     1       6.940   2.680  15.069  0.00  0.00    +0.000 HD
ENDBRANCH  12  15
ENDBRANCH  11  12
ENDBRANCH  10  11
ENDBRANCH   2  10
TORSDOF 8
ENDMDL
MODEL 3
REMARK VINA RESULT:      -5.4      0.885      6.664
REMARK  Name = 
REMARK  8 active torsions:
REMARK  status: ('A' for Active; 'I' for Inactive)
REMARK    1  A    between atoms: S_2  and  O_4
REMARK    2  A    between atoms: S_2  and  S_5
REMARK    3  A    between atoms: S_5  and  C_6
REMARK    4  A    between atoms: C_6  and  C_7
REMARK    5  A    between atoms: C_8  and  C_9
REMARK    6  A    between atoms: C_9  and  S_10
REMARK    7  A    between atoms: S_10  and  S_11
REMARK    8  A    between atoms: S_11  and  O_14
REMARK                            x       y       z     vdW  Elec       q    Type
REMARK                         _______ _______ _______ _____ _____    ______ ____
ROOT
ATOM      1  C   UNL     1       3.120   3.477  17.415  0.00  0.00    +0.000 C 
ATOM      2  C   UNL     1       3.601   4.667  17.819  0.00  0.00    +0.000 C 
ENDROOT
BRANCH   1   3
ATOM      3  C   UNL     1       2.440   2.483  18.318  0.00  0.00    +0.000 C 
BRANCH   3   4
ATOM      4  S   UNL     1       3.220   2.461  19.946  0.00  0.00    +0.000 S 
BRANCH   4   6
ATOM      5  O   UNL     1       1.643   2.811  22.319  0.00  0.00    +0.000 OA
ATOM      6  S   UNL     1       1.810   3.489  21.052  0.00  0.00    +0.000 S 
ATOM      7  O   UNL     1       0.678   3.760  20.196  0.00  0.00    +0.000 OA
BRANCH   6   8
ATOM      8  O   UNL     1       2.493   4.906  21.398  0.00  0.00    +0.000 OA
ATOM      9  H   UNL     1       2.745   4.900  22.344  0.00  0.00    +0.000 HD
ENDBRANCH   6   8
ENDBRANCH   4   6
ENDBRANCH   3   4
ENDBRANCH   1   3
BRANCH   2  10
ATOM     10  C   UNL     1       4.267   5.668  16.922  0.00  0.00    +0.000 C 
BRANCH  10  11
ATOM     11  S   UNL     1       5.937   5.991  17.529  0.00  0.00    +0.000 S 
BRANCH  11  12
ATOM     12  S   UNL     1       7.022   4.686  16.347  0.00  0.00    +0.000 S 
ATOM     13  O   UNL     1       8.122   4.200  17.151  0.00  0.00    +0.000 OA
ATOM     14  O   UNL     1       6.096   3.790  15.696  0.00  0.00    +0.000 OA
BRANCH  12  15
ATOM     15  O   UNL     1       7.686   5.635  15.229  0.00  0.00    +0.000 OA
ATOM     16  H   UNL     1       7.005   5.826  14.551  0.00  0.00    +0.000 HD
ENDBRANCH  12  15
ENDBRANCH  11  12
ENDBRANCH  10  11
ENDBRANCH   2  10
TORSDOF 8
ENDMDL
MODEL 4
REMARK VINA RESULT:      -5.4      0.536      6.900
REMARK  Name = 
REMARK  8 active torsions:
REMARK  status: ('A' for Active; 'I' for Inactive)
REMARK    1  A    between atoms: S_2  and  O_4
REMARK    2  A    between atoms: S_2  and  S_5
REMARK    3  A    between atoms: S_5  and  C_6
REMARK    4  A    between atoms: C_6  and  C_7
REMARK    5  A    between atoms: C_8  and  C_9
REMARK    6  A    between atoms: C_9  and  S_10
REMARK    7  A    between atoms: S_10  and  S_11
REMARK    8  A    between atoms: S_11  and  O_14
REMARK                            x       y       z     vdW  Elec       q    Type
REMARK                         _______ _______ _______ _____ _____    ______ ____
ROOT
ATOM      1  C   UNL     1       4.002   3.926  17.911  0.00  0.00    +0.000 C 
ATOM      2  C   UNL     1       4.810   4.617  18.735  0.00  0.00    +0.000 C 
ENDROOT
BRANCH   1   3
ATOM      3  C   UNL     1       2.895   3.015  18.372  0.00  0.00    +0.000 C 
BRANCH   3   4
ATOM      4  S   UNL     1       3.243   2.372  20.023  0.00  0.00    +0.000 S 
BRANCH   4   6
ATOM      5  O   UNL     1       2.085   4.687  21.262  0.00  0.00    +0.000 OA
ATOM      6  S   UNL     1       1.745   3.290  21.108  0.00  0.00    +0.000 S 
ATOM      7  O   UNL     1       1.450   2.463  22.256  0.00  0.00    +0.000 OA
BRANCH   6   8
ATOM      8  O   UNL     1       0.448   3.256  20.153  0.00  0.00    +0.000 OA
ATOM      9  H   UNL     1      -0.298   3.664  20.638  0.00  0.00    +0.000 HD
ENDBRANCH   6   8
ENDBRANCH   4   6
ENDBRANCH   3   4
ENDBRANCH   1   3
BRANCH   2  10
ATOM     10  C   UNL     1       5.906   5.537  18.281  0.00  0.00    +0.000 C 
BRANCH  10  11
ATOM     11  S   UNL     1       5.626   5.987  16.555  0.00  0.00    +0.000 S 
BRANCH  11  12
ATOM     12  S   UNL     1       6.927   4.683  15.615  0.00  0.00    +0.000 S 
ATOM     13  O   UNL     1       7.937   4.318  16.584  0.00  0.00    +0.000 OA
ATOM     14  O   UNL     1       6.145   3.692  14.914  0.00  0.00    +0.000 OA
BRANCH  12  15
ATOM     15  O   UNL     1       7.680   5.602  14.527  0.00  0.00    +0.000 OA
ATOM     16  H   UNL     1       7.148   6.413  14.397  0.00  0.00    +0.000 HD
ENDBRANCH  12  15
ENDBRANCH  11  12
ENDBRANCH  10  11
ENDBRANCH   2  10
TORSDOF 8
ENDMDL
MODEL 5
REMARK VINA RESULT:      -5.3      1.473      6.552
REMARK  Name = 
REMARK  8 active torsions:
REMARK  status: ('A' for Active; 'I' for Inactive)
REMARK    1  A    between atoms: S_2  and  O_4
REMARK    2  A    between atoms: S_2  and  S_5
REMARK    3  A    between atoms: S_5  and  C_6
REMARK    4  A    between atoms: C_6  and  C_7
REMARK    5  A    between atoms: C_8  and  C_9
REMARK    6  A    between atoms: C_9  and  S_10
REMARK    7  A    between atoms: S_10  and  S_11
REMARK    8  A    between atoms: S_11  and  O_14
REMARK                            x       y       z     vdW  Elec       q    Type
REMARK                         _______ _______ _______ _____ _____    ______ ____
ROOT
ATOM      1  C   UNL     1       5.029   4.183  19.147  0.00  0.00    +0.000 C 
ATOM      2  C   UNL     1       4.701   5.206  18.337  0.00  0.00    +0.000 C 
ENDROOT
BRANCH   1   3
ATOM      3  C   UNL     1       4.031   3.298  19.844  0.00  0.00    +0.000 C 
BRANCH   3   4
ATOM      4  S   UNL     1       3.217   2.198  18.666  0.00  0.00    +0.000 S 
BRANCH   4   6
ATOM      5  O   UNL     1       1.281   3.823  17.307  0.00  0.00    +0.000 OA
ATOM      6  S   UNL     1       1.356   3.085  18.549  0.00  0.00    +0.000 S 
ATOM      7  O   UNL     1       1.083   3.725  19.815  0.00  0.00    +0.000 OA
BRANCH   6   8
ATOM      8  O   UNL     1       0.314   1.866  18.399  0.00  0.00    +0.000 OA
ATOM      9  H   UNL     1      -0.590   2.220  18.527  0.00  0.00    +0.000 HD
ENDBRANCH   6   8
ENDBRANCH   4   6
ENDBRANCH   3   4
ENDBRANCH   1   3
BRANCH   2  10
ATOM     10  C   UNL     1       5.690   6.083  17.627  0.00  0.00    +0.000 C 
BRANCH  10  11
ATOM     11  S   UNL     1       5.393   5.995  15.848  0.00  0.00    +0.000 S 
BRANCH  11  12
ATOM     12  S   UNL     1       6.910   4.709  15.280  0.00  0.00    +0.000 S 
ATOM     13  O   UNL     1       7.697   4.434  16.462  0.00  0.00    +0.000 OA
ATOM     14  O   UNL     1       6.333   3.654  14.482  0.00  0.00    +0.000 OA
BRANCH  12  15
ATOM     15  O   UNL     1       7.849   5.611  14.332  0.00  0.00    +0.000 OA
ATOM     16  H   UNL     1       8.617   5.067  14.062  0.00  0.00    +0.000 HD
ENDBRANCH  12  15
ENDBRANCH  11  12
ENDBRANCH  10  11
ENDBRANCH   2  10
TORSDOF 8
ENDMDL
MODEL 6
REMARK VINA RESULT:      -5.3      0.976      1.756
REMARK  Name = 
REMARK  8 active torsions:
REMARK  status: ('A' for Active; 'I' for Inactive)
REMARK    1  A    between atoms: S_2  and  O_4
REMARK    2  A    between atoms: S_2  and  S_5
REMARK    3  A    between atoms: S_5  and  C_6
REMARK    4  A    between atoms: C_6  and  C_7
REMARK    5  A    between atoms: C_8  and  C_9
REMARK    6  A    between atoms: C_9  and  S_10
REMARK    7  A    between atoms: S_10  and  S_11
REMARK    8  A    between atoms: S_11  and  O_14
REMARK                            x       y       z     vdW  Elec       q    Type
REMARK                         _______ _______ _______ _____ _____    ______ ____
ROOT
ATOM      1  C   UNL     1       4.741   4.863  18.485  0.00  0.00    +0.000 C 
ATOM      2  C   UNL     1       4.266   3.765  17.869  0.00  0.00    +0.000 C 
ENDROOT
BRANCH   1   3
ATOM      3  C   UNL     1       5.840   5.735  17.941  0.00  0.00    +0.000 C 
BRANCH   3   4
ATOM      4  S   UNL     1       7.164   4.730  17.235  0.00  0.00    +0.000 S 
BRANCH   4   6
ATOM      5  O   UNL     1       6.171   3.665  14.761  0.00  0.00    +0.000 OA
ATOM      6  S   UNL     1       6.741   4.912  15.221  0.00  0.00    +0.000 S 
ATOM      7  O   UNL     1       7.894   5.490  14.571  0.00  0.00    +0.000 OA
BRANCH   6   8
ATOM      8  O   UNL     1       5.554   5.997  15.134  0.00  0.00    +0.000 OA
ATOM      9  H   UNL     1       5.475   6.288  14.202  0.00  0.00    +0.000 HD
ENDBRANCH   6   8
ENDBRANCH   4   6
ENDBRANCH   3   4
ENDBRANCH   1   3
BRANCH   2  10
ATOM     10  C   UNL     1       3.162   2.899  18.399  0.00  0.00    +0.000 C 
BRANCH  10  11
ATOM     11  S   UNL     1       3.489   2.515  20.133  0.00  0.00    +0.000 S 
BRANCH  11  12
ATOM     12  S   UNL     1       1.867   3.432  21.030  0.00  0.00    +0.000 S 
ATOM     13  O   UNL     1       0.853   3.594  20.010  0.00  0.00    +0.000 OA
ATOM     14  O   UNL     1       1.597   2.757  22.276  0.00  0.00    +0.000 OA
BRANCH  12  15
ATOM     15  O   UNL     1       2.394   4.918  21.358  0.00  0.00    +0.000 OA
ATOM     16  H   UNL     1       2.999   4.862  22.125  0.00  0.00    +0.000 HD
ENDBRANCH  12  15
ENDBRANCH  11  12
ENDBRANCH  10  11
ENDBRANCH   2  10
TORSDOF 8
ENDMDL
MODEL 7
REMARK VINA RESULT:      -5.3      1.863      6.330
REMARK  Name = 
REMARK  8 active torsions:
REMARK  status: ('A' for Active; 'I' for Inactive)
REMARK    1  A    between atoms: S_2  and  O_4
REMARK    2  A    between atoms: S_2  and  S_5
REMARK    3  A    between atoms: S_5  and  C_6
REMARK    4  A    between atoms: C_6  and  C_7
REMARK    5  A    between atoms: C_8  and  C_9
REMARK    6  A    between atoms: C_9  and  S_10
REMARK    7  A    between atoms: S_10  and  S_11
REMARK    8  A    between atoms: S_11  and  O_14
REMARK                            x       y       z     vdW  Elec       q    Type
REMARK                         _______ _______ _______ _____ _____    ______ ____
ROOT
ATOM      1  C   UNL     1       3.519   5.922  19.176  0.00  0.00    +0.000 C 
ATOM      2  C   UNL     1       4.562   5.206  18.719  0.00  0.00    +0.000 C 
ENDROOT
BRANCH   1   3
ATOM      3  C   UNL     1       2.276   5.324  19.778  0.00  0.00    +0.000 C 
BRANCH   3   4
ATOM      4  S   UNL     1       2.497   3.557  20.077  0.00  0.00    +0.000 S 
BRANCH   4   6
ATOM      5  O   UNL     1       0.327   2.179  18.800  0.00  0.00    +0.000 OA
ATOM      6  S   UNL     1       1.583   2.774  18.399  0.00  0.00    +0.000 S 
ATOM      7  O   UNL     1       2.567   2.014  17.664  0.00  0.00    +0.000 OA
BRANCH   6   8
ATOM      8  O   UNL     1       1.195   4.049  17.494  0.00  0.00    +0.000 OA
ATOM      9  H   UNL     1       0.677   3.731  16.726  0.00  0.00    +0.000 HD
ENDBRANCH   6   8
ENDBRANCH   4   6
ENDBRANCH   3   4
ENDBRANCH   1   3
BRANCH   2  10
ATOM     10  C   UNL     1       5.810   5.796  18.130  0.00  0.00    +0.000 C 
BRANCH  10  11
ATOM     11  S   UNL     1       5.545   6.113  16.372  0.00  0.00    +0.000 S 
BRANCH  11  12
ATOM     12  S   UNL     1       6.887   4.774  15.547  0.00  0.00    +0.000 S 
ATOM     13  O   UNL     1       6.155   3.559  15.263  0.00  0.00    +0.000 OA
ATOM     14  O   UNL     1       7.649   5.464  14.534  0.00  0.00    +0.000 OA
BRANCH  12  15
ATOM     15  O   UNL     1       7.874   4.411  16.768  0.00  0.00    +0.000 OA
ATOM     16  H   UNL     1       7.381   3.845  17.397  0.00  0.00    +0.000 HD
ENDBRANCH  12  15
ENDBRANCH  11  12
ENDBRANCH  10  11
ENDBRANCH   2  10
TORSDOF 8
ENDMDL
MODEL 8
REMARK VINA RESULT:      -5.3      1.659      2.043
REMARK  Name = 
REMARK  8 active torsions:
REMARK  status: ('A' for Active; 'I' for Inactive)
REMARK    1  A    between atoms: S_2  and  O_4
REMARK    2  A    between atoms: S_2  and  S_5
REMARK    3  A    between atoms: S_5  and  C_6
REMARK    4  A    between atoms: C_6  and  C_7
REMARK    5  A    between atoms: C_8  and  C_9
REMARK    6  A    between atoms: C_9  and  S_10
REMARK    7  A    between atoms: S_10  and  S_11
REMARK    8  A    between atoms: S_11  and  O_14
REMARK                            x       y       z     vdW  Elec       q    Type
REMARK                         _______ _______ _______ _____ _____    ______ ____
ROOT
ATOM      1  C   UNL     1       3.671   3.924  17.759  0.00  0.00    +0.000 C 
ATOM      2  C   UNL     1       3.640   2.579  17.741  0.00  0.00    +0.000 C 
ENDROOT
BRANCH   1   3
ATOM      3  C   UNL     1       4.493   4.769  16.823  0.00  0.00    +0.000 C 
BRANCH   3   4
ATOM      4  S   UNL     1       5.172   6.202  17.684  0.00  0.00    +0.000 S 
BRANCH   4   6
ATOM      5  O   UNL     1       7.895   6.601  18.500  0.00  0.00    +0.000 OA
ATOM      6  S   UNL     1       7.195   5.828  17.498  0.00  0.00    +0.000 S 
ATOM      7  O   UNL     1       7.544   5.930  16.100  0.00  0.00    +0.000 OA
BRANCH   6   8
ATOM      8  O   UNL     1       7.382   4.286  17.923  0.00  0.00    +0.000 OA
ATOM      9  H   UNL     1       6.512   3.843  17.855  0.00  0.00    +0.000 HD
ENDBRANCH   6   8
ENDBRANCH   4   6
ENDBRANCH   3   4
ENDBRANCH   1   3
BRANCH   2  10
ATOM     10  C   UNL     1       2.813   1.731  18.662  0.00  0.00    +0.000 C 
BRANCH  10  11
ATOM     11  S   UNL     1       1.527   2.753  19.413  0.00  0.00    +0.000 S 
BRANCH  11  12
ATOM     12  S   UNL     1       2.304   2.989  21.315  0.00  0.00    +0.000 S 
ATOM     13  O   UNL     1       1.274   2.586  22.247  0.00  0.00    +0.000 OA
ATOM     14  O   UNL     1       3.626   2.412  21.338  0.00  0.00    +0.000 OA
BRANCH  12  15
ATOM     15  O   UNL     1       2.440   4.586  21.482  0.00  0.00    +0.000 OA
ATOM     16  H   UNL     1       1.934   5.010  20.759  0.00  0.00    +0.000 HD
ENDBRANCH  12  15
ENDBRANCH  11  12
ENDBRANCH  10  11
ENDBRANCH   2  10
TORSDOF 8
ENDMDL
MODEL 9
REMARK VINA RESULT:      -5.3      1.940      2.438
REMARK  Name = 
REMARK  8 active torsions:
REMARK  status: ('A' for Active; 'I' for Inactive)
REMARK    1  A    between atoms: S_2  and  O_4
REMARK    2  A    between atoms: S_2  and  S_5
REMARK    3  A    between atoms: S_5  and  C_6
REMARK    4  A    between atoms: C_6  and  C_7
REMARK    5  A    between atoms: C_8  and  C_9
REMARK    6  A    between atoms: C_9  and  S_10
REMARK    7  A    between atoms: S_10  and  S_11
REMARK    8  A    between atoms: S_11  and  O_14
REMARK                            x       y       z     vdW  Elec       q    Type
REMARK                         _______ _______ _______ _____ _____    ______ ____
ROOT
ATOM      1  C   UNL     1       4.105   3.801  17.093  0.00  0.00    +0.000 C 
ATOM      2  C   UNL     1       3.263   4.759  17.522  0.00  0.00    +0.000 C 
ENDROOT
BRANCH   1   3
ATOM      3  C   UNL     1       5.342   4.062  16.275  0.00  0.00    +0.000 C 
BRANCH   3   4
ATOM      4  S   UNL     1       6.026   5.690  16.651  0.00  0.00    +0.000 S 
BRANCH   4   6
ATOM      5  O   UNL     1       6.412   4.588  19.273  0.00  0.00    +0.000 OA
ATOM      6  S   UNL     1       7.229   5.228  18.266  0.00  0.00    +0.000 S 
ATOM      7  O   UNL     1       8.025   6.392  18.580  0.00  0.00    +0.000 OA
BRANCH   6   8
ATOM      8  O   UNL     1       8.238   4.093  17.732  0.00  0.00    +0.000 OA
ATOM      9  H   UNL     1       8.439   4.281  16.792  0.00  0.00    +0.000 HD
ENDBRANCH   6   8
ENDBRANCH   4   6
ENDBRANCH   3   4
ENDBRANCH   1   3
BRANCH   2  10
ATOM     10  C   UNL     1       2.036   4.508  18.349  0.00  0.00    +0.000 C 
BRANCH  10  11
ATOM     11  S   UNL     1       2.404   4.866  20.081  0.00  0.00    +0.000 S 
BRANCH  11  12
ATOM     12  S   UNL     1       2.596   2.946  20.825  0.00  0.00    +0.000 S 
ATOM     13  O   UNL     1       3.906   2.470  20.439  0.00  0.00    +0.000 OA
ATOM     14  O   UNL     1       2.155   2.949  22.200  0.00  0.00    +0.000 OA
BRANCH  12  15
ATOM     15  O   UNL     1       1.547   2.086  19.955  0.00  0.00    +0.000 OA
ATOM     16  H   UNL     1       1.121   2.690  19.312  0.00  0.00    +0.000 HD
ENDBRANCH  12  15
ENDBRANCH  11  12
ENDBRANCH  10  11
ENDBRANCH   2  10
TORSDOF 8
ENDMDL
