MODEL 1
REMARK VINA RESULT:      -8.1      0.000      0.000
REMARK  Name = 
REMARK  5 active torsions:
REMARK  status: ('A' for Active; 'I' for Inactive)
REMARK    1  A    between atoms: N_1  and  C_2
REMARK    2  A    between atoms: C_5  and  C_6
REMARK    3  A    between atoms: C_9  and  C_10
REMARK    4  A    between atoms: C_10  and  C_11
REMARK    5  A    between atoms: C_20  and  N_21
REMARK                            x       y       z     vdW  Elec       q    Type
REMARK                         _______ _______ _______ _____ _____    ______ ____
ROOT
ATOM      1  C   UNL     1       2.427   7.097  19.216  0.00  0.00    +0.000 A 
ATOM      2  C   UNL     1       1.741   7.710  20.279  0.00  0.00    +0.000 A 
ATOM      3  C   UNL     1       1.120   8.956  20.133  0.00  0.00    +0.000 A 
ATOM      4  C   UNL     1       1.177   9.641  18.915  0.00  0.00    +0.000 A 
ATOM      5  C   UNL     1       1.878   9.059  17.855  0.00  0.00    +0.000 A 
ATOM      6  C   UNL     1       2.482   7.803  18.002  0.00  0.00    +0.000 A 
ENDROOT
BRANCH   1  10
ATOM      7  C   UNL     1       4.299   3.225  19.690  0.00  0.00    +0.000 A 
ATOM      8  C   UNL     1       3.040   3.475  20.231  0.00  0.00    +0.000 A 
ATOM      9  C   UNL     1       2.431   4.721  20.057  0.00  0.00    +0.000 A 
ATOM     10  C   UNL     1       3.073   5.772  19.381  0.00  0.00    +0.000 A 
ATOM     11  C   UNL     1       4.366   5.515  18.888  0.00  0.00    +0.000 A 
ATOM     12  C   UNL     1       5.007   4.287  19.098  0.00  0.00    +0.000 A 
BRANCH   7  13
ATOM     13  N   UNL     1       4.940   1.989  19.925  0.00  0.00    +0.000 N 
ATOM     14  H   UNL     1       4.387   1.370  20.510  0.00  0.00    +0.000 HD
ATOM     15  H   UNL     1       5.167   1.547  19.037  0.00  0.00    +0.000 HD
ENDBRANCH   7  13
BRANCH  12  16
ATOM     16  N   UNL     1       6.285   4.053  18.538  0.00  0.00    +0.000 N 
ATOM     17  H   UNL     1       6.952   4.778  18.780  0.00  0.00    +0.000 HD
ATOM     18  H   UNL     1       6.621   3.137  18.830  0.00  0.00    +0.000 HD
ENDBRANCH  12  16
ENDBRANCH   1  10
BRANCH   4  19
ATOM     19  C   UNL     1       0.518  10.992  18.762  0.00  0.00    +0.000 C 
BRANCH  19  20
ATOM     20  C   UNL     1      -0.959  10.908  18.468  0.00  0.00    +0.000 A 
ATOM     21  C   UNL     1      -1.453   9.977  17.552  0.00  0.00    +0.000 A 
ATOM     22  C   UNL     1      -2.814   9.964  17.286  0.00  0.00    +0.000 A 
ATOM     23  N   UNL     1      -3.703  10.801  17.863  0.00  0.00    +0.000 NA
ATOM     24  C   UNL     1      -3.205  11.695  18.741  0.00  0.00    +0.000 A 
ATOM     25  C   UNL     1      -1.862  11.786  19.074  0.00  0.00    +0.000 A 
ENDBRANCH  19  20
ENDBRANCH   4  19
TORSDOF 5
ENDMDL
MODEL 2
REMARK VINA RESULT:      -8.0      0.020      1.047
REMARK  Name = 
REMARK  5 active torsions:
REMARK  status: ('A' for Active; 'I' for Inactive)
REMARK    1  A    between atoms: N_1  and  C_2
REMARK    2  A    between atoms: C_5  and  C_6
REMARK    3  A    between atoms: C_9  and  C_10
REMARK    4  A    between atoms: C_10  and  C_11
REMARK    5  A    between atoms: C_20  and  N_21
REMARK                            x       y       z     vdW  Elec       q    Type
REMARK                         _______ _______ _______ _____ _____    ______ ____
ROOT
ATOM      1  C   UNL     1       2.420   7.097  19.246  0.00  0.00    +0.000 A 
ATOM      2  C   UNL     1       2.479   7.798  18.029  0.00  0.00    +0.000 A 
ATOM      3  C   UNL     1       1.880   9.054  17.873  0.00  0.00    +0.000 A 
ATOM      4  C   UNL     1       1.188   9.648  18.933  0.00  0.00    +0.000 A 
ATOM      5  C   UNL     1       1.097   8.954  20.143  0.00  0.00    +0.000 A 
ATOM      6  C   UNL     1       1.713   7.706  20.298  0.00  0.00    +0.000 A 
ENDROOT
BRANCH   1  10
ATOM      7  C   UNL     1       4.296   3.224  19.695  0.00  0.00    +0.000 A 
ATOM      8  C   UNL     1       3.040   3.472  20.245  0.00  0.00    +0.000 A 
ATOM      9  C   UNL     1       2.429   4.718  20.079  0.00  0.00    +0.000 A 
ATOM     10  C   UNL     1       3.067   5.771  19.402  0.00  0.00    +0.000 A 
ATOM     11  C   UNL     1       4.357   5.517  18.900  0.00  0.00    +0.000 A 
ATOM     12  C   UNL     1       5.000   4.288  19.102  0.00  0.00    +0.000 A 
BRANCH   7  13
ATOM     13  N   UNL     1       4.939   1.987  19.922  0.00  0.00    +0.000 N 
ATOM     14  H   UNL     1       4.612   1.529  20.767  0.00  0.00    +0.000 HD
ATOM     15  H   UNL     1       4.820   1.386  19.110  0.00  0.00    +0.000 HD
ENDBRANCH   7  13
BRANCH  12  16
ATOM     16  N   UNL     1       6.274   4.057  18.534  0.00  0.00    +0.000 N 
ATOM     17  H   UNL     1       6.404   4.554  17.658  0.00  0.00    +0.000 HD
ATOM     18  H   UNL     1       6.996   4.310  19.206  0.00  0.00    +0.000 HD
ENDBRANCH  12  16
ENDBRANCH   1  10
BRANCH   4  19
ATOM     19  C   UNL     1       0.531  10.997  18.760  0.00  0.00    +0.000 C 
BRANCH  19  20
ATOM     20  C   UNL     1      -0.946  10.910  18.461  0.00  0.00    +0.000 A 
ATOM     21  C   UNL     1      -1.435   9.975  17.546  0.00  0.00    +0.000 A 
ATOM     22  C   UNL     1      -2.795   9.958  17.275  0.00  0.00    +0.000 A 
ATOM     23  N   UNL     1      -3.687  10.795  17.846  0.00  0.00    +0.000 NA
ATOM     24  C   UNL     1      -3.194  11.693  18.723  0.00  0.00    +0.000 A 
ATOM     25  C   UNL     1      -1.853  11.788  19.061  0.00  0.00    +0.000 A 
ENDBRANCH  19  20
ENDBRANCH   4  19
TORSDOF 5
ENDMDL
MODEL 3
REMARK VINA RESULT:      -8.0      0.035      1.025
REMARK  Name = 
REMARK  5 active torsions:
REMARK  status: ('A' for Active; 'I' for Inactive)
REMARK    1  A    between atoms: N_1  and  C_2
REMARK    2  A    between atoms: C_5  and  C_6
REMARK    3  A    between atoms: C_9  and  C_10
REMARK    4  A    between atoms: C_10  and  C_11
REMARK    5  A    between atoms: C_20  and  N_21
REMARK                            x       y       z     vdW  Elec       q    Type
REMARK                         _______ _______ _______ _____ _____    ______ ____
ROOT
ATOM      1  C   UNL     1       2.420   7.110  19.229  0.00  0.00    +0.000 A 
ATOM      2  C   UNL     1       1.738   7.725  20.295  0.00  0.00    +0.000 A 
ATOM      3  C   UNL     1       1.119   8.972  20.150  0.00  0.00    +0.000 A 
ATOM      4  C   UNL     1       1.172   9.656  18.932  0.00  0.00    +0.000 A 
ATOM      5  C   UNL     1       1.868   9.072  17.869  0.00  0.00    +0.000 A 
ATOM      6  C   UNL     1       2.470   7.816  18.014  0.00  0.00    +0.000 A 
ENDROOT
BRANCH   1  10
ATOM      7  C   UNL     1       4.286   3.235  19.697  0.00  0.00    +0.000 A 
ATOM      8  C   UNL     1       3.031   3.488  20.246  0.00  0.00    +0.000 A 
ATOM      9  C   UNL     1       2.423   4.735  20.074  0.00  0.00    +0.000 A 
ATOM     10  C   UNL     1       3.063   5.784  19.391  0.00  0.00    +0.000 A 
ATOM     11  C   UNL     1       4.353   5.524  18.891  0.00  0.00    +0.000 A 
ATOM     12  C   UNL     1       4.993   4.294  19.099  0.00  0.00    +0.000 A 
BRANCH   7  13
ATOM     13  N   UNL     1       4.926   1.998  19.930  0.00  0.00    +0.000 N 
ATOM     14  H   UNL     1       5.375   1.630  19.097  0.00  0.00    +0.000 HD
ATOM     15  H   UNL     1       5.592   2.095  20.692  0.00  0.00    +0.000 HD
ENDBRANCH   7  13
BRANCH  12  16
ATOM     16  N   UNL     1       6.266   4.057  18.531  0.00  0.00    +0.000 N 
ATOM     17  H   UNL     1       6.378   4.507  17.628  0.00  0.00    +0.000 HD
ATOM     18  H   UNL     1       6.989   4.361  19.181  0.00  0.00    +0.000 HD
ENDBRANCH  12  16
ENDBRANCH   1  10
BRANCH   4  19
ATOM     19  C   UNL     1       0.516  11.008  18.781  0.00  0.00    +0.000 C 
BRANCH  19  20
ATOM     20  C   UNL     1      -0.949  10.926  18.432  0.00  0.00    +0.000 A 
ATOM     21  C   UNL     1      -1.874  11.786  19.028  0.00  0.00    +0.000 A 
ATOM     22  C   UNL     1      -3.216  11.648  18.705  0.00  0.00    +0.000 A 
ATOM     23  N   UNL     1      -3.691  10.726  17.840  0.00  0.00    +0.000 NA
ATOM     24  C   UNL     1      -2.782   9.903  17.279  0.00  0.00    +0.000 A 
ATOM     25  C   UNL     1      -1.421   9.963  17.536  0.00  0.00    +0.000 A 
ENDBRANCH  19  20
ENDBRANCH   4  19
TORSDOF 5
ENDMDL
MODEL 4
REMARK VINA RESULT:      -8.0      0.046      1.466
REMARK  Name = 
REMARK  5 active torsions:
REMARK  status: ('A' for Active; 'I' for Inactive)
REMARK    1  A    between atoms: N_1  and  C_2
REMARK    2  A    between atoms: C_5  and  C_6
REMARK    3  A    between atoms: C_9  and  C_10
REMARK    4  A    between atoms: C_10  and  C_11
REMARK    5  A    between atoms: C_20  and  N_21
REMARK                            x       y       z     vdW  Elec       q    Type
REMARK                         _______ _______ _______ _____ _____    ______ ____
ROOT
ATOM      1  C   UNL     1       2.429   7.122  19.240  0.00  0.00    +0.000 A 
ATOM      2  C   UNL     1       2.514   7.833  18.030  0.00  0.00    +0.000 A 
ATOM      3  C   UNL     1       1.922   9.092  17.874  0.00  0.00    +0.000 A 
ATOM      4  C   UNL     1       1.211   9.679  18.924  0.00  0.00    +0.000 A 
ATOM      5  C   UNL     1       1.093   8.975  20.126  0.00  0.00    +0.000 A 
ATOM      6  C   UNL     1       1.703   7.723  20.283  0.00  0.00    +0.000 A 
ENDROOT
BRANCH   1  10
ATOM      7  C   UNL     1       4.286   3.240  19.694  0.00  0.00    +0.000 A 
ATOM      8  C   UNL     1       3.038   3.499  20.255  0.00  0.00    +0.000 A 
ATOM      9  C   UNL     1       2.433   4.748  20.088  0.00  0.00    +0.000 A 
ATOM     10  C   UNL     1       3.069   5.793  19.397  0.00  0.00    +0.000 A 
ATOM     11  C   UNL     1       4.353   5.527  18.883  0.00  0.00    +0.000 A 
ATOM     12  C   UNL     1       4.990   4.295  19.086  0.00  0.00    +0.000 A 
BRANCH   7  13
ATOM     13  N   UNL     1       4.923   2.000  19.921  0.00  0.00    +0.000 N 
ATOM     14  H   UNL     1       5.762   1.886  19.361  0.00  0.00    +0.000 HD
ATOM     15  H   UNL     1       5.128   1.899  20.913  0.00  0.00    +0.000 HD
ENDBRANCH   7  13
BRANCH  12  16
ATOM     16  N   UNL     1       6.256   4.052  18.505  0.00  0.00    +0.000 N 
ATOM     17  H   UNL     1       6.287   3.174  17.998  0.00  0.00    +0.000 HD
ATOM     18  H   UNL     1       6.506   4.831  17.899  0.00  0.00    +0.000 HD
ENDBRANCH  12  16
ENDBRANCH   1  10
BRANCH   4  19
ATOM     19  C   UNL     1       0.560  11.031  18.750  0.00  0.00    +0.000 C 
BRANCH  19  20
ATOM     20  C   UNL     1      -0.913  10.951  18.435  0.00  0.00    +0.000 A 
ATOM     21  C   UNL     1      -1.824  11.809  19.055  0.00  0.00    +0.000 A 
ATOM     22  C   UNL     1      -3.173  11.671  18.763  0.00  0.00    +0.000 A 
ATOM     23  N   UNL     1      -3.667  10.752  17.905  0.00  0.00    +0.000 NA
ATOM     24  C   UNL     1      -2.772   9.931  17.320  0.00  0.00    +0.000 A 
ATOM     25  C   UNL     1      -1.405   9.990  17.547  0.00  0.00    +0.000 A 
ENDBRANCH  19  20
ENDBRANCH   4  19
TORSDOF 5
ENDMDL
MODEL 5
REMARK VINA RESULT:      -7.7      2.718      8.066
REMARK  Name = 
REMARK  5 active torsions:
REMARK  status: ('A' for Active; 'I' for Inactive)
REMARK    1  A    between atoms: N_1  and  C_2
REMARK    2  A    between atoms: C_5  and  C_6
REMARK    3  A    between atoms: C_9  and  C_10
REMARK    4  A    between atoms: C_10  and  C_11
REMARK    5  A    between atoms: C_20  and  N_21
REMARK                            x       y       z     vdW  Elec       q    Type
REMARK                         _______ _______ _______ _____ _____    ______ ____
ROOT
ATOM      1  C   UNL     1       1.900   7.381  19.718  0.00  0.00    +0.000 A 
ATOM      2  C   UNL     1       1.923   6.119  20.338  0.00  0.00    +0.000 A 
ATOM      3  C   UNL     1       2.533   5.013  19.735  0.00  0.00    +0.000 A 
ATOM      4  C   UNL     1       3.132   5.129  18.477  0.00  0.00    +0.000 A 
ATOM      5  C   UNL     1       3.095   6.370  17.833  0.00  0.00    +0.000 A 
ATOM      6  C   UNL     1       2.499   7.477  18.450  0.00  0.00    +0.000 A 
ENDROOT
BRANCH   1  10
ATOM      7  C   UNL     1       0.024  10.787  21.615  0.00  0.00    +0.000 A 
ATOM      8  C   UNL     1       0.525  10.884  20.319  0.00  0.00    +0.000 A 
ATOM      9  C   UNL     1       1.111   9.774  19.703  0.00  0.00    +0.000 A 
ATOM     10  C   UNL     1       1.260   8.548  20.371  0.00  0.00    +0.000 A 
ATOM     11  C   UNL     1       0.795   8.486  21.699  0.00  0.00    +0.000 A 
ATOM     12  C   UNL     1       0.250   9.605  22.344  0.00  0.00    +0.000 A 
BRANCH   7  13
ATOM     13  N   UNL     1      -0.506  11.926  22.258  0.00  0.00    +0.000 N 
ATOM     14  H   UNL     1       0.215  12.513  22.666  0.00  0.00    +0.000 HD
ATOM     15  H   UNL     1      -1.079  12.453  21.603  0.00  0.00    +0.000 HD
ENDBRANCH   7  13
BRANCH  12  16
ATOM     16  N   UNL     1      -0.255   9.484  23.660  0.00  0.00    +0.000 N 
ATOM     17  H   UNL     1      -0.992  10.154  23.855  0.00  0.00    +0.000 HD
ATOM     18  H   UNL     1      -0.581   8.531  23.811  0.00  0.00    +0.000 HD
ENDBRANCH  12  16
ENDBRANCH   1  10
BRANCH   4  19
ATOM     19  C   UNL     1       3.777   3.932  17.820  0.00  0.00    +0.000 C 
BRANCH  19  20
ATOM     20  C   UNL     1       5.162   4.214  17.291  0.00  0.00    +0.000 A 
ATOM     21  C   UNL     1       5.432   4.139  15.922  0.00  0.00    +0.000 A 
ATOM     22  C   UNL     1       6.729   4.368  15.487  0.00  0.00    +0.000 A 
ATOM     23  N   UNL     1       7.758   4.664  16.310  0.00  0.00    +0.000 NA
ATOM     24  C   UNL     1       7.477   4.726  17.627  0.00  0.00    +0.000 A 
ATOM     25  C   UNL     1       6.215   4.514  18.159  0.00  0.00    +0.000 A 
ENDBRANCH  19  20
ENDBRANCH   4  19
TORSDOF 5
ENDMDL
MODEL 6
REMARK VINA RESULT:      -7.7      2.714      8.118
REMARK  Name = 
REMARK  5 active torsions:
REMARK  status: ('A' for Active; 'I' for Inactive)
REMARK    1  A    between atoms: N_1  and  C_2
REMARK    2  A    between atoms: C_5  and  C_6
REMARK    3  A    between atoms: C_9  and  C_10
REMARK    4  A    between atoms: C_10  and  C_11
REMARK    5  A    between atoms: C_20  and  N_21
REMARK                            x       y       z     vdW  Elec       q    Type
REMARK                         _______ _______ _______ _____ _____    ______ ____
ROOT
ATOM      1  C   UNL     1       1.893   7.363  19.707  0.00  0.00    +0.000 A 
ATOM      2  C   UNL     1       2.481   7.465  18.434  0.00  0.00    +0.000 A 
ATOM      3  C   UNL     1       3.070   6.362  17.805  0.00  0.00    +0.000 A 
ATOM      4  C   UNL     1       3.104   5.116  18.438  0.00  0.00    +0.000 A 
ATOM      5  C   UNL     1       2.548   5.002  19.716  0.00  0.00    +0.000 A 
ATOM      6  C   UNL     1       1.943   6.105  20.332  0.00  0.00    +0.000 A 
ENDROOT
BRANCH   1  10
ATOM      7  C   UNL     1       0.045  10.788  21.599  0.00  0.00    +0.000 A 
ATOM      8  C   UNL     1       0.568  10.885  20.311  0.00  0.00    +0.000 A 
ATOM      9  C   UNL     1       1.145   9.770  19.696  0.00  0.00    +0.000 A 
ATOM     10  C   UNL     1       1.263   8.537  20.359  0.00  0.00    +0.000 A 
ATOM     11  C   UNL     1       0.777   8.474  21.678  0.00  0.00    +0.000 A 
ATOM     12  C   UNL     1       0.240   9.598  22.323  0.00  0.00    +0.000 A 
BRANCH   7  13
ATOM     13  N   UNL     1      -0.475  11.932  22.241  0.00  0.00    +0.000 N 
ATOM     14  H   UNL     1       0.194  12.361  22.873  0.00  0.00    +0.000 HD
ATOM     15  H   UNL     1      -0.799  12.599  21.544  0.00  0.00    +0.000 HD
ENDBRANCH   7  13
BRANCH  12  16
ATOM     16  N   UNL     1      -0.287   9.476  23.630  0.00  0.00    +0.000 N 
ATOM     17  H   UNL     1      -1.191   9.015  23.641  0.00  0.00    +0.000 HD
ATOM     18  H   UNL     1       0.381   8.984  24.220  0.00  0.00    +0.000 HD
ENDBRANCH  12  16
ENDBRANCH   1  10
BRANCH   4  19
ATOM     19  C   UNL     1       3.752   3.930  17.765  0.00  0.00    +0.000 C 
BRANCH  19  20
ATOM     20  C   UNL     1       5.145   4.215  17.260  0.00  0.00    +0.000 A 
ATOM     21  C   UNL     1       5.435   4.162  15.895  0.00  0.00    +0.000 A 
ATOM     22  C   UNL     1       6.739   4.394  15.482  0.00  0.00    +0.000 A 
ATOM     23  N   UNL     1       7.757   4.673  16.324  0.00  0.00    +0.000 NA
ATOM     24  C   UNL     1       7.457   4.716  17.638  0.00  0.00    +0.000 A 
ATOM     25  C   UNL     1       6.186   4.499  18.149  0.00  0.00    +0.000 A 
ENDBRANCH  19  20
ENDBRANCH   4  19
TORSDOF 5
ENDMDL
MODEL 7
REMARK VINA RESULT:      -7.7      0.630      1.486
REMARK  Name = 
REMARK  5 active torsions:
REMARK  status: ('A' for Active; 'I' for Inactive)
REMARK    1  A    between atoms: N_1  and  C_2
REMARK    2  A    between atoms: C_5  and  C_6
REMARK    3  A    between atoms: C_9  and  C_10
REMARK    4  A    between atoms: C_10  and  C_11
REMARK    5  A    between atoms: C_20  and  N_21
REMARK                            x       y       z     vdW  Elec       q    Type
REMARK                         _______ _______ _______ _____ _____    ______ ____
ROOT
ATOM      1  C   UNL     1       2.437   7.107  19.228  0.00  0.00    +0.000 A 
ATOM      2  C   UNL     1       1.714   7.713  20.271  0.00  0.00    +0.000 A 
ATOM      3  C   UNL     1       1.092   8.957  20.109  0.00  0.00    +0.000 A 
ATOM      4  C   UNL     1       1.182   9.645  18.896  0.00  0.00    +0.000 A 
ATOM      5  C   UNL     1       1.919   9.070  17.856  0.00  0.00    +0.000 A 
ATOM      6  C   UNL     1       2.525   7.818  18.018  0.00  0.00    +0.000 A 
ENDROOT
BRANCH   1  10
ATOM      7  C   UNL     1       4.336   3.255  19.756  0.00  0.00    +0.000 A 
ATOM      8  C   UNL     1       4.836   4.172  18.834  0.00  0.00    +0.000 A 
ATOM      9  C   UNL     1       4.232   5.424  18.682  0.00  0.00    +0.000 A 
ATOM     10  C   UNL     1       3.084   5.785  19.408  0.00  0.00    +0.000 A 
ATOM     11  C   UNL     1       2.564   4.824  20.295  0.00  0.00    +0.000 A 
ATOM     12  C   UNL     1       3.132   3.549  20.420  0.00  0.00    +0.000 A 
BRANCH   7  13
ATOM     13  N   UNL     1       4.908   1.968  19.858  0.00  0.00    +0.000 N 
ATOM     14  H   UNL     1       5.720   1.951  20.467  0.00  0.00    +0.000 HD
ATOM     15  H   UNL     1       4.203   1.305  20.170  0.00  0.00    +0.000 HD
ENDBRANCH   7  13
BRANCH  12  16
ATOM     16  N   UNL     1       2.610   2.634  21.364  0.00  0.00    +0.000 N 
ATOM     17  H   UNL     1       1.935   1.996  20.953  0.00  0.00    +0.000 HD
ATOM     18  H   UNL     1       3.375   2.122  21.799  0.00  0.00    +0.000 HD
ENDBRANCH  12  16
ENDBRANCH   1  10
BRANCH   4  19
ATOM     19  C   UNL     1       0.522  10.993  18.727  0.00  0.00    +0.000 C 
BRANCH  19  20
ATOM     20  C   UNL     1      -0.956  10.903  18.436  0.00  0.00    +0.000 A 
ATOM     21  C   UNL     1      -1.449   9.961  17.530  0.00  0.00    +0.000 A 
ATOM     22  C   UNL     1      -2.811   9.942  17.266  0.00  0.00    +0.000 A 
ATOM     23  N   UNL     1      -3.700  10.784  17.835  0.00  0.00    +0.000 NA
ATOM     24  C   UNL     1      -3.203  11.689  18.702  0.00  0.00    +0.000 A 
ATOM     25  C   UNL     1      -1.860  11.787  19.032  0.00  0.00    +0.000 A 
ENDBRANCH  19  20
ENDBRANCH   4  19
TORSDOF 5
ENDMDL
MODEL 8
REMARK VINA RESULT:      -7.7      0.639      1.805
REMARK  Name = 
REMARK  5 active torsions:
REMARK  status: ('A' for Active; 'I' for Inactive)
REMARK    1  A    between atoms: N_1  and  C_2
REMARK    2  A    between atoms: C_5  and  C_6
REMARK    3  A    between atoms: C_9  and  C_10
REMARK    4  A    between atoms: C_10  and  C_11
REMARK    5  A    between atoms: C_20  and  N_21
REMARK                            x       y       z     vdW  Elec       q    Type
REMARK                         _______ _______ _______ _____ _____    ______ ____
ROOT
ATOM      1  C   UNL     1       2.367   7.197  19.203  0.00  0.00    +0.000 A 
ATOM      2  C   UNL     1       1.665   7.801  20.262  0.00  0.00    +0.000 A 
ATOM      3  C   UNL     1       1.034   9.041  20.114  0.00  0.00    +0.000 A 
ATOM      4  C   UNL     1       1.096   9.731  18.899  0.00  0.00    +0.000 A 
ATOM      5  C   UNL     1       1.812   9.159  17.844  0.00  0.00    +0.000 A 
ATOM      6  C   UNL     1       2.426   7.909  17.992  0.00  0.00    +0.000 A 
ENDROOT
BRANCH   1  10
ATOM      7  C   UNL     1       4.292   3.353  19.688  0.00  0.00    +0.000 A 
ATOM      8  C   UNL     1       4.789   4.285  18.780  0.00  0.00    +0.000 A 
ATOM      9  C   UNL     1       4.176   5.534  18.642  0.00  0.00    +0.000 A 
ATOM     10  C   UNL     1       3.023   5.878  19.368  0.00  0.00    +0.000 A 
ATOM     11  C   UNL     1       2.506   4.902  20.241  0.00  0.00    +0.000 A 
ATOM     12  C   UNL     1       3.083   3.629  20.352  0.00  0.00    +0.000 A 
BRANCH   7  13
ATOM     13  N   UNL     1       4.872   2.069  19.775  0.00  0.00    +0.000 N 
ATOM     14  H   UNL     1       4.784   1.665  20.703  0.00  0.00    +0.000 HD
ATOM     15  H   UNL     1       4.462   1.459  19.071  0.00  0.00    +0.000 HD
ENDBRANCH   7  13
BRANCH  12  16
ATOM     16  N   UNL     1       2.564   2.698  21.282  0.00  0.00    +0.000 N 
ATOM     17  H   UNL     1       2.959   2.816  22.209  0.00  0.00    +0.000 HD
ATOM     18  H   UNL     1       1.548   2.774  21.306  0.00  0.00    +0.000 HD
ENDBRANCH  12  16
ENDBRANCH   1  10
BRANCH   4  19
ATOM     19  C   UNL     1       0.427  11.076  18.745  0.00  0.00    +0.000 C 
BRANCH  19  20
ATOM     20  C   UNL     1      -1.043  10.980  18.417  0.00  0.00    +0.000 A 
ATOM     21  C   UNL     1      -1.965  11.845  19.010  0.00  0.00    +0.000 A 
ATOM     22  C   UNL     1      -3.310  11.692  18.707  0.00  0.00    +0.000 A 
ATOM     23  N   UNL     1      -3.790  10.753  17.864  0.00  0.00    +0.000 NA
ATOM     24  C   UNL     1      -2.884   9.926  17.305  0.00  0.00    +0.000 A 
ATOM     25  C   UNL     1      -1.520   9.998  17.544  0.00  0.00    +0.000 A 
ENDBRANCH  19  20
ENDBRANCH   4  19
TORSDOF 5
ENDMDL
MODEL 9
REMARK VINA RESULT:      -7.7      2.719      8.096
REMARK  Name = 
REMARK  5 active torsions:
REMARK  status: ('A' for Active; 'I' for Inactive)
REMARK    1  A    between atoms: N_1  and  C_2
REMARK    2  A    between atoms: C_5  and  C_6
REMARK    3  A    between atoms: C_9  and  C_10
REMARK    4  A    between atoms: C_10  and  C_11
REMARK    5  A    between atoms: C_20  and  N_21
REMARK                            x       y       z     vdW  Elec       q    Type
REMARK                         _______ _______ _______ _____ _____    ______ ____
ROOT
ATOM      1  C   UNL     1       1.916   7.332  19.720  0.00  0.00    +0.000 A 
ATOM      2  C   UNL     1       1.914   6.067  20.334  0.00  0.00    +0.000 A 
ATOM      3  C   UNL     1       2.519   4.957  19.733  0.00  0.00    +0.000 A 
ATOM      4  C   UNL     1       3.139   5.072  18.486  0.00  0.00    +0.000 A 
ATOM      5  C   UNL     1       3.127   6.316  17.848  0.00  0.00    +0.000 A 
ATOM      6  C   UNL     1       2.536   7.428  18.462  0.00  0.00    +0.000 A 
ENDROOT
BRANCH   1  10
ATOM      7  C   UNL     1       0.053  10.750  21.608  0.00  0.00    +0.000 A 
ATOM      8  C   UNL     1       0.522  10.831  20.299  0.00  0.00    +0.000 A 
ATOM      9  C   UNL     1       1.104   9.718  19.686  0.00  0.00    +0.000 A 
ATOM     10  C   UNL     1       1.280   8.503  20.371  0.00  0.00    +0.000 A 
ATOM     11  C   UNL     1       0.848   8.459  21.709  0.00  0.00    +0.000 A 
ATOM     12  C   UNL     1       0.308   9.582  22.350  0.00  0.00    +0.000 A 
BRANCH   7  13
ATOM     13  N   UNL     1      -0.472  11.895  22.246  0.00  0.00    +0.000 N 
ATOM     14  H   UNL     1      -0.079  12.758  21.882  0.00  0.00    +0.000 HD
ATOM     15  H   UNL     1      -1.487  11.895  22.168  0.00  0.00    +0.000 HD
ENDBRANCH   7  13
BRANCH  12  16
ATOM     16  N   UNL     1      -0.165   9.477  23.679  0.00  0.00    +0.000 N 
ATOM     17  H   UNL     1       0.221  10.194  24.285  0.00  0.00    +0.000 HD
ATOM     18  H   UNL     1      -1.183   9.509  23.680  0.00  0.00    +0.000 HD
ENDBRANCH  12  16
ENDBRANCH   1  10
BRANCH   4  19
ATOM     19  C   UNL     1       3.779   3.870  17.832  0.00  0.00    +0.000 C 
BRANCH  19  20
ATOM     20  C   UNL     1       5.168   4.143  17.309  0.00  0.00    +0.000 A 
ATOM     21  C   UNL     1       6.210   4.464  18.183  0.00  0.00    +0.000 A 
ATOM     22  C   UNL     1       7.460   4.744  17.652  0.00  0.00    +0.000 A 
ATOM     23  N   UNL     1       7.739   4.725  16.331  0.00  0.00    +0.000 NA
ATOM     24  C   UNL     1       6.719   4.417  15.505  0.00  0.00    +0.000 A 
ATOM     25  C   UNL     1       5.436   4.121  15.937  0.00  0.00    +0.000 A 
ENDBRANCH  19  20
ENDBRANCH   4  19
TORSDOF 5
ENDMDL
