MODEL 1
REMARK VINA RESULT:      -7.8      0.000      0.000
REMARK  Name = 
REMARK  6 active torsions:
REMARK  status: ('A' for Active; 'I' for Inactive)
REMARK    1  A    between atoms: C_1  and  C_2
REMARK    2  A    between atoms: C_5  and  C_6
REMARK    3  A    between atoms: N_8  and  C_9
REMARK    4  A    between atoms: C_9  and  C_10
REMARK    5  A    between atoms: C_10  and  C_11
REMARK    6  A    between atoms: C_14  and  C_15
REMARK                            x       y       z     vdW  Elec       q    Type
REMARK                         _______ _______ _______ _____ _____    ______ ____
ROOT
ATOM      1  C   UNL     1       6.102   6.282  16.503  0.00  0.00    +0.000 C 
ENDROOT
BRANCH   1   2
ATOM      2  C   UNL     1       4.815   6.357  17.268  0.00  0.00    +0.000 A 
ATOM      3  C   UNL     1       3.989   7.460  17.341  0.00  0.00    +0.000 A 
ATOM      4  S   UNL     1       2.621   7.114  18.301  0.00  0.00    +0.000 S 
ATOM      5  C   UNL     1       3.201   5.508  18.554  0.00  0.00    +0.000 A 
ATOM      6  N   UNL     1       4.356   5.247  17.965  0.00  0.00    +0.000 NA
BRANCH   5   7
ATOM      7  C   UNL     1       2.463   4.567  19.418  0.00  0.00    +0.000 A 
ATOM      8  C   UNL     1       2.695   4.473  20.801  0.00  0.00    +0.000 A 
ATOM      9  C   UNL     1       2.011   3.538  21.585  0.00  0.00    +0.000 A 
ATOM     10  C   UNL     1       1.077   2.689  20.999  0.00  0.00    +0.000 A 
ATOM     11  C   UNL     1       0.813   2.785  19.635  0.00  0.00    +0.000 A 
ATOM     12  C   UNL     1       1.495   3.721  18.853  0.00  0.00    +0.000 A 
ENDBRANCH   5   7
ENDBRANCH   1   2
BRANCH   1  13
ATOM     13  C   UNL     1       6.651   4.863  16.370  0.00  0.00    +0.000 C 
BRANCH  13  16
ATOM     14  C   UNL     1       6.657   4.450  13.920  0.00  0.00    +0.000 C 
ATOM     15  O   UNL     1       7.521   5.299  13.718  0.00  0.00    +0.000 OA
ATOM     16  N   UNL     1       6.162   4.188  15.180  0.00  0.00    +0.000 N 
ATOM     17  H   UNL     1       5.431   3.490  15.257  0.00  0.00    +0.000 HD
BRANCH  14  22
ATOM     18  C   UNL     1       3.205   3.151  10.777  0.00  0.00    +0.000 C 
ATOM     19  C   UNL     1       4.523   3.022  11.430  0.00  0.00    +0.000 A 
ATOM     20  C   UNL     1       5.572   2.142  11.272  0.00  0.00    +0.000 A 
ATOM     21  C   UNL     1       6.565   2.539  12.196  0.00  0.00    +0.000 A 
ATOM     22  C   UNL     1       6.071   3.640  12.869  0.00  0.00    +0.000 A 
ATOM     23  O   UNL     1       4.816   3.935  12.398  0.00  0.00    +0.000 OA
ENDBRANCH  14  22
ENDBRANCH  13  16
ENDBRANCH   1  13
TORSDOF 5
ENDMDL
MODEL 2
REMARK VINA RESULT:      -7.7      0.692      1.542
REMARK  Name = 
REMARK  6 active torsions:
REMARK  status: ('A' for Active; 'I' for Inactive)
REMARK    1  A    between atoms: C_1  and  C_2
REMARK    2  A    between atoms: C_5  and  C_6
REMARK    3  A    between atoms: N_8  and  C_9
REMARK    4  A    between atoms: C_9  and  C_10
REMARK    5  A    between atoms: C_10  and  C_11
REMARK    6  A    between atoms: C_14  and  C_15
REMARK                            x       y       z     vdW  Elec       q    Type
REMARK                         _______ _______ _______ _____ _____    ______ ____
ROOT
ATOM      1  C   UNL     1       6.334   6.403  16.852  0.00  0.00    +0.000 C 
ENDROOT
BRANCH   1   2
ATOM      2  C   UNL     1       4.961   6.391  17.453  0.00  0.00    +0.000 A 
ATOM      3  C   UNL     1       4.035   7.411  17.356  0.00  0.00    +0.000 A 
ATOM      4  S   UNL     1       2.595   6.983  18.168  0.00  0.00    +0.000 S 
ATOM      5  C   UNL     1       3.283   5.457  18.589  0.00  0.00    +0.000 A 
ATOM      6  N   UNL     1       4.521   5.280  18.159  0.00  0.00    +0.000 NA
BRANCH   5   7
ATOM      7  C   UNL     1       2.532   4.495  19.419  0.00  0.00    +0.000 A 
ATOM      8  C   UNL     1       1.360   3.865  18.968  0.00  0.00    +0.000 A 
ATOM      9  C   UNL     1       0.646   2.993  19.797  0.00  0.00    +0.000 A 
ATOM     10  C   UNL     1       1.098   2.732  21.087  0.00  0.00    +0.000 A 
ATOM     11  C   UNL     1       2.272   3.327  21.543  0.00  0.00    +0.000 A 
ATOM     12  C   UNL     1       2.987   4.195  20.714  0.00  0.00    +0.000 A 
ENDBRANCH   5   7
ENDBRANCH   1   2
BRANCH   1  13
ATOM     13  C   UNL     1       6.905   5.007  16.608  0.00  0.00    +0.000 C 
BRANCH  13  16
ATOM     14  C   UNL     1       6.768   4.621  14.157  0.00  0.00    +0.000 C 
ATOM     15  O   UNL     1       7.658   5.433  13.919  0.00  0.00    +0.000 OA
ATOM     16  N   UNL     1       6.326   4.368  15.439  0.00  0.00    +0.000 N 
ATOM     17  H   UNL     1       5.569   3.702  15.547  0.00  0.00    +0.000 HD
BRANCH  14  22
ATOM     18  C   UNL     1       6.293   0.990  10.985  0.00  0.00    +0.000 C 
ATOM     19  C   UNL     1       5.845   2.213  11.679  0.00  0.00    +0.000 A 
ATOM     20  C   UNL     1       4.707   2.986  11.589  0.00  0.00    +0.000 A 
ATOM     21  C   UNL     1       4.867   4.037  12.521  0.00  0.00    +0.000 A 
ATOM     22  C   UNL     1       6.093   3.850  13.131  0.00  0.00    +0.000 A 
ATOM     23  O   UNL     1       6.693   2.730  12.613  0.00  0.00    +0.000 OA
ENDBRANCH  14  22
ENDBRANCH  13  16
ENDBRANCH   1  13
TORSDOF 5
ENDMDL
MODEL 3
REMARK VINA RESULT:      -7.5      2.362      3.707
REMARK  Name = 
REMARK  6 active torsions:
REMARK  status: ('A' for Active; 'I' for Inactive)
REMARK    1  A    between atoms: C_1  and  C_2
REMARK    2  A    between atoms: C_5  and  C_6
REMARK    3  A    between atoms: N_8  and  C_9
REMARK    4  A    between atoms: C_9  and  C_10
REMARK    5  A    between atoms: C_10  and  C_11
REMARK    6  A    between atoms: C_14  and  C_15
REMARK                            x       y       z     vdW  Elec       q    Type
REMARK                         _______ _______ _______ _____ _____    ______ ____
ROOT
ATOM      1  C   UNL     1       5.135   3.759  18.922  0.00  0.00    +0.000 C 
ENDROOT
BRANCH   1   2
ATOM      2  C   UNL     1       3.912   4.482  19.397  0.00  0.00    +0.000 A 
ATOM      3  C   UNL     1       2.912   3.939  20.178  0.00  0.00    +0.000 A 
ATOM      4  S   UNL     1       1.713   5.110  20.505  0.00  0.00    +0.000 S 
ATOM      5  C   UNL     1       2.603   6.278  19.597  0.00  0.00    +0.000 A 
ATOM      6  N   UNL     1       3.725   5.819  19.070  0.00  0.00    +0.000 NA
BRANCH   5   7
ATOM      7  C   UNL     1       2.075   7.642  19.402  0.00  0.00    +0.000 A 
ATOM      8  C   UNL     1       1.460   8.368  20.435  0.00  0.00    +0.000 A 
ATOM      9  C   UNL     1       0.928   9.641  20.204  0.00  0.00    +0.000 A 
ATOM     10  C   UNL     1       1.011  10.212  18.938  0.00  0.00    +0.000 A 
ATOM     11  C   UNL     1       1.641   9.519  17.906  0.00  0.00    +0.000 A 
ATOM     12  C   UNL     1       2.174   8.248  18.138  0.00  0.00    +0.000 A 
ENDBRANCH   5   7
ENDBRANCH   1   2
BRANCH   1  13
ATOM     13  C   UNL     1       6.130   4.656  18.188  0.00  0.00    +0.000 C 
BRANCH  13  16
ATOM     14  C   UNL     1       5.955   5.199  15.769  0.00  0.00    +0.000 C 
ATOM     15  O   UNL     1       5.528   6.329  15.992  0.00  0.00    +0.000 OA
ATOM     16  N   UNL     1       6.254   4.312  16.782  0.00  0.00    +0.000 N 
ATOM     17  H   UNL     1       6.577   3.390  16.512  0.00  0.00    +0.000 HD
BRANCH  14  22
ATOM     18  C   UNL     1       4.741   2.964  11.646  0.00  0.00    +0.000 C 
ATOM     19  C   UNL     1       5.671   3.670  12.549  0.00  0.00    +0.000 A 
ATOM     20  C   UNL     1       6.991   4.050  12.435  0.00  0.00    +0.000 A 
ATOM     21  C   UNL     1       7.323   4.699  13.647  0.00  0.00    +0.000 A 
ATOM     22  C   UNL     1       6.188   4.682  14.435  0.00  0.00    +0.000 A 
ATOM     23  O   UNL     1       5.175   4.049  13.760  0.00  0.00    +0.000 OA
ENDBRANCH  14  22
ENDBRANCH  13  16
ENDBRANCH   1  13
TORSDOF 5
ENDMDL
MODEL 4
REMARK VINA RESULT:      -7.4      5.903      8.088
REMARK  Name = 
REMARK  6 active torsions:
REMARK  status: ('A' for Active; 'I' for Inactive)
REMARK    1  A    between atoms: C_1  and  C_2
REMARK    2  A    between atoms: C_5  and  C_6
REMARK    3  A    between atoms: N_8  and  C_9
REMARK    4  A    between atoms: C_9  and  C_10
REMARK    5  A    between atoms: C_10  and  C_11
REMARK    6  A    between atoms: C_14  and  C_15
REMARK                            x       y       z     vdW  Elec       q    Type
REMARK                         _______ _______ _______ _____ _____    ______ ____
ROOT
ATOM      1  C   UNL     1       2.398   9.381  17.653  0.00  0.00    +0.000 C 
ENDROOT
BRANCH   1   2
ATOM      2  C   UNL     1       2.848   7.969  17.870  0.00  0.00    +0.000 A 
ATOM      3  C   UNL     1       3.948   7.379  17.280  0.00  0.00    +0.000 A 
ATOM      4  S   UNL     1       4.113   5.765  17.813  0.00  0.00    +0.000 S 
ATOM      5  C   UNL     1       2.717   5.950  18.811  0.00  0.00    +0.000 A 
ATOM      6  N   UNL     1       2.152   7.143  18.743  0.00  0.00    +0.000 NA
BRANCH   5   7
ATOM      7  C   UNL     1       2.201   4.816  19.602  0.00  0.00    +0.000 A 
ATOM      8  C   UNL     1       2.529   4.630  20.956  0.00  0.00    +0.000 A 
ATOM      9  C   UNL     1       2.060   3.519  21.665  0.00  0.00    +0.000 A 
ATOM     10  C   UNL     1       1.249   2.581  21.033  0.00  0.00    +0.000 A 
ATOM     11  C   UNL     1       0.891   2.761  19.699  0.00  0.00    +0.000 A 
ATOM     12  C   UNL     1       1.358   3.873  18.992  0.00  0.00    +0.000 A 
ENDBRANCH   5   7
ENDBRANCH   1   2
BRANCH   1  13
ATOM     13  C   UNL     1       1.243   9.800  18.561  0.00  0.00    +0.000 C 
BRANCH  13  16
ATOM     14  C   UNL     1      -1.166  10.398  18.438  0.00  0.00    +0.000 C 
ATOM     15  O   UNL     1      -1.250  10.557  19.653  0.00  0.00    +0.000 OA
ATOM     16  N   UNL     1       0.008  10.009  17.826  0.00  0.00    +0.000 N 
ATOM     17  H   UNL     1      -0.015   9.875  16.822  0.00  0.00    +0.000 HD
BRANCH  14  22
ATOM     18  C   UNL     1      -5.469  12.153  17.069  0.00  0.00    +0.000 C 
ATOM     19  C   UNL     1      -4.228  11.379  16.872  0.00  0.00    +0.000 A 
ATOM     20  C   UNL     1      -3.738  10.632  15.822  0.00  0.00    +0.000 A 
ATOM     21  C   UNL     1      -2.485  10.131  16.243  0.00  0.00    +0.000 A 
ATOM     22  C   UNL     1      -2.276  10.599  17.527  0.00  0.00    +0.000 A 
ATOM     23  O   UNL     1      -3.347  11.365  17.912  0.00  0.00    +0.000 OA
ENDBRANCH  14  22
ENDBRANCH  13  16
ENDBRANCH   1  13
TORSDOF 5
ENDMDL
MODEL 5
REMARK VINA RESULT:      -7.4      6.065      8.324
REMARK  Name = 
REMARK  6 active torsions:
REMARK  status: ('A' for Active; 'I' for Inactive)
REMARK    1  A    between atoms: C_1  and  C_2
REMARK    2  A    between atoms: C_5  and  C_6
REMARK    3  A    between atoms: N_8  and  C_9
REMARK    4  A    between atoms: C_9  and  C_10
REMARK    5  A    between atoms: C_10  and  C_11
REMARK    6  A    between atoms: C_14  and  C_15
REMARK                            x       y       z     vdW  Elec       q    Type
REMARK                         _______ _______ _______ _____ _____    ______ ____
ROOT
ATOM      1  C   UNL     1       2.214   9.518  17.792  0.00  0.00    +0.000 C 
ENDROOT
BRANCH   1   2
ATOM      2  C   UNL     1       2.704   8.108  17.920  0.00  0.00    +0.000 A 
ATOM      3  C   UNL     1       3.801   7.578  17.271  0.00  0.00    +0.000 A 
ATOM      4  S   UNL     1       4.017   5.942  17.711  0.00  0.00    +0.000 S 
ATOM      5  C   UNL     1       2.643   6.038  18.753  0.00  0.00    +0.000 A 
ATOM      6  N   UNL     1       2.050   7.219  18.764  0.00  0.00    +0.000 NA
BRANCH   5   7
ATOM      7  C   UNL     1       2.176   4.851  19.494  0.00  0.00    +0.000 A 
ATOM      8  C   UNL     1       1.388   3.851  18.898  0.00  0.00    +0.000 A 
ATOM      9  C   UNL     1       0.923   2.762  19.641  0.00  0.00    +0.000 A 
ATOM     10  C   UNL     1       1.244   2.651  20.990  0.00  0.00    +0.000 A 
ATOM     11  C   UNL     1       2.045   3.617  21.593  0.00  0.00    +0.000 A 
ATOM     12  C   UNL     1       2.513   4.704  20.849  0.00  0.00    +0.000 A 
ENDBRANCH   5   7
ENDBRANCH   1   2
BRANCH   1  13
ATOM     13  C   UNL     1       1.036   9.842  18.709  0.00  0.00    +0.000 C 
BRANCH  13  16
ATOM     14  C   UNL     1      -1.224  10.841  18.446  0.00  0.00    +0.000 C 
ATOM     15  O   UNL     1      -1.173  11.394  19.542  0.00  0.00    +0.000 OA
ATOM     16  N   UNL     1      -0.198  10.050  17.972  0.00  0.00    +0.000 N 
ATOM     17  H   UNL     1      -0.331   9.609  17.069  0.00  0.00    +0.000 HD
BRANCH  14  22
ATOM     18  C   UNL     1      -5.684  12.207  17.138  0.00  0.00    +0.000 C 
ATOM     19  C   UNL     1      -4.374  11.565  16.916  0.00  0.00    +0.000 A 
ATOM     20  C   UNL     1      -3.819  10.901  15.843  0.00  0.00    +0.000 A 
ATOM     21  C   UNL     1      -2.520  10.512  16.246  0.00  0.00    +0.000 A 
ATOM     22  C   UNL     1      -2.352  10.960  17.543  0.00  0.00    +0.000 A 
ATOM     23  O   UNL     1      -3.491  11.605  17.953  0.00  0.00    +0.000 OA
ENDBRANCH  14  22
ENDBRANCH  13  16
ENDBRANCH   1  13
TORSDOF 5
ENDMDL
MODEL 6
REMARK VINA RESULT:      -7.3      2.187      3.266
REMARK  Name = 
REMARK  6 active torsions:
REMARK  status: ('A' for Active; 'I' for Inactive)
REMARK    1  A    between atoms: C_1  and  C_2
REMARK    2  A    between atoms: C_5  and  C_6
REMARK    3  A    between atoms: N_8  and  C_9
REMARK    4  A    between atoms: C_9  and  C_10
REMARK    5  A    between atoms: C_10  and  C_11
REMARK    6  A    between atoms: C_14  and  C_15
REMARK                            x       y       z     vdW  Elec       q    Type
REMARK                         _______ _______ _______ _____ _____    ______ ____
ROOT
ATOM      1  C   UNL     1       6.700   4.716  17.458  0.00  0.00    +0.000 C 
ENDROOT
BRANCH   1   2
ATOM      2  C   UNL     1       5.249   4.904  17.782  0.00  0.00    +0.000 A 
ATOM      3  C   UNL     1       4.304   3.899  17.837  0.00  0.00    +0.000 A 
ATOM      4  S   UNL     1       2.779   4.542  18.258  0.00  0.00    +0.000 S 
ATOM      5  C   UNL     1       3.470   6.122  18.357  0.00  0.00    +0.000 A 
ATOM      6  N   UNL     1       4.762   6.170  18.081  0.00  0.00    +0.000 NA
BRANCH   5   7
ATOM      7  C   UNL     1       2.628   7.294  18.662  0.00  0.00    +0.000 A 
ATOM      8  C   UNL     1       2.433   8.343  17.747  0.00  0.00    +0.000 A 
ATOM      9  C   UNL     1       1.666   9.462  18.086  0.00  0.00    +0.000 A 
ATOM     10  C   UNL     1       1.074   9.546  19.342  0.00  0.00    +0.000 A 
ATOM     11  C   UNL     1       1.233   8.506  20.254  0.00  0.00    +0.000 A 
ATOM     12  C   UNL     1       1.997   7.386  19.914  0.00  0.00    +0.000 A 
ENDBRANCH   5   7
ENDBRANCH   1   2
BRANCH   1  13
ATOM     13  C   UNL     1       7.087   5.226  16.071  0.00  0.00    +0.000 C 
BRANCH  13  16
ATOM     14  C   UNL     1       6.804   4.602  13.682  0.00  0.00    +0.000 C 
ATOM     15  O   UNL     1       7.682   5.378  13.313  0.00  0.00    +0.000 OA
ATOM     16  N   UNL     1       6.437   4.481  15.006  0.00  0.00    +0.000 N 
ATOM     17  H   UNL     1       5.685   3.836  15.223  0.00  0.00    +0.000 HD
BRANCH  14  22
ATOM     18  C   UNL     1       6.156   0.716  10.861  0.00  0.00    +0.000 C 
ATOM     19  C   UNL     1       5.739   1.987  11.487  0.00  0.00    +0.000 A 
ATOM     20  C   UNL     1       4.583   2.734  11.425  0.00  0.00    +0.000 A 
ATOM     21  C   UNL     1       4.794   3.860  12.253  0.00  0.00    +0.000 A 
ATOM     22  C   UNL     1       6.067   3.740  12.778  0.00  0.00    +0.000 A 
ATOM     23  O   UNL     1       6.647   2.590  12.306  0.00  0.00    +0.000 OA
ENDBRANCH  14  22
ENDBRANCH  13  16
ENDBRANCH   1  13
TORSDOF 5
ENDMDL
MODEL 7
REMARK VINA RESULT:      -7.3      2.329      3.814
REMARK  Name = 
REMARK  6 active torsions:
REMARK  status: ('A' for Active; 'I' for Inactive)
REMARK    1  A    between atoms: C_1  and  C_2
REMARK    2  A    between atoms: C_5  and  C_6
REMARK    3  A    between atoms: N_8  and  C_9
REMARK    4  A    between atoms: C_9  and  C_10
REMARK    5  A    between atoms: C_10  and  C_11
REMARK    6  A    between atoms: C_14  and  C_15
REMARK                            x       y       z     vdW  Elec       q    Type
REMARK                         _______ _______ _______ _____ _____    ______ ____
ROOT
ATOM      1  C   UNL     1       4.395   3.414  18.554  0.00  0.00    +0.000 C 
ENDROOT
BRANCH   1   2
ATOM      2  C   UNL     1       3.446   4.357  19.229  0.00  0.00    +0.000 A 
ATOM      3  C   UNL     1       2.677   4.063  20.337  0.00  0.00    +0.000 A 
ATOM      4  S   UNL     1       1.751   5.423  20.794  0.00  0.00    +0.000 S 
ATOM      5  C   UNL     1       2.438   6.330  19.496  0.00  0.00    +0.000 A 
ATOM      6  N   UNL     1       3.302   5.655  18.756  0.00  0.00    +0.000 NA
BRANCH   5   7
ATOM      7  C   UNL     1       2.012   7.719  19.238  0.00  0.00    +0.000 A 
ATOM      8  C   UNL     1       2.258   8.370  18.017  0.00  0.00    +0.000 A 
ATOM      9  C   UNL     1       1.881   9.702  17.823  0.00  0.00    +0.000 A 
ATOM     10  C   UNL     1       1.244  10.403  18.843  0.00  0.00    +0.000 A 
ATOM     11  C   UNL     1       0.967   9.767  20.051  0.00  0.00    +0.000 A 
ATOM     12  C   UNL     1       1.341   8.435  20.244  0.00  0.00    +0.000 A 
ENDBRANCH   5   7
ENDBRANCH   1   2
BRANCH   1  13
ATOM     13  C   UNL     1       5.616   4.105  17.950  0.00  0.00    +0.000 C 
BRANCH  13  16
ATOM     14  C   UNL     1       5.581   4.798  15.563  0.00  0.00    +0.000 C 
ATOM     15  O   UNL     1       5.248   5.947  15.840  0.00  0.00    +0.000 OA
ATOM     16  N   UNL     1       5.762   3.831  16.531  0.00  0.00    +0.000 N 
ATOM     17  H   UNL     1       6.012   2.900  16.216  0.00  0.00    +0.000 HD
BRANCH  14  22
ATOM     18  C   UNL     1       4.314   3.004  11.245  0.00  0.00    +0.000 C 
ATOM     19  C   UNL     1       5.277   3.523  12.236  0.00  0.00    +0.000 A 
ATOM     20  C   UNL     1       6.639   3.731  12.209  0.00  0.00    +0.000 A 
ATOM     21  C   UNL     1       6.986   4.253  13.476  0.00  0.00    +0.000 A 
ATOM     22  C   UNL     1       5.817   4.338  14.209  0.00  0.00    +0.000 A 
ATOM     23  O   UNL     1       4.769   3.889  13.446  0.00  0.00    +0.000 OA
ENDBRANCH  14  22
ENDBRANCH  13  16
ENDBRANCH   1  13
TORSDOF 5
ENDMDL
MODEL 8
REMARK VINA RESULT:      -7.2      3.557      7.791
REMARK  Name = 
REMARK  6 active torsions:
REMARK  status: ('A' for Active; 'I' for Inactive)
REMARK    1  A    between atoms: C_1  and  C_2
REMARK    2  A    between atoms: C_5  and  C_6
REMARK    3  A    between atoms: N_8  and  C_9
REMARK    4  A    between atoms: C_9  and  C_10
REMARK    5  A    between atoms: C_10  and  C_11
REMARK    6  A    between atoms: C_14  and  C_15
REMARK                            x       y       z     vdW  Elec       q    Type
REMARK                         _______ _______ _______ _____ _____    ______ ____
ROOT
ATOM      1  C   UNL     1       4.657   3.726  19.191  0.00  0.00    +0.000 C 
ENDROOT
BRANCH   1   2
ATOM      2  C   UNL     1       5.517   4.424  18.182  0.00  0.00    +0.000 A 
ATOM      3  C   UNL     1       6.353   5.491  18.442  0.00  0.00    +0.000 A 
ATOM      4  S   UNL     1       7.162   5.971  17.018  0.00  0.00    +0.000 S 
ATOM      5  C   UNL     1       6.362   4.720  16.138  0.00  0.00    +0.000 A 
ATOM      6  N   UNL     1       5.530   3.991  16.862  0.00  0.00    +0.000 NA
BRANCH   5   7
ATOM      7  C   UNL     1       6.576   4.564  14.686  0.00  0.00    +0.000 A 
ATOM      8  C   UNL     1       5.831   3.663  13.906  0.00  0.00    +0.000 A 
ATOM      9  C   UNL     1       6.091   3.507  12.541  0.00  0.00    +0.000 A 
ATOM     10  C   UNL     1       7.094   4.255  11.932  0.00  0.00    +0.000 A 
ATOM     11  C   UNL     1       7.826   5.173  12.683  0.00  0.00    +0.000 A 
ATOM     12  C   UNL     1       7.564   5.331  14.046  0.00  0.00    +0.000 A 
ENDBRANCH   5   7
ENDBRANCH   1   2
BRANCH   1  13
ATOM     13  C   UNL     1       3.160   3.885  18.932  0.00  0.00    +0.000 C 
BRANCH  13  16
ATOM     14  C   UNL     1       2.382   6.155  19.581  0.00  0.00    +0.000 C 
ATOM     15  O   UNL     1       2.262   5.841  20.763  0.00  0.00    +0.000 OA
ATOM     16  N   UNL     1       2.795   5.256  18.619  0.00  0.00    +0.000 N 
ATOM     17  H   UNL     1       2.843   5.589  17.663  0.00  0.00    +0.000 HD
BRANCH  14  22
ATOM     18  C   UNL     1       0.613  10.661  19.792  0.00  0.00    +0.000 C 
ATOM     19  C   UNL     1       1.315   9.539  19.137  0.00  0.00    +0.000 A 
ATOM     20  C   UNL     1       1.906   9.390  17.901  0.00  0.00    +0.000 A 
ATOM     21  C   UNL     1       2.414   8.071  17.862  0.00  0.00    +0.000 A 
ATOM     22  C   UNL     1       2.107   7.485  19.075  0.00  0.00    +0.000 A 
ATOM     23  O   UNL     1       1.432   8.388  19.857  0.00  0.00    +0.000 OA
ENDBRANCH  14  22
ENDBRANCH  13  16
ENDBRANCH   1  13
TORSDOF 5
ENDMDL
MODEL 9
REMARK VINA RESULT:      -7.1      3.118      5.570
REMARK  Name = 
REMARK  6 active torsions:
REMARK  status: ('A' for Active; 'I' for Inactive)
REMARK    1  A    between atoms: C_1  and  C_2
REMARK    2  A    between atoms: C_5  and  C_6
REMARK    3  A    between atoms: N_8  and  C_9
REMARK    4  A    between atoms: C_9  and  C_10
REMARK    5  A    between atoms: C_10  and  C_11
REMARK    6  A    between atoms: C_14  and  C_15
REMARK                            x       y       z     vdW  Elec       q    Type
REMARK                         _______ _______ _______ _____ _____    ______ ____
ROOT
ATOM      1  C   UNL     1       2.751   3.000  17.615  0.00  0.00    +0.000 C 
ENDROOT
BRANCH   1   2
ATOM      2  C   UNL     1       2.515   4.072  18.634  0.00  0.00    +0.000 A 
ATOM      3  C   UNL     1       2.481   3.885  20.001  0.00  0.00    +0.000 A 
ATOM      4  S   UNL     1       2.202   5.370  20.796  0.00  0.00    +0.000 S 
ATOM      5  C   UNL     1       2.156   6.180  19.272  0.00  0.00    +0.000 A 
ATOM      6  N   UNL     1       2.328   5.388  18.228  0.00  0.00    +0.000 NA
BRANCH   5   7
ATOM      7  C   UNL     1       1.878   7.628  19.196  0.00  0.00    +0.000 A 
ATOM      8  C   UNL     1       1.400   8.363  20.295  0.00  0.00    +0.000 A 
ATOM      9  C   UNL     1       1.103   9.724  20.176  0.00  0.00    +0.000 A 
ATOM     10  C   UNL     1       1.286  10.374  18.959  0.00  0.00    +0.000 A 
ATOM     11  C   UNL     1       1.784   9.669  17.866  0.00  0.00    +0.000 A 
ATOM     12  C   UNL     1       2.084   8.309  17.986  0.00  0.00    +0.000 A 
ENDBRANCH   5   7
ENDBRANCH   1   2
BRANCH   1  13
ATOM     13  C   UNL     1       3.981   3.246  16.743  0.00  0.00    +0.000 C 
BRANCH  13  16
ATOM     14  C   UNL     1       6.098   4.547  16.748  0.00  0.00    +0.000 C 
ATOM     15  O   UNL     1       6.449   4.095  15.661  0.00  0.00    +0.000 OA
ATOM     16  N   UNL     1       4.919   4.170  17.356  0.00  0.00    +0.000 N 
ATOM     17  H   UNL     1       4.716   4.571  18.266  0.00  0.00    +0.000 HD
BRANCH  14  22
ATOM     18  C   UNL     1       8.041   8.897  17.633  0.00  0.00    +0.000 C 
ATOM     19  C   UNL     1       7.773   7.476  17.933  0.00  0.00    +0.000 A 
ATOM     20  C   UNL     1       8.150   6.643  18.964  0.00  0.00    +0.000 A 
ATOM     21  C   UNL     1       7.574   5.382  18.686  0.00  0.00    +0.000 A 
ATOM     22  C   UNL     1       6.875   5.513  17.501  0.00  0.00    +0.000 A 
ATOM     23  O   UNL     1       6.999   6.799  17.039  0.00  0.00    +0.000 OA
ENDBRANCH  14  22
ENDBRANCH  13  16
ENDBRANCH   1  13
TORSDOF 5
ENDMDL
