MODEL 1
REMARK VINA RESULT:      -7.8      0.000      0.000
REMARK  Name = 
REMARK  5 active torsions:
REMARK  status: ('A' for Active; 'I' for Inactive)
REMARK    1  A    between atoms: C_1  and  C_2
REMARK    2  A    between atoms: C_8  and  S_9
REMARK    3  A    between atoms: S_9  and  C_12
REMARK    4  A    between atoms: C_20  and  N_21
REMARK    5  A    between atoms: C_24  and  C_25
REMARK                            x       y       z     vdW  Elec       q    Type
REMARK                         _______ _______ _______ _____ _____    ______ ____
ROOT
ATOM      1  C   UNL     1      -0.113   9.422  20.655  0.00  0.00    +0.000 C 
ATOM      2  C   UNL     1       0.915   9.041  19.632  0.00  0.00    +0.000 A 
ATOM      3  C   UNL     1       1.448   9.964  18.745  0.00  0.00    +0.000 A 
ATOM      4  C   UNL     1       2.426   9.553  17.838  0.00  0.00    +0.000 A 
ATOM      5  C   UNL     1       2.910   8.252  17.809  0.00  0.00    +0.000 A 
ATOM      6  N   UNL     1       3.836   7.972  16.892  0.00  0.00    +0.000 NA
ATOM      7  C   UNL     1       4.309   6.706  16.845  0.00  0.00    +0.000 A 
ATOM      8  C   UNL     1       3.896   5.661  17.663  0.00  0.00    +0.000 A 
ATOM      9  C   UNL     1       2.925   5.926  18.667  0.00  0.00    +0.000 A 
ATOM     10  C   UNL     1       2.404   7.281  18.709  0.00  0.00    +0.000 A 
ATOM     11  C   UNL     1       1.372   7.719  19.580  0.00  0.00    +0.000 A 
ENDROOT
BRANCH   9  12
ATOM     12  N   UNL     1       2.363   5.003  19.571  0.00  0.00    +0.000 N 
ATOM     13  C   UNL     1       2.397   5.253  21.000  0.00  0.00    +0.000 C 
ATOM     14  C   UNL     1       2.432   3.974  21.811  0.00  0.00    +0.000 C 
ATOM     15  C   UNL     1       1.262   3.073  21.447  0.00  0.00    +0.000 C 
ATOM     16  C   UNL     1       1.306   1.805  22.284  0.00  0.00    +0.000 C 
ATOM     17  C   UNL     1       1.312   2.804  19.932  0.00  0.00    +0.000 C 
ATOM     18  C   UNL     1       1.253   4.128  19.136  0.00  0.00    +0.000 C 
ENDBRANCH   9  12
BRANCH   8  19
ATOM     19  S   UNL     1       4.841   4.178  17.410  0.00  0.00    +0.000 S 
ATOM     20  O   UNL     1       5.811   4.057  18.488  0.00  0.00    +0.000 OA
ATOM     21  O   UNL     1       3.890   3.110  17.205  0.00  0.00    +0.000 OA
BRANCH  19  22
ATOM     22  C   UNL     1       5.872   4.230  15.941  0.00  0.00    +0.000 A 
ATOM     23  C   UNL     1       7.081   4.939  15.936  0.00  0.00    +0.000 A 
ATOM     24  C   UNL     1       7.698   5.208  14.709  0.00  0.00    +0.000 A 
ATOM     25  C   UNL     1       7.139   4.731  13.523  0.00  0.00    +0.000 A 
ATOM     26  F   UNL     1       7.709   5.071  12.359  0.00  0.00    +0.000 F 
ATOM     27  C   UNL     1       5.986   3.946  13.546  0.00  0.00    +0.000 A 
ATOM     28 CL   UNL     1       5.296   3.356  12.086  0.00  0.00    +0.000 Cl
ATOM     29  C   UNL     1       5.353   3.685  14.759  0.00  0.00    +0.000 A 
ENDBRANCH  19  22
ENDBRANCH   8  19
TORSDOF 3
ENDMDL
MODEL 2
REMARK VINA RESULT:      -7.7      5.892      8.805
REMARK  Name = 
REMARK  5 active torsions:
REMARK  status: ('A' for Active; 'I' for Inactive)
REMARK    1  A    between atoms: C_1  and  C_2
REMARK    2  A    between atoms: C_8  and  S_9
REMARK    3  A    between atoms: S_9  and  C_12
REMARK    4  A    between atoms: C_20  and  N_21
REMARK    5  A    between atoms: C_24  and  C_25
REMARK                            x       y       z     vdW  Elec       q    Type
REMARK                         _______ _______ _______ _____ _____    ______ ____
ROOT
ATOM      1  C   UNL     1      -6.912  13.427  19.092  0.00  0.00    +0.000 C 
ATOM      2  C   UNL     1      -5.723  12.601  18.697  0.00  0.00    +0.000 A 
ATOM      3  C   UNL     1      -5.704  11.847  17.533  0.00  0.00    +0.000 A 
ATOM      4  C   UNL     1      -4.556  11.126  17.206  0.00  0.00    +0.000 A 
ATOM      5  C   UNL     1      -3.411  11.158  17.991  0.00  0.00    +0.000 A 
ATOM      6  N   UNL     1      -2.378  10.421  17.584  0.00  0.00    +0.000 NA
ATOM      7  C   UNL     1      -1.261  10.433  18.346  0.00  0.00    +0.000 A 
ATOM      8  C   UNL     1      -1.103  11.139  19.533  0.00  0.00    +0.000 A 
ATOM      9  C   UNL     1      -2.176  11.953  19.988  0.00  0.00    +0.000 A 
ATOM     10  C   UNL     1      -3.382  11.928  19.181  0.00  0.00    +0.000 A 
ATOM     11  C   UNL     1      -4.586  12.605  19.513  0.00  0.00    +0.000 A 
ENDROOT
BRANCH   9  12
ATOM     12  N   UNL     1      -2.220  12.718  21.170  0.00  0.00    +0.000 N 
ATOM     13  C   UNL     1      -2.389  12.077  22.460  0.00  0.00    +0.000 C 
ATOM     14  C   UNL     1      -3.099  12.965  23.461  0.00  0.00    +0.000 C 
ATOM     15  C   UNL     1      -2.376  14.295  23.608  0.00  0.00    +0.000 C 
ATOM     16  C   UNL     1      -3.093  15.163  24.629  0.00  0.00    +0.000 C 
ATOM     17  C   UNL     1      -2.275  14.948  22.218  0.00  0.00    +0.000 C 
ATOM     18  C   UNL     1      -1.527  14.023  21.230  0.00  0.00    +0.000 C 
ENDBRANCH   9  12
BRANCH   8  19
ATOM     19  S   UNL     1       0.548  11.031  20.180  0.00  0.00    +0.000 S 
ATOM     20  O   UNL     1       1.314  12.166  19.688  0.00  0.00    +0.000 OA
ATOM     21  O   UNL     1       0.424  10.840  21.606  0.00  0.00    +0.000 OA
BRANCH  19  22
ATOM     22  C   UNL     1       1.468   9.620  19.557  0.00  0.00    +0.000 A 
ATOM     23  C   UNL     1       2.026   9.638  18.271  0.00  0.00    +0.000 A 
ATOM     24  C   UNL     1       2.466   8.432  17.713  0.00  0.00    +0.000 A 
ATOM     25  C   UNL     1       2.393   7.249  18.450  0.00  0.00    +0.000 A 
ATOM     26  F   UNL     1       2.748   6.099  17.860  0.00  0.00    +0.000 F 
ATOM     27  C   UNL     1       1.924   7.259  19.764  0.00  0.00    +0.000 A 
ATOM     28 CL   UNL     1       1.835   5.803  20.675  0.00  0.00    +0.000 Cl
ATOM     29  C   UNL     1       1.468   8.448  20.325  0.00  0.00    +0.000 A 
ENDBRANCH  19  22
ENDBRANCH   8  19
TORSDOF 3
ENDMDL
MODEL 3
REMARK VINA RESULT:      -7.6      0.525      1.004
REMARK  Name = 
REMARK  5 active torsions:
REMARK  status: ('A' for Active; 'I' for Inactive)
REMARK    1  A    between atoms: C_1  and  C_2
REMARK    2  A    between atoms: C_8  and  S_9
REMARK    3  A    between atoms: S_9  and  C_12
REMARK    4  A    between atoms: C_20  and  N_21
REMARK    5  A    between atoms: C_24  and  C_25
REMARK                            x       y       z     vdW  Elec       q    Type
REMARK                         _______ _______ _______ _____ _____    ______ ____
ROOT
ATOM      1  C   UNL     1       0.036   8.989  20.732  0.00  0.00    +0.000 C 
ATOM      2  C   UNL     1       1.053   8.692  19.671  0.00  0.00    +0.000 A 
ATOM      3  C   UNL     1       1.510   9.666  18.795  0.00  0.00    +0.000 A 
ATOM      4  C   UNL     1       2.481   9.334  17.852  0.00  0.00    +0.000 A 
ATOM      5  C   UNL     1       3.036   8.063  17.774  0.00  0.00    +0.000 A 
ATOM      6  N   UNL     1       3.950   7.859  16.825  0.00  0.00    +0.000 NA
ATOM      7  C   UNL     1       4.490   6.624  16.731  0.00  0.00    +0.000 A 
ATOM      8  C   UNL     1       4.159   5.536  17.532  0.00  0.00    +0.000 A 
ATOM      9  C   UNL     1       3.204   5.721  18.569  0.00  0.00    +0.000 A 
ATOM     10  C   UNL     1       2.610   7.042  18.661  0.00  0.00    +0.000 A 
ATOM     11  C   UNL     1       1.581   7.400  19.571  0.00  0.00    +0.000 A 
ENDROOT
BRANCH   9  12
ATOM     12  N   UNL     1       2.721   4.745  19.462  0.00  0.00    +0.000 N 
ATOM     13  C   UNL     1       1.631   3.867  19.079  0.00  0.00    +0.000 C 
ATOM     14  C   UNL     1       0.799   3.424  20.265  0.00  0.00    +0.000 C 
ATOM     15  C   UNL     1       1.675   2.771  21.323  0.00  0.00    +0.000 C 
ATOM     16  C   UNL     1       0.819   2.319  22.495  0.00  0.00    +0.000 C 
ATOM     17  C   UNL     1       2.776   3.769  21.724  0.00  0.00    +0.000 C 
ATOM     18  C   UNL     1       3.617   4.181  20.494  0.00  0.00    +0.000 C 
ENDBRANCH   9  12
BRANCH   8  19
ATOM     19  S   UNL     1       5.177   4.116  17.213  0.00  0.00    +0.000 S 
ATOM     20  O   UNL     1       6.248   4.082  18.197  0.00  0.00    +0.000 OA
ATOM     21  O   UNL     1       4.288   2.982  17.113  0.00  0.00    +0.000 OA
BRANCH  19  22
ATOM     22  C   UNL     1       6.062   4.206  15.653  0.00  0.00    +0.000 A 
ATOM     23  C   UNL     1       7.212   4.997  15.525  0.00  0.00    +0.000 A 
ATOM     24  C   UNL     1       7.694   5.281  14.242  0.00  0.00    +0.000 A 
ATOM     25  C   UNL     1       7.063   4.741  13.120  0.00  0.00    +0.000 A 
ATOM     26  F   UNL     1       7.499   5.095  11.902  0.00  0.00    +0.000 F 
ATOM     27  C   UNL     1       5.975   3.879  13.263  0.00  0.00    +0.000 A 
ATOM     28 CL   UNL     1       5.198   3.211  11.882  0.00  0.00    +0.000 Cl
ATOM     29  C   UNL     1       5.477   3.602  14.532  0.00  0.00    +0.000 A 
ENDBRANCH  19  22
ENDBRANCH   8  19
TORSDOF 3
ENDMDL
MODEL 4
REMARK VINA RESULT:      -7.6      6.293      9.263
REMARK  Name = 
REMARK  5 active torsions:
REMARK  status: ('A' for Active; 'I' for Inactive)
REMARK    1  A    between atoms: C_1  and  C_2
REMARK    2  A    between atoms: C_8  and  S_9
REMARK    3  A    between atoms: S_9  and  C_12
REMARK    4  A    between atoms: C_20  and  N_21
REMARK    5  A    between atoms: C_24  and  C_25
REMARK                            x       y       z     vdW  Elec       q    Type
REMARK                         _______ _______ _______ _____ _____    ______ ____
ROOT
ATOM      1  C   UNL     1      -7.493  12.399  19.607  0.00  0.00    +0.000 C 
ATOM      2  C   UNL     1      -6.237  12.822  20.308  0.00  0.00    +0.000 A 
ATOM      3  C   UNL     1      -6.262  13.562  21.480  0.00  0.00    +0.000 A 
ATOM      4  C   UNL     1      -5.059  13.896  22.102  0.00  0.00    +0.000 A 
ATOM      5  C   UNL     1      -3.829  13.487  21.606  0.00  0.00    +0.000 A 
ATOM      6  N   UNL     1      -2.745  13.875  22.278  0.00  0.00    +0.000 NA
ATOM      7  C   UNL     1      -1.540  13.494  21.799  0.00  0.00    +0.000 A 
ATOM      8  C   UNL     1      -1.332  12.742  20.648  0.00  0.00    +0.000 A 
ATOM      9  C   UNL     1      -2.464  12.292  19.916  0.00  0.00    +0.000 A 
ATOM     10  C   UNL     1      -3.758  12.715  20.419  0.00  0.00    +0.000 A 
ATOM     11  C   UNL     1      -4.997  12.440  19.782  0.00  0.00    +0.000 A 
ENDROOT
BRANCH   9  12
ATOM     12  N   UNL     1      -2.461  11.548  18.720  0.00  0.00    +0.000 N 
ATOM     13  C   UNL     1      -1.826  12.071  17.525  0.00  0.00    +0.000 C 
ATOM     14  C   UNL     1      -2.478  11.566  16.253  0.00  0.00    +0.000 C 
ATOM     15  C   UNL     1      -2.506  10.045  16.231  0.00  0.00    +0.000 C 
ATOM     16  C   UNL     1      -3.147   9.561  14.940  0.00  0.00    +0.000 C 
ATOM     17  C   UNL     1      -3.236   9.555  17.494  0.00  0.00    +0.000 C 
ATOM     18  C   UNL     1      -2.532  10.071  18.770  0.00  0.00    +0.000 C 
ENDBRANCH   9  12
BRANCH   8  19
ATOM     19  S   UNL     1       0.375  12.311  20.411  0.00  0.00    +0.000 S 
ATOM     20  O   UNL     1       0.796  12.786  19.102  0.00  0.00    +0.000 OA
ATOM     21  O   UNL     1       1.086  12.772  21.581  0.00  0.00    +0.000 OA
BRANCH  19  22
ATOM     22  C   UNL     1       0.658  10.540  20.311  0.00  0.00    +0.000 A 
ATOM     23  C   UNL     1       0.478   9.720  21.433  0.00  0.00    +0.000 A 
ATOM     24  C   UNL     1       0.990   8.418  21.402  0.00  0.00    +0.000 A 
ATOM     25  C   UNL     1       1.621   7.938  20.253  0.00  0.00    +0.000 A 
ATOM     26  F   UNL     1       2.170   6.716  20.282  0.00  0.00    +0.000 F 
ATOM     27  C   UNL     1       1.711   8.731  19.109  0.00  0.00    +0.000 A 
ATOM     28 CL   UNL     1       2.486   8.142  17.691  0.00  0.00    +0.000 Cl
ATOM     29  C   UNL     1       1.220  10.034  19.132  0.00  0.00    +0.000 A 
ENDBRANCH  19  22
ENDBRANCH   8  19
TORSDOF 3
ENDMDL
MODEL 5
REMARK VINA RESULT:      -7.5      9.180     10.945
REMARK  Name = 
REMARK  5 active torsions:
REMARK  status: ('A' for Active; 'I' for Inactive)
REMARK    1  A    between atoms: C_1  and  C_2
REMARK    2  A    between atoms: C_8  and  S_9
REMARK    3  A    between atoms: S_9  and  C_12
REMARK    4  A    between atoms: C_20  and  N_21
REMARK    5  A    between atoms: C_24  and  C_25
REMARK                            x       y       z     vdW  Elec       q    Type
REMARK                         _______ _______ _______ _____ _____    ______ ____
ROOT
ATOM      1  C   UNL     1       3.187  16.519  17.574  0.00  0.00    +0.000 C 
ATOM      2  C   UNL     1       3.580  15.864  18.865  0.00  0.00    +0.000 A 
ATOM      3  C   UNL     1       2.638  15.399  19.770  0.00  0.00    +0.000 A 
ATOM      4  C   UNL     1       3.067  14.769  20.939  0.00  0.00    +0.000 A 
ATOM      5  C   UNL     1       4.411  14.562  21.218  0.00  0.00    +0.000 A 
ATOM      6  N   UNL     1       4.703  13.959  22.370  0.00  0.00    +0.000 NA
ATOM      7  C   UNL     1       6.009  13.761  22.661  0.00  0.00    +0.000 A 
ATOM      8  C   UNL     1       7.080  14.151  21.865  0.00  0.00    +0.000 A 
ATOM      9  C   UNL     1       6.807  14.779  20.618  0.00  0.00    +0.000 A 
ATOM     10  C   UNL     1       5.407  15.008  20.312  0.00  0.00    +0.000 A 
ATOM     11  C   UNL     1       4.937  15.693  19.161  0.00  0.00    +0.000 A 
ENDROOT
BRANCH   9  12
ATOM     12  N   UNL     1       7.747  15.267  19.690  0.00  0.00    +0.000 N 
ATOM     13  C   UNL     1       7.842  14.690  18.362  0.00  0.00    +0.000 C 
ATOM     14  C   UNL     1       9.241  14.784  17.788  0.00  0.00    +0.000 C 
ATOM     15  C   UNL     1       9.727  16.226  17.788  0.00  0.00    +0.000 C 
ATOM     16  C   UNL     1      11.123  16.300  17.192  0.00  0.00    +0.000 C 
ATOM     17  C   UNL     1       9.651  16.762  19.229  0.00  0.00    +0.000 C 
ATOM     18  C   UNL     1       8.206  16.670  19.773  0.00  0.00    +0.000 C 
ENDBRANCH   9  12
BRANCH   8  19
ATOM     19  S   UNL     1       8.643  13.596  22.499  0.00  0.00    +0.000 S 
ATOM     20  O   UNL     1       9.454  14.760  22.819  0.00  0.00    +0.000 OA
ATOM     21  O   UNL     1       8.352  12.642  23.544  0.00  0.00    +0.000 OA
BRANCH  19  22
ATOM     22  C   UNL     1       9.640  12.728  21.283  0.00  0.00    +0.000 A 
ATOM     23  C   UNL     1      10.823  13.295  20.788  0.00  0.00    +0.000 A 
ATOM     24  C   UNL     1      11.403  12.743  19.640  0.00  0.00    +0.000 A 
ATOM     25  C   UNL     1      10.837  11.619  19.038  0.00  0.00    +0.000 A 
ATOM     26  F   UNL     1      11.370  11.162  17.896  0.00  0.00    +0.000 F 
ATOM     27  C   UNL     1       9.714  11.006  19.593  0.00  0.00    +0.000 A 
ATOM     28 CL   UNL     1       9.015   9.619  18.854  0.00  0.00    +0.000 Cl
ATOM     29  C   UNL     1       9.117  11.555  20.725  0.00  0.00    +0.000 A 
ENDBRANCH  19  22
ENDBRANCH   8  19
TORSDOF 3
ENDMDL
MODEL 6
REMARK VINA RESULT:      -7.4      1.105      1.675
REMARK  Name = 
REMARK  5 active torsions:
REMARK  status: ('A' for Active; 'I' for Inactive)
REMARK    1  A    between atoms: C_1  and  C_2
REMARK    2  A    between atoms: C_8  and  S_9
REMARK    3  A    between atoms: S_9  and  C_12
REMARK    4  A    between atoms: C_20  and  N_21
REMARK    5  A    between atoms: C_24  and  C_25
REMARK                            x       y       z     vdW  Elec       q    Type
REMARK                         _______ _______ _______ _____ _____    ______ ____
ROOT
ATOM      1  C   UNL     1       0.105   8.952  20.981  0.00  0.00    +0.000 C 
ATOM      2  C   UNL     1       1.057   8.740  19.841  0.00  0.00    +0.000 A 
ATOM      3  C   UNL     1       1.444   9.775  19.003  0.00  0.00    +0.000 A 
ATOM      4  C   UNL     1       2.357   9.519  17.980  0.00  0.00    +0.000 A 
ATOM      5  C   UNL     1       2.921   8.265  17.786  0.00  0.00    +0.000 A 
ATOM      6  N   UNL     1       3.774   8.137  16.769  0.00  0.00    +0.000 NA
ATOM      7  C   UNL     1       4.321   6.919  16.561  0.00  0.00    +0.000 A 
ATOM      8  C   UNL     1       4.055   5.777  17.308  0.00  0.00    +0.000 A 
ATOM      9  C   UNL     1       3.167   5.880  18.414  0.00  0.00    +0.000 A 
ATOM     10  C   UNL     1       2.565   7.183  18.629  0.00  0.00    +0.000 A 
ATOM     11  C   UNL     1       1.592   7.465  19.624  0.00  0.00    +0.000 A 
ENDROOT
BRANCH   9  12
ATOM     12  N   UNL     1       2.753   4.841  19.270  0.00  0.00    +0.000 N 
ATOM     13  C   UNL     1       1.690   3.937  18.876  0.00  0.00    +0.000 C 
ATOM     14  C   UNL     1       0.914   3.401  20.063  0.00  0.00    +0.000 C 
ATOM     15  C   UNL     1       1.850   2.735  21.060  0.00  0.00    +0.000 C 
ATOM     16  C   UNL     1       1.051   2.188  22.232  0.00  0.00    +0.000 C 
ATOM     17  C   UNL     1       2.921   3.758  21.477  0.00  0.00    +0.000 C 
ATOM     18  C   UNL     1       3.705   4.266  20.245  0.00  0.00    +0.000 C 
ENDBRANCH   9  12
BRANCH   8  19
ATOM     19  S   UNL     1       5.067   4.396  16.834  0.00  0.00    +0.000 S 
ATOM     20  O   UNL     1       6.315   4.459  17.579  0.00  0.00    +0.000 OA
ATOM     21  O   UNL     1       4.243   3.216  16.954  0.00  0.00    +0.000 OA
BRANCH  19  22
ATOM     22  C   UNL     1       5.612   4.464  15.124  0.00  0.00    +0.000 A 
ATOM     23  C   UNL     1       4.970   3.704  14.136  0.00  0.00    +0.000 A 
ATOM     24  C   UNL     1       5.599   3.548  12.895  0.00  0.00    +0.000 A 
ATOM     25  C   UNL     1       6.815   4.182  12.639  0.00  0.00    +0.000 A 
ATOM     26  F   UNL     1       7.430   3.949  11.471  0.00  0.00    +0.000 F 
ATOM     27  C   UNL     1       7.399   5.011  13.597  0.00  0.00    +0.000 A 
ATOM     28 CL   UNL     1       8.897   5.795  13.283  0.00  0.00    +0.000 Cl
ATOM     29  C   UNL     1       6.793   5.162  14.841  0.00  0.00    +0.000 A 
ENDBRANCH  19  22
ENDBRANCH   8  19
TORSDOF 3
ENDMDL
MODEL 7
REMARK VINA RESULT:      -7.4      5.840      8.741
REMARK  Name = 
REMARK  5 active torsions:
REMARK  status: ('A' for Active; 'I' for Inactive)
REMARK    1  A    between atoms: C_1  and  C_2
REMARK    2  A    between atoms: C_8  and  S_9
REMARK    3  A    between atoms: S_9  and  C_12
REMARK    4  A    between atoms: C_20  and  N_21
REMARK    5  A    between atoms: C_24  and  C_25
REMARK                            x       y       z     vdW  Elec       q    Type
REMARK                         _______ _______ _______ _____ _____    ______ ____
ROOT
ATOM      1  C   UNL     1      -6.880  13.413  19.088  0.00  0.00    +0.000 C 
ATOM      2  C   UNL     1      -5.709  12.563  18.692  0.00  0.00    +0.000 A 
ATOM      3  C   UNL     1      -5.738  11.745  17.573  0.00  0.00    +0.000 A 
ATOM      4  C   UNL     1      -4.604  11.004  17.239  0.00  0.00    +0.000 A 
ATOM      5  C   UNL     1      -3.428  11.078  17.973  0.00  0.00    +0.000 A 
ATOM      6  N   UNL     1      -2.413  10.316  17.566  0.00  0.00    +0.000 NA
ATOM      7  C   UNL     1      -1.265  10.368  18.278  0.00  0.00    +0.000 A 
ATOM      8  C   UNL     1      -1.058  11.140  19.417  0.00  0.00    +0.000 A 
ATOM      9  C   UNL     1      -2.111  11.981  19.869  0.00  0.00    +0.000 A 
ATOM     10  C   UNL     1      -3.350  11.913  19.115  0.00  0.00    +0.000 A 
ATOM     11  C   UNL     1      -4.538  12.611  19.458  0.00  0.00    +0.000 A 
ENDROOT
BRANCH   9  12
ATOM     12  N   UNL     1      -2.105  12.812  21.006  0.00  0.00    +0.000 N 
ATOM     13  C   UNL     1      -1.764  14.217  20.894  0.00  0.00    +0.000 C 
ATOM     14  C   UNL     1      -1.130  14.763  22.158  0.00  0.00    +0.000 C 
ATOM     15  C   UNL     1      -2.030  14.518  23.359  0.00  0.00    +0.000 C 
ATOM     16  C   UNL     1      -1.386  15.089  24.612  0.00  0.00    +0.000 C 
ATOM     17  C   UNL     1      -2.313  13.009  23.454  0.00  0.00    +0.000 C 
ATOM     18  C   UNL     1      -2.978  12.492  22.157  0.00  0.00    +0.000 C 
ENDBRANCH   9  12
BRANCH   8  19
ATOM     19  S   UNL     1       0.619  11.064  19.999  0.00  0.00    +0.000 S 
ATOM     20  O   UNL     1       1.366  12.162  19.405  0.00  0.00    +0.000 OA
ATOM     21  O   UNL     1       0.554  10.965  21.439  0.00  0.00    +0.000 OA
BRANCH  19  22
ATOM     22  C   UNL     1       1.509   9.612  19.429  0.00  0.00    +0.000 A 
ATOM     23  C   UNL     1       2.064   9.570  18.142  0.00  0.00    +0.000 A 
ATOM     24  C   UNL     1       2.478   8.335  17.629  0.00  0.00    +0.000 A 
ATOM     25  C   UNL     1       2.383   7.183  18.412  0.00  0.00    +0.000 A 
ATOM     26  F   UNL     1       2.713   6.004  17.865  0.00  0.00    +0.000 F 
ATOM     27  C   UNL     1       1.917   7.252  19.724  0.00  0.00    +0.000 A 
ATOM     28 CL   UNL     1       1.801   5.834  20.690  0.00  0.00    +0.000 Cl
ATOM     29  C   UNL     1       1.487   8.471  20.241  0.00  0.00    +0.000 A 
ENDBRANCH  19  22
ENDBRANCH   8  19
TORSDOF 3
ENDMDL
MODEL 8
REMARK VINA RESULT:      -7.2      5.722      8.721
REMARK  Name = 
REMARK  5 active torsions:
REMARK  status: ('A' for Active; 'I' for Inactive)
REMARK    1  A    between atoms: C_1  and  C_2
REMARK    2  A    between atoms: C_8  and  S_9
REMARK    3  A    between atoms: S_9  and  C_12
REMARK    4  A    between atoms: C_20  and  N_21
REMARK    5  A    between atoms: C_24  and  C_25
REMARK                            x       y       z     vdW  Elec       q    Type
REMARK                         _______ _______ _______ _____ _____    ______ ____
ROOT
ATOM      1  C   UNL     1      -6.687  13.778  19.037  0.00  0.00    +0.000 C 
ATOM      2  C   UNL     1      -5.602  12.816  18.651  0.00  0.00    +0.000 A 
ATOM      3  C   UNL     1      -5.701  12.006  17.530  0.00  0.00    +0.000 A 
ATOM      4  C   UNL     1      -4.644  11.155  17.207  0.00  0.00    +0.000 A 
ATOM      5  C   UNL     1      -3.474  11.110  17.954  0.00  0.00    +0.000 A 
ATOM      6  N   UNL     1      -2.535  10.251  17.556  0.00  0.00    +0.000 NA
ATOM      7  C   UNL     1      -1.396  10.188  18.281  0.00  0.00    +0.000 A 
ATOM      8  C   UNL     1      -1.125  10.934  19.423  0.00  0.00    +0.000 A 
ATOM      9  C   UNL     1      -2.093  11.876  19.865  0.00  0.00    +0.000 A 
ATOM     10  C   UNL     1      -3.325  11.933  19.098  0.00  0.00    +0.000 A 
ATOM     11  C   UNL     1      -4.441  12.745  19.429  0.00  0.00    +0.000 A 
ENDROOT
BRANCH   9  12
ATOM     12  N   UNL     1      -2.017  12.701  21.004  0.00  0.00    +0.000 N 
ATOM     13  C   UNL     1      -2.236  12.154  22.329  0.00  0.00    +0.000 C 
ATOM     14  C   UNL     1      -2.810  13.174  23.291  0.00  0.00    +0.000 C 
ATOM     15  C   UNL     1      -1.925  14.410  23.355  0.00  0.00    +0.000 C 
ATOM     16  C   UNL     1      -2.508  15.412  24.338  0.00  0.00    +0.000 C 
ATOM     17  C   UNL     1      -1.775  14.972  21.930  0.00  0.00    +0.000 C 
ATOM     18  C   UNL     1      -1.168  13.912  20.982  0.00  0.00    +0.000 C 
ENDBRANCH   9  12
BRANCH   8  19
ATOM     19  S   UNL     1       0.529  10.691  20.023  0.00  0.00    +0.000 S 
ATOM     20  O   UNL     1       1.440  11.471  19.199  0.00  0.00    +0.000 OA
ATOM     21  O   UNL     1       0.495  10.935  21.446  0.00  0.00    +0.000 OA
BRANCH  19  22
ATOM     22  C   UNL     1       1.127   9.011  19.810  0.00  0.00    +0.000 A 
ATOM     23  C   UNL     1       0.988   8.064  20.834  0.00  0.00    +0.000 A 
ATOM     24  C   UNL     1       1.722   6.875  20.754  0.00  0.00    +0.000 A 
ATOM     25  C   UNL     1       2.534   6.624  19.647  0.00  0.00    +0.000 A 
ATOM     26  F   UNL     1       3.284   5.513  19.637  0.00  0.00    +0.000 F 
ATOM     27  C   UNL     1       2.592   7.531  18.589  0.00  0.00    +0.000 A 
ATOM     28 CL   UNL     1       3.591   7.223  17.224  0.00  0.00    +0.000 Cl
ATOM     29  C   UNL     1       1.880   8.725  18.664  0.00  0.00    +0.000 A 
ENDBRANCH  19  22
ENDBRANCH   8  19
TORSDOF 3
ENDMDL
MODEL 9
REMARK VINA RESULT:      -7.2      8.086      9.674
REMARK  Name = 
REMARK  5 active torsions:
REMARK  status: ('A' for Active; 'I' for Inactive)
REMARK    1  A    between atoms: C_1  and  C_2
REMARK    2  A    between atoms: C_8  and  S_9
REMARK    3  A    between atoms: S_9  and  C_12
REMARK    4  A    between atoms: C_20  and  N_21
REMARK    5  A    between atoms: C_24  and  C_25
REMARK                            x       y       z     vdW  Elec       q    Type
REMARK                         _______ _______ _______ _____ _____    ______ ____
ROOT
ATOM      1  C   UNL     1      -6.696  12.991  19.090  0.00  0.00    +0.000 C 
ATOM      2  C   UNL     1      -5.507  12.246  18.559  0.00  0.00    +0.000 A 
ATOM      3  C   UNL     1      -5.552  11.543  17.364  0.00  0.00    +0.000 A 
ATOM      4  C   UNL     1      -4.402  10.898  16.908  0.00  0.00    +0.000 A 
ATOM      5  C   UNL     1      -3.197  10.959  17.595  0.00  0.00    +0.000 A 
ATOM      6  N   UNL     1      -2.168  10.294  17.069  0.00  0.00    +0.000 NA
ATOM      7  C   UNL     1      -0.991  10.334  17.733  0.00  0.00    +0.000 A 
ATOM      8  C   UNL     1      -0.766  10.998  18.934  0.00  0.00    +0.000 A 
ATOM      9  C   UNL     1      -1.834  11.735  19.514  0.00  0.00    +0.000 A 
ATOM     10  C   UNL     1      -3.103  11.679  18.812  0.00  0.00    +0.000 A 
ATOM     11  C   UNL     1      -4.305  12.277  19.275  0.00  0.00    +0.000 A 
ENDROOT
BRANCH   9  12
ATOM     12  N   UNL     1      -1.813  12.447  20.729  0.00  0.00    +0.000 N 
ATOM     13  C   UNL     1      -1.710  11.746  21.995  0.00  0.00    +0.000 C 
ATOM     14  C   UNL     1      -2.385  12.493  23.128  0.00  0.00    +0.000 C 
ATOM     15  C   UNL     1      -1.833  13.906  23.245  0.00  0.00    +0.000 C 
ATOM     16  C   UNL     1      -2.509  14.631  24.397  0.00  0.00    +0.000 C 
ATOM     17  C   UNL     1      -2.017  14.612  21.890  0.00  0.00    +0.000 C 
ATOM     18  C   UNL     1      -1.299  13.833  20.763  0.00  0.00    +0.000 C 
ENDBRANCH   9  12
BRANCH   8  19
ATOM     19  S   UNL     1       0.939  10.951  19.433  0.00  0.00    +0.000 S 
ATOM     20  O   UNL     1       0.999  10.594  20.842  0.00  0.00    +0.000 OA
ATOM     21  O   UNL     1       1.630  10.121  18.474  0.00  0.00    +0.000 OA
BRANCH  19  22
ATOM     22  C   UNL     1       1.741  12.557  19.387  0.00  0.00    +0.000 A 
ATOM     23  C   UNL     1       2.075  13.157  18.165  0.00  0.00    +0.000 A 
ATOM     24  C   UNL     1       2.956  14.245  18.170  0.00  0.00    +0.000 A 
ATOM     25  C   UNL     1       3.446  14.746  19.377  0.00  0.00    +0.000 A 
ATOM     26  F   UNL     1       4.349  15.737  19.344  0.00  0.00    +0.000 F 
ATOM     27  C   UNL     1       3.033  14.201  20.592  0.00  0.00    +0.000 A 
ATOM     28 CL   UNL     1       3.635  14.818  22.080  0.00  0.00    +0.000 Cl
ATOM     29  C   UNL     1       2.171  13.109  20.601  0.00  0.00    +0.000 A 
ENDBRANCH  19  22
ENDBRANCH   8  19
TORSDOF 3
ENDMDL
