MODEL 1
REMARK VINA RESULT:      -7.6      0.000      0.000
REMARK  Name = 
REMARK  7 active torsions:
REMARK  status: ('A' for Active; 'I' for Inactive)
REMARK    1  A    between atoms: C_1  and  C_2
REMARK    2  A    between atoms: C_2  and  C_3
REMARK    3  A    between atoms: C_2  and  C_4
REMARK    4  A    between atoms: C_8  and  C_9
REMARK    5  A    between atoms: N_11  and  C_12
REMARK    6  A    between atoms: C_17  and  N_18
REMARK    7  A    between atoms: C_22  and  C_23
REMARK                            x       y       z     vdW  Elec       q    Type
REMARK                         _______ _______ _______ _____ _____    ______ ____
ROOT
ATOM      1  C   UNL     1       3.366   4.932  20.076  0.00  0.00    +0.000 A 
ATOM      2  C   UNL     1       2.566   4.318  21.046  0.00  0.00    +0.000 A 
ATOM      3  C   UNL     1       2.647   2.937  21.251  0.00  0.00    +0.000 A 
ATOM      4  C   UNL     1       3.547   2.168  20.514  0.00  0.00    +0.000 A 
ATOM      5  C   UNL     1       4.377   2.778  19.578  0.00  0.00    +0.000 A 
ATOM      6  C   UNL     1       4.313   4.163  19.369  0.00  0.00    +0.000 A 
ENDROOT
BRANCH   6   7
ATOM      7  N   UNL     1       5.255   4.761  18.514  0.00  0.00    +0.000 N 
ATOM      8  C   UNL     1       6.446   5.314  18.918  0.00  0.00    +0.000 C 
ATOM      9  O   UNL     1       6.932   5.376  20.034  0.00  0.00    +0.000 OA
ATOM     10  N   UNL     1       7.114   5.766  17.791  0.00  0.00    +0.000 N 
ATOM     11  C   UNL     1       6.293   5.667  16.619  0.00  0.00    +0.000 C 
ATOM     12  C   UNL     1       6.968   4.978  15.452  0.00  0.00    +0.000 C 
ATOM     13  C   UNL     1       5.123   4.842  17.146  0.00  0.00    +0.000 C 
ATOM     14  O   UNL     1       4.228   4.388  16.443  0.00  0.00    +0.000 OA
ATOM     15  H   UNL     1       7.980   6.282  17.882  0.00  0.00    +0.000 HD
ENDBRANCH   6   7
BRANCH   1  18
ATOM     16  C   UNL     1       2.281   6.668  18.723  0.00  0.00    +0.000 C 
ATOM     17  O   UNL     1       1.709   5.896  17.959  0.00  0.00    +0.000 OA
ATOM     18  N   UNL     1       3.103   6.288  19.774  0.00  0.00    +0.000 N 
ATOM     19  H   UNL     1       3.231   6.985  20.499  0.00  0.00    +0.000 HD
BRANCH  16  24
ATOM     20  C   UNL     1       1.366   8.919  19.468  0.00  0.00    +0.000 A 
ATOM     21  O   UNL     1       1.365  10.182  18.935  0.00  0.00    +0.000 OA
ATOM     22  C   UNL     1       2.122  10.070  17.812  0.00  0.00    +0.000 A 
ATOM     23  N   UNL     1       2.627   8.878  17.593  0.00  0.00    +0.000 NA
ATOM     24  C   UNL     1       2.096   8.109  18.615  0.00  0.00    +0.000 A 
BRANCH  20  26
ATOM     25  C   UNL     1       1.635   8.878  21.940  0.00  0.00    +0.000 C 
ATOM     26  C   UNL     1       0.659   8.724  20.770  0.00  0.00    +0.000 C 
ATOM     27  C   UNL     1      -0.514   9.690  20.919  0.00  0.00    +0.000 C 
ENDBRANCH  20  26
ENDBRANCH  16  24
ENDBRANCH   1  18
TORSDOF 4
ENDMDL
MODEL 2
REMARK VINA RESULT:      -7.6      0.682      1.670
REMARK  Name = 
REMARK  7 active torsions:
REMARK  status: ('A' for Active; 'I' for Inactive)
REMARK    1  A    between atoms: C_1  and  C_2
REMARK    2  A    between atoms: C_2  and  C_3
REMARK    3  A    between atoms: C_2  and  C_4
REMARK    4  A    between atoms: C_8  and  C_9
REMARK    5  A    between atoms: N_11  and  C_12
REMARK    6  A    between atoms: C_17  and  N_18
REMARK    7  A    between atoms: C_22  and  C_23
REMARK                            x       y       z     vdW  Elec       q    Type
REMARK                         _______ _______ _______ _____ _____    ______ ____
ROOT
ATOM      1  C   UNL     1       3.407   4.997  20.001  0.00  0.00    +0.000 A 
ATOM      2  C   UNL     1       2.587   4.344  20.928  0.00  0.00    +0.000 A 
ATOM      3  C   UNL     1       2.688   2.960  21.101  0.00  0.00    +0.000 A 
ATOM      4  C   UNL     1       3.625   2.227  20.374  0.00  0.00    +0.000 A 
ATOM      5  C   UNL     1       4.474   2.876  19.482  0.00  0.00    +0.000 A 
ATOM      6  C   UNL     1       4.390   4.265  19.306  0.00  0.00    +0.000 A 
ENDROOT
BRANCH   6   7
ATOM      7  N   UNL     1       5.347   4.902  18.498  0.00  0.00    +0.000 N 
ATOM      8  C   UNL     1       5.214   5.128  17.149  0.00  0.00    +0.000 C 
ATOM      9  O   UNL     1       4.282   4.869  16.409  0.00  0.00    +0.000 OA
ATOM     10  N   UNL     1       6.340   5.810  16.716  0.00  0.00    +0.000 N 
ATOM     11  C   UNL     1       7.328   5.907  17.752  0.00  0.00    +0.000 C 
ATOM     12  C   UNL     1       7.854   7.309  17.969  0.00  0.00    +0.000 C 
ATOM     13  C   UNL     1       6.536   5.419  18.961  0.00  0.00    +0.000 C 
ATOM     14  O   UNL     1       6.946   5.462  20.115  0.00  0.00    +0.000 OA
ATOM     15  H   UNL     1       6.475   6.001  15.731  0.00  0.00    +0.000 HD
ENDBRANCH   6   7
BRANCH   1  18
ATOM     16  C   UNL     1       2.269   6.745  18.707  0.00  0.00    +0.000 C 
ATOM     17  O   UNL     1       1.675   5.981  17.953  0.00  0.00    +0.000 OA
ATOM     18  N   UNL     1       3.128   6.356  19.726  0.00  0.00    +0.000 N 
ATOM     19  H   UNL     1       3.277   7.045  20.455  0.00  0.00    +0.000 HD
BRANCH  16  24
ATOM     20  C   UNL     1       1.332   8.976  19.486  0.00  0.00    +0.000 A 
ATOM     21  O   UNL     1       1.326  10.248  18.976  0.00  0.00    +0.000 OA
ATOM     22  C   UNL     1       2.092  10.162  17.857  0.00  0.00    +0.000 A 
ATOM     23  N   UNL     1       2.608   8.979  17.621  0.00  0.00    +0.000 NA
ATOM     24  C   UNL     1       2.074   8.187  18.625  0.00  0.00    +0.000 A 
BRANCH  20  26
ATOM     25  C   UNL     1       1.601   8.781  21.951  0.00  0.00    +0.000 C 
ATOM     26  C   UNL     1       0.616   8.753  20.779  0.00  0.00    +0.000 C 
ATOM     27  C   UNL     1      -0.496   9.778  20.987  0.00  0.00    +0.000 C 
ENDBRANCH  20  26
ENDBRANCH  16  24
ENDBRANCH   1  18
TORSDOF 4
ENDMDL
MODEL 3
REMARK VINA RESULT:      -7.5      1.996      4.059
REMARK  Name = 
REMARK  7 active torsions:
REMARK  status: ('A' for Active; 'I' for Inactive)
REMARK    1  A    between atoms: C_1  and  C_2
REMARK    2  A    between atoms: C_2  and  C_3
REMARK    3  A    between atoms: C_2  and  C_4
REMARK    4  A    between atoms: C_8  and  C_9
REMARK    5  A    between atoms: N_11  and  C_12
REMARK    6  A    between atoms: C_17  and  N_18
REMARK    7  A    between atoms: C_22  and  C_23
REMARK                            x       y       z     vdW  Elec       q    Type
REMARK                         _______ _______ _______ _____ _____    ______ ____
ROOT
ATOM      1  C   UNL     1       4.003   6.020  17.444  0.00  0.00    +0.000 A 
ATOM      2  C   UNL     1       4.632   6.819  16.482  0.00  0.00    +0.000 A 
ATOM      3  C   UNL     1       5.506   6.244  15.554  0.00  0.00    +0.000 A 
ATOM      4  C   UNL     1       5.732   4.869  15.560  0.00  0.00    +0.000 A 
ATOM      5  C   UNL     1       5.077   4.061  16.486  0.00  0.00    +0.000 A 
ATOM      6  C   UNL     1       4.191   4.623  17.416  0.00  0.00    +0.000 A 
ENDROOT
BRANCH   6   7
ATOM      7  N   UNL     1       3.450   3.765  18.246  0.00  0.00    +0.000 N 
ATOM      8  C   UNL     1       3.968   3.036  19.288  0.00  0.00    +0.000 C 
ATOM      9  O   UNL     1       5.109   2.998  19.715  0.00  0.00    +0.000 OA
ATOM     10  N   UNL     1       2.928   2.345  19.888  0.00  0.00    +0.000 N 
ATOM     11  C   UNL     1       1.709   2.478  19.143  0.00  0.00    +0.000 C 
ATOM     12  C   UNL     1       0.519   2.894  19.981  0.00  0.00    +0.000 C 
ATOM     13  C   UNL     1       2.091   3.568  18.146  0.00  0.00    +0.000 C 
ATOM     14  O   UNL     1       1.300   4.111  17.383  0.00  0.00    +0.000 OA
ATOM     15  H   UNL     1       3.114   1.682  20.630  0.00  0.00    +0.000 HD
ENDBRANCH   6   7
BRANCH   1  18
ATOM     16  C   UNL     1       2.522   7.807  18.241  0.00  0.00    +0.000 C 
ATOM     17  O   UNL     1       2.381   8.352  17.151  0.00  0.00    +0.000 OA
ATOM     18  N   UNL     1       3.291   6.675  18.474  0.00  0.00    +0.000 N 
ATOM     19  H   UNL     1       3.057   6.158  19.315  0.00  0.00    +0.000 HD
BRANCH  16  24
ATOM     20  C   UNL     1       1.084   9.459  19.529  0.00  0.00    +0.000 A 
ATOM     21  O   UNL     1       0.702   9.585  20.839  0.00  0.00    +0.000 OA
ATOM     22  C   UNL     1       1.203   8.475  21.441  0.00  0.00    +0.000 A 
ATOM     23  N   UNL     1       1.836   7.645  20.646  0.00  0.00    +0.000 NA
ATOM     24  C   UNL     1       1.825   8.296  19.423  0.00  0.00    +0.000 A 
BRANCH  20  26
ATOM     25  C   UNL     1      -0.869  10.335  18.262  0.00  0.00    +0.000 C 
ATOM     26  C   UNL     1       0.619  10.512  18.575  0.00  0.00    +0.000 C 
ATOM     27  C   UNL     1       0.892  11.914  19.114  0.00  0.00    +0.000 C 
ENDBRANCH  20  26
ENDBRANCH  16  24
ENDBRANCH   1  18
TORSDOF 4
ENDMDL
MODEL 4
REMARK VINA RESULT:      -7.3      1.382      2.047
REMARK  Name = 
REMARK  7 active torsions:
REMARK  status: ('A' for Active; 'I' for Inactive)
REMARK    1  A    between atoms: C_1  and  C_2
REMARK    2  A    between atoms: C_2  and  C_3
REMARK    3  A    between atoms: C_2  and  C_4
REMARK    4  A    between atoms: C_8  and  C_9
REMARK    5  A    between atoms: N_11  and  C_12
REMARK    6  A    between atoms: C_17  and  N_18
REMARK    7  A    between atoms: C_22  and  C_23
REMARK                            x       y       z     vdW  Elec       q    Type
REMARK                         _______ _______ _______ _____ _____    ______ ____
ROOT
ATOM      1  C   UNL     1       2.867   4.312  18.440  0.00  0.00    +0.000 A 
ATOM      2  C   UNL     1       1.838   3.536  18.986  0.00  0.00    +0.000 A 
ATOM      3  C   UNL     1       1.942   2.142  18.998  0.00  0.00    +0.000 A 
ATOM      4  C   UNL     1       3.083   1.517  18.495  0.00  0.00    +0.000 A 
ATOM      5  C   UNL     1       4.129   2.284  17.990  0.00  0.00    +0.000 A 
ATOM      6  C   UNL     1       4.042   3.684  17.981  0.00  0.00    +0.000 A 
ENDROOT
BRANCH   6   7
ATOM      7  N   UNL     1       5.168   4.427  17.587  0.00  0.00    +0.000 N 
ATOM      8  C   UNL     1       5.493   4.735  16.288  0.00  0.00    +0.000 C 
ATOM      9  O   UNL     1       4.899   4.471  15.257  0.00  0.00    +0.000 OA
ATOM     10  N   UNL     1       6.643   5.508  16.305  0.00  0.00    +0.000 N 
ATOM     11  C   UNL     1       7.201   5.592  17.624  0.00  0.00    +0.000 C 
ATOM     12  C   UNL     1       7.509   7.004  18.071  0.00  0.00    +0.000 C 
ATOM     13  C   UNL     1       6.079   4.980  18.458  0.00  0.00    +0.000 C 
ATOM     14  O   UNL     1       6.059   4.970  19.683  0.00  0.00    +0.000 OA
ATOM     15  H   UNL     1       7.096   5.771  15.439  0.00  0.00    +0.000 HD
ENDBRANCH   6   7
BRANCH   1  18
ATOM     16  C   UNL     1       2.267   6.518  19.333  0.00  0.00    +0.000 C 
ATOM     17  O   UNL     1       2.121   6.150  20.495  0.00  0.00    +0.000 OA
ATOM     18  N   UNL     1       2.625   5.695  18.275  0.00  0.00    +0.000 N 
ATOM     19  H   UNL     1       3.024   6.170  17.472  0.00  0.00    +0.000 HD
BRANCH  16  24
ATOM     20  C   UNL     1       1.364   8.876  19.619  0.00  0.00    +0.000 A 
ATOM     21  O   UNL     1       1.416  10.024  18.871  0.00  0.00    +0.000 OA
ATOM     22  C   UNL     1       2.225   9.705  17.827  0.00  0.00    +0.000 A 
ATOM     23  N   UNL     1       2.716   8.488  17.850  0.00  0.00    +0.000 NA
ATOM     24  C   UNL     1       2.118   7.919  18.963  0.00  0.00    +0.000 A 
BRANCH  20  26
ATOM     25  C   UNL     1       1.531   9.096  22.090  0.00  0.00    +0.000 C 
ATOM     26  C   UNL     1       0.589   8.925  20.896  0.00  0.00    +0.000 C 
ATOM     27  C   UNL     1      -0.458  10.037  20.873  0.00  0.00    +0.000 C 
ENDBRANCH  20  26
ENDBRANCH  16  24
ENDBRANCH   1  18
TORSDOF 4
ENDMDL
MODEL 5
REMARK VINA RESULT:      -7.1      2.400      4.802
REMARK  Name = 
REMARK  7 active torsions:
REMARK  status: ('A' for Active; 'I' for Inactive)
REMARK    1  A    between atoms: C_1  and  C_2
REMARK    2  A    between atoms: C_2  and  C_3
REMARK    3  A    between atoms: C_2  and  C_4
REMARK    4  A    between atoms: C_8  and  C_9
REMARK    5  A    between atoms: N_11  and  C_12
REMARK    6  A    between atoms: C_17  and  N_18
REMARK    7  A    between atoms: C_22  and  C_23
REMARK                            x       y       z     vdW  Elec       q    Type
REMARK                         _______ _______ _______ _____ _____    ______ ____
ROOT
ATOM      1  C   UNL     1       5.208   4.834  16.043  0.00  0.00    +0.000 A 
ATOM      2  C   UNL     1       4.724   4.068  14.975  0.00  0.00    +0.000 A 
ATOM      3  C   UNL     1       5.529   3.838  13.856  0.00  0.00    +0.000 A 
ATOM      4  C   UNL     1       6.828   4.342  13.808  0.00  0.00    +0.000 A 
ATOM      5  C   UNL     1       7.332   5.068  14.884  0.00  0.00    +0.000 A 
ATOM      6  C   UNL     1       6.538   5.298  16.017  0.00  0.00    +0.000 A 
ENDROOT
BRANCH   6   7
ATOM      7  N   UNL     1       7.122   5.918  17.135  0.00  0.00    +0.000 N 
ATOM      8  C   UNL     1       7.841   5.270  18.110  0.00  0.00    +0.000 C 
ATOM      9  O   UNL     1       8.137   4.091  18.199  0.00  0.00    +0.000 OA
ATOM     10  N   UNL     1       8.283   6.218  19.019  0.00  0.00    +0.000 N 
ATOM     11  C   UNL     1       7.720   7.510  18.748  0.00  0.00    +0.000 C 
ATOM     12  C   UNL     1       8.742   8.624  18.688  0.00  0.00    +0.000 C 
ATOM     13  C   UNL     1       7.081   7.272  17.384  0.00  0.00    +0.000 C 
ATOM     14  O   UNL     1       6.592   8.155  16.689  0.00  0.00    +0.000 OA
ATOM     15  H   UNL     1       8.765   5.933  19.862  0.00  0.00    +0.000 HD
ENDBRANCH   6   7
BRANCH   1  18
ATOM     16  C   UNL     1       4.162   4.482  18.235  0.00  0.00    +0.000 C 
ATOM     17  O   UNL     1       4.808   3.480  18.525  0.00  0.00    +0.000 OA
ATOM     18  N   UNL     1       4.290   5.200  17.054  0.00  0.00    +0.000 N 
ATOM     19  H   UNL     1       3.954   6.156  17.088  0.00  0.00    +0.000 HD
BRANCH  16  24
ATOM     20  C   UNL     1       2.229   4.376  19.882  0.00  0.00    +0.000 A 
ATOM     21  O   UNL     1       1.479   5.311  20.547  0.00  0.00    +0.000 OA
ATOM     22  C   UNL     1       2.061   6.496  20.224  0.00  0.00    +0.000 A 
ATOM     23  N   UNL     1       3.117   6.409  19.451  0.00  0.00    +0.000 NA
ATOM     24  C   UNL     1       3.201   5.055  19.167  0.00  0.00    +0.000 A 
BRANCH  20  26
ATOM     25  C   UNL     1       1.429   2.699  21.535  0.00  0.00    +0.000 C 
ATOM     26  C   UNL     1       1.875   2.939  20.090  0.00  0.00    +0.000 C 
ATOM     27  C   UNL     1       0.796   2.481  19.111  0.00  0.00    +0.000 C 
ENDBRANCH  20  26
ENDBRANCH  16  24
ENDBRANCH   1  18
TORSDOF 4
ENDMDL
MODEL 6
REMARK VINA RESULT:      -7.1      2.261      4.522
REMARK  Name = 
REMARK  7 active torsions:
REMARK  status: ('A' for Active; 'I' for Inactive)
REMARK    1  A    between atoms: C_1  and  C_2
REMARK    2  A    between atoms: C_2  and  C_3
REMARK    3  A    between atoms: C_2  and  C_4
REMARK    4  A    between atoms: C_8  and  C_9
REMARK    5  A    between atoms: N_11  and  C_12
REMARK    6  A    between atoms: C_17  and  N_18
REMARK    7  A    between atoms: C_22  and  C_23
REMARK                            x       y       z     vdW  Elec       q    Type
REMARK                         _______ _______ _______ _____ _____    ______ ____
ROOT
ATOM      1  C   UNL     1       3.397   6.573  18.015  0.00  0.00    +0.000 A 
ATOM      2  C   UNL     1       4.250   7.308  17.183  0.00  0.00    +0.000 A 
ATOM      3  C   UNL     1       5.225   6.653  16.425  0.00  0.00    +0.000 A 
ATOM      4  C   UNL     1       5.334   5.264  16.468  0.00  0.00    +0.000 A 
ATOM      5  C   UNL     1       4.461   4.523  17.260  0.00  0.00    +0.000 A 
ATOM      6  C   UNL     1       3.472   5.166  18.018  0.00  0.00    +0.000 A 
ENDROOT
BRANCH   6   7
ATOM      7  N   UNL     1       2.528   4.381  18.700  0.00  0.00    +0.000 N 
ATOM      8  C   UNL     1       1.800   3.359  18.139  0.00  0.00    +0.000 C 
ATOM      9  O   UNL     1       1.832   2.918  17.004  0.00  0.00    +0.000 OA
ATOM     10  N   UNL     1       1.008   2.802  19.130  0.00  0.00    +0.000 N 
ATOM     11  C   UNL     1       1.076   3.560  20.347  0.00  0.00    +0.000 C 
ATOM     12  C   UNL     1       1.366   2.724  21.575  0.00  0.00    +0.000 C 
ATOM     13  C   UNL     1       2.231   4.508  20.039  0.00  0.00    +0.000 C 
ATOM     14  O   UNL     1       2.742   5.261  20.860  0.00  0.00    +0.000 OA
ATOM     15  H   UNL     1       0.332   2.084  18.902  0.00  0.00    +0.000 HD
ENDBRANCH   6   7
BRANCH   1  18
ATOM     16  C   UNL     1       1.962   8.493  18.546  0.00  0.00    +0.000 C 
ATOM     17  O   UNL     1       2.076   9.042  17.455  0.00  0.00    +0.000 OA
ATOM     18  N   UNL     1       2.569   7.296  18.904  0.00  0.00    +0.000 N 
ATOM     19  H   UNL     1       2.137   6.807  19.680  0.00  0.00    +0.000 HD
BRANCH  16  24
ATOM     20  C   UNL     1       0.113   9.999  19.422  0.00  0.00    +0.000 A 
ATOM     21  O   UNL     1      -0.363  10.315  20.668  0.00  0.00    +0.000 OA
ATOM     22  C   UNL     1       0.345   9.514  21.507  0.00  0.00    +0.000 A 
ATOM     23  N   UNL     1       1.196   8.703  20.923  0.00  0.00    +0.000 NA
ATOM     24  C   UNL     1       1.106   9.049  19.584  0.00  0.00    +0.000 A 
BRANCH  20  26
ATOM     25  C   UNL     1      -1.878  10.036  17.931  0.00  0.00    +0.000 C 
ATOM     26  C   UNL     1      -0.526  10.678  18.253  0.00  0.00    +0.000 C 
ATOM     27  C   UNL     1      -0.686  12.177  18.496  0.00  0.00    +0.000 C 
ENDBRANCH  20  26
ENDBRANCH  16  24
ENDBRANCH   1  18
TORSDOF 4
ENDMDL
MODEL 7
REMARK VINA RESULT:      -7.0      1.407      1.443
REMARK  Name = 
REMARK  7 active torsions:
REMARK  status: ('A' for Active; 'I' for Inactive)
REMARK    1  A    between atoms: C_1  and  C_2
REMARK    2  A    between atoms: C_2  and  C_3
REMARK    3  A    between atoms: C_2  and  C_4
REMARK    4  A    between atoms: C_8  and  C_9
REMARK    5  A    between atoms: N_11  and  C_12
REMARK    6  A    between atoms: C_17  and  N_18
REMARK    7  A    between atoms: C_22  and  C_23
REMARK                            x       y       z     vdW  Elec       q    Type
REMARK                         _______ _______ _______ _____ _____    ______ ____
ROOT
ATOM      1  C   UNL     1       2.432   4.370  18.487  0.00  0.00    +0.000 A 
ATOM      2  C   UNL     1       1.403   3.581  19.013  0.00  0.00    +0.000 A 
ATOM      3  C   UNL     1       1.519   2.188  19.016  0.00  0.00    +0.000 A 
ATOM      4  C   UNL     1       2.671   1.577  18.524  0.00  0.00    +0.000 A 
ATOM      5  C   UNL     1       3.718   2.356  18.040  0.00  0.00    +0.000 A 
ATOM      6  C   UNL     1       3.619   3.755  18.040  0.00  0.00    +0.000 A 
ENDROOT
BRANCH   6   7
ATOM      7  N   UNL     1       4.743   4.511  17.667  0.00  0.00    +0.000 N 
ATOM      8  C   UNL     1       5.602   5.131  18.543  0.00  0.00    +0.000 C 
ATOM      9  O   UNL     1       5.594   5.137  19.761  0.00  0.00    +0.000 OA
ATOM     10  N   UNL     1       6.602   5.742  17.804  0.00  0.00    +0.000 N 
ATOM     11  C   UNL     1       6.331   5.675  16.396  0.00  0.00    +0.000 C 
ATOM     12  C   UNL     1       7.491   5.160  15.572  0.00  0.00    +0.000 C 
ATOM     13  C   UNL     1       5.157   4.703  16.367  0.00  0.00    +0.000 C 
ATOM     14  O   UNL     1       4.675   4.235  15.343  0.00  0.00    +0.000 OA
ATOM     15  H   UNL     1       7.292   6.324  18.260  0.00  0.00    +0.000 HD
ENDBRANCH   6   7
BRANCH   1  18
ATOM     16  C   UNL     1       2.271   6.649  19.383  0.00  0.00    +0.000 C 
ATOM     17  O   UNL     1       2.567   6.354  20.537  0.00  0.00    +0.000 OA
ATOM     18  N   UNL     1       2.181   5.752  18.328  0.00  0.00    +0.000 N 
ATOM     19  H   UNL     1       2.257   6.161  17.403  0.00  0.00    +0.000 HD
BRANCH  16  24
ATOM     20  C   UNL     1       1.417   9.012  19.762  0.00  0.00    +0.000 A 
ATOM     21  O   UNL     1       1.294  10.129  18.976  0.00  0.00    +0.000 OA
ATOM     22  C   UNL     1       1.868   9.772  17.797  0.00  0.00    +0.000 A 
ATOM     23  N   UNL     1       2.368   8.559  17.763  0.00  0.00    +0.000 NA
ATOM     24  C   UNL     1       2.027   8.033  18.998  0.00  0.00    +0.000 A 
BRANCH  20  26
ATOM     25  C   UNL     1       0.673  10.570  21.552  0.00  0.00    +0.000 C 
ATOM     26  C   UNL     1       0.930   9.110  21.171  0.00  0.00    +0.000 C 
ATOM     27  C   UNL     1      -0.326   8.269  21.389  0.00  0.00    +0.000 C 
ENDBRANCH  20  26
ENDBRANCH  16  24
ENDBRANCH   1  18
TORSDOF 4
ENDMDL
MODEL 8
REMARK VINA RESULT:      -6.8      1.635      1.658
REMARK  Name = 
REMARK  7 active torsions:
REMARK  status: ('A' for Active; 'I' for Inactive)
REMARK    1  A    between atoms: C_1  and  C_2
REMARK    2  A    between atoms: C_2  and  C_3
REMARK    3  A    between atoms: C_2  and  C_4
REMARK    4  A    between atoms: C_8  and  C_9
REMARK    5  A    between atoms: N_11  and  C_12
REMARK    6  A    between atoms: C_17  and  N_18
REMARK    7  A    between atoms: C_22  and  C_23
REMARK                            x       y       z     vdW  Elec       q    Type
REMARK                         _______ _______ _______ _____ _____    ______ ____
ROOT
ATOM      1  C   UNL     1       2.528   4.784  18.122  0.00  0.00    +0.000 A 
ATOM      2  C   UNL     1       1.448   3.896  18.191  0.00  0.00    +0.000 A 
ATOM      3  C   UNL     1       1.657   2.523  18.035  0.00  0.00    +0.000 A 
ATOM      4  C   UNL     1       2.945   2.025  17.839  0.00  0.00    +0.000 A 
ATOM      5  C   UNL     1       4.030   2.898  17.812  0.00  0.00    +0.000 A 
ATOM      6  C   UNL     1       3.835   4.277  17.978  0.00  0.00    +0.000 A 
ENDROOT
BRANCH   6   7
ATOM      7  N   UNL     1       4.962   5.110  18.077  0.00  0.00    +0.000 N 
ATOM      8  C   UNL     1       5.883   5.073  19.096  0.00  0.00    +0.000 C 
ATOM      9  O   UNL     1       5.937   4.334  20.064  0.00  0.00    +0.000 OA
ATOM     10  N   UNL     1       6.863   6.013  18.824  0.00  0.00    +0.000 N 
ATOM     11  C   UNL     1       6.520   6.817  17.686  0.00  0.00    +0.000 C 
ATOM     12  C   UNL     1       7.619   6.917  16.651  0.00  0.00    +0.000 C 
ATOM     13  C   UNL     1       5.315   6.056  17.141  0.00  0.00    +0.000 C 
ATOM     14  O   UNL     1       4.767   6.307  16.074  0.00  0.00    +0.000 OA
ATOM     15  H   UNL     1       7.593   6.201  19.499  0.00  0.00    +0.000 HD
ENDBRANCH   6   7
BRANCH   1  18
ATOM     16  C   UNL     1       2.188   6.943  19.238  0.00  0.00    +0.000 C 
ATOM     17  O   UNL     1       2.382   6.530  20.377  0.00  0.00    +0.000 OA
ATOM     18  N   UNL     1       2.237   6.167  18.089  0.00  0.00    +0.000 N 
ATOM     19  H   UNL     1       2.386   6.679  17.226  0.00  0.00    +0.000 HD
BRANCH  16  24
ATOM     20  C   UNL     1       1.137   9.202  19.738  0.00  0.00    +0.000 A 
ATOM     21  O   UNL     1       1.078  10.403  19.081  0.00  0.00    +0.000 OA
ATOM     22  C   UNL     1       1.863  10.222  17.986  0.00  0.00    +0.000 A 
ATOM     23  N   UNL     1       2.436   9.045  17.896  0.00  0.00    +0.000 NA
ATOM     24  C   UNL     1       1.927   8.353  18.983  0.00  0.00    +0.000 A 
BRANCH  20  26
ATOM     25  C   UNL     1       1.407   9.125  22.210  0.00  0.00    +0.000 C 
ATOM     26  C   UNL     1       0.415   9.099  21.043  0.00  0.00    +0.000 C 
ATOM     27  C   UNL     1      -0.624  10.208  21.196  0.00  0.00    +0.000 C 
ENDBRANCH  20  26
ENDBRANCH  16  24
ENDBRANCH   1  18
TORSDOF 4
ENDMDL
MODEL 9
REMARK VINA RESULT:      -6.5      2.466      4.928
REMARK  Name = 
REMARK  7 active torsions:
REMARK  status: ('A' for Active; 'I' for Inactive)
REMARK    1  A    between atoms: C_1  and  C_2
REMARK    2  A    between atoms: C_2  and  C_3
REMARK    3  A    between atoms: C_2  and  C_4
REMARK    4  A    between atoms: C_8  and  C_9
REMARK    5  A    between atoms: N_11  and  C_12
REMARK    6  A    between atoms: C_17  and  N_18
REMARK    7  A    between atoms: C_22  and  C_23
REMARK                            x       y       z     vdW  Elec       q    Type
REMARK                         _______ _______ _______ _____ _____    ______ ____
ROOT
ATOM      1  C   UNL     1       5.206   4.839  15.860  0.00  0.00    +0.000 A 
ATOM      2  C   UNL     1       4.677   4.172  14.749  0.00  0.00    +0.000 A 
ATOM      3  C   UNL     1       5.464   3.971  13.611  0.00  0.00    +0.000 A 
ATOM      4  C   UNL     1       6.789   4.403  13.587  0.00  0.00    +0.000 A 
ATOM      5  C   UNL     1       7.336   5.029  14.705  0.00  0.00    +0.000 A 
ATOM      6  C   UNL     1       6.560   5.229  15.856  0.00  0.00    +0.000 A 
ENDROOT
BRANCH   6   7
ATOM      7  N   UNL     1       7.181   5.743  17.007  0.00  0.00    +0.000 N 
ATOM      8  C   UNL     1       7.191   7.068  17.371  0.00  0.00    +0.000 C 
ATOM      9  O   UNL     1       6.672   8.025  16.825  0.00  0.00    +0.000 OA
ATOM     10  N   UNL     1       7.865   7.176  18.578  0.00  0.00    +0.000 N 
ATOM     11  C   UNL     1       8.463   5.929  18.960  0.00  0.00    +0.000 C 
ATOM     12  C   UNL     1       8.148   5.506  20.378  0.00  0.00    +0.000 C 
ATOM     13  C   UNL     1       7.834   4.977  17.947  0.00  0.00    +0.000 C 
ATOM     14  O   UNL     1       7.952   3.758  17.981  0.00  0.00    +0.000 OA
ATOM     15  H   UNL     1       8.055   8.085  18.978  0.00  0.00    +0.000 HD
ENDBRANCH   6   7
BRANCH   1  18
ATOM     16  C   UNL     1       4.102   4.375  18.002  0.00  0.00    +0.000 C 
ATOM     17  O   UNL     1       4.647   3.292  18.195  0.00  0.00    +0.000 OA
ATOM     18  N   UNL     1       4.313   5.190  16.898  0.00  0.00    +0.000 N 
ATOM     19  H   UNL     1       4.068   6.165  17.026  0.00  0.00    +0.000 HD
BRANCH  16  24
ATOM     20  C   UNL     1       2.224   4.265  19.711  0.00  0.00    +0.000 A 
ATOM     21  O   UNL     1       1.519   5.197  20.428  0.00  0.00    +0.000 OA
ATOM     22  C   UNL     1       2.117   6.377  20.119  0.00  0.00    +0.000 A 
ATOM     23  N   UNL     1       3.145   6.289  19.308  0.00  0.00    +0.000 NA
ATOM     24  C   UNL     1       3.186   4.942  18.983  0.00  0.00    +0.000 A 
BRANCH  20  26
ATOM     25  C   UNL     1       1.459   2.555  21.346  0.00  0.00    +0.000 C 
ATOM     26  C   UNL     1       1.843   2.831  19.890  0.00  0.00    +0.000 C 
ATOM     27  C   UNL     1       0.709   2.431  18.950  0.00  0.00    +0.000 C 
ENDBRANCH  20  26
ENDBRANCH  16  24
ENDBRANCH   1  18
TORSDOF 4
ENDMDL
