MODEL 1
REMARK VINA RESULT:      -8.2      0.000      0.000
REMARK  Name = 
REMARK  6 active torsions:
REMARK  status: ('A' for Active; 'I' for Inactive)
REMARK    1  A    between atoms: C_2  and  C_3
REMARK    2  A    between atoms: C_7  and  N_8
REMARK    3  A    between atoms: N_11  and  C_12
REMARK    4  A    between atoms: C_15  and  O_16
REMARK    5  A    between atoms: O_16  and  C_17
REMARK    6  A    between atoms: C_20  and  C_21
REMARK                            x       y       z     vdW  Elec       q    Type
REMARK                         _______ _______ _______ _____ _____    ______ ____
ROOT
ATOM      1  C   UNL     1       6.966   5.035  16.594  0.00  0.00    +0.000 C 
ATOM      2  C   UNL     1       7.532   5.974  17.659  0.00  0.00    +0.000 C 
ATOM      3  C   UNL     1       6.553   7.151  17.740  0.00  0.00    +0.000 C 
ATOM      4  C   UNL     1       5.318   6.749  16.923  0.00  0.00    +0.000 C 
ATOM      5  C   UNL     1       5.459   5.234  16.751  0.00  0.00    +0.000 C 
ENDROOT
BRANCH   1   9
ATOM      6  N   UNL     1       6.300   3.848  13.956  0.00  0.00    +0.000 N 
ATOM      7  C   UNL     1       7.170   4.899  14.030  0.00  0.00    +0.000 C 
ATOM      8  O   UNL     1       7.764   5.424  13.090  0.00  0.00    +0.000 OA
ATOM      9  N   UNL     1       7.410   5.420  15.260  0.00  0.00    +0.000 N 
ATOM     10  H   UNL     1       6.102   3.365  14.816  0.00  0.00    +0.000 HD
ATOM     11  H   UNL     1       8.099   6.160  15.177  0.00  0.00    +0.000 HD
BRANCH   6  16
ATOM     12  C   UNL     1       4.315   3.332  10.857  0.00  0.00    +0.000 A 
ATOM     13  C   UNL     1       4.838   2.129  10.375  0.00  0.00    +0.000 A 
ATOM     14  C   UNL     1       5.863   1.496  11.070  0.00  0.00    +0.000 A 
ATOM     15  C   UNL     1       6.356   2.058  12.250  0.00  0.00    +0.000 A 
ATOM     16  C   UNL     1       5.836   3.252  12.755  0.00  0.00    +0.000 A 
ATOM     17  C   UNL     1       4.819   3.900  12.039  0.00  0.00    +0.000 A 
BRANCH  12  19
ATOM     18  N   UNL     1       2.388   4.495   9.568  0.00  0.00    +0.000 NA
ATOM     19  C   UNL     1       3.251   3.977  10.144  0.00  0.00    +0.000 C 
ENDBRANCH  12  19
ENDBRANCH   6  16
ENDBRANCH   1   9
BRANCH   4  20
ATOM     20  O   UNL     1       4.096   7.069  17.583  0.00  0.00    +0.000 OA
BRANCH  20  21
ATOM     21  C   UNL     1       3.461   6.063  18.262  0.00  0.00    +0.000 A 
ATOM     22  C   UNL     1       3.815   5.573  19.520  0.00  0.00    +0.000 A 
ATOM     23  C   UNL     1       3.089   4.537  20.112  0.00  0.00    +0.000 A 
ATOM     24  C   UNL     1       1.993   3.961  19.459  0.00  0.00    +0.000 A 
ATOM     25  C   UNL     1       1.632   4.457  18.198  0.00  0.00    +0.000 A 
ATOM     26  C   UNL     1       2.359   5.500  17.608  0.00  0.00    +0.000 A 
BRANCH  24  27
ATOM     27  C   UNL     1       1.228   2.828  20.096  0.00  0.00    +0.000 C 
ATOM     28  F   UNL     1       1.904   1.643  20.082  0.00  0.00    +0.000 F 
ATOM     29  F   UNL     1       0.925   3.066  21.401  0.00  0.00    +0.000 F 
ATOM     30  F   UNL     1       0.042   2.582  19.474  0.00  0.00    +0.000 F 
ENDBRANCH  24  27
ENDBRANCH  20  21
ENDBRANCH   4  20
TORSDOF 6
ENDMDL
MODEL 2
REMARK VINA RESULT:      -8.0      7.376      9.133
REMARK  Name = 
REMARK  6 active torsions:
REMARK  status: ('A' for Active; 'I' for Inactive)
REMARK    1  A    between atoms: C_2  and  C_3
REMARK    2  A    between atoms: C_7  and  N_8
REMARK    3  A    between atoms: N_11  and  C_12
REMARK    4  A    between atoms: C_15  and  O_16
REMARK    5  A    between atoms: O_16  and  C_17
REMARK    6  A    between atoms: C_20  and  C_21
REMARK                            x       y       z     vdW  Elec       q    Type
REMARK                         _______ _______ _______ _____ _____    ______ ____
ROOT
ATOM      1  C   UNL     1       1.330   9.877  18.631  0.00  0.00    +0.000 C 
ATOM      2  C   UNL     1      -0.011   9.705  17.917  0.00  0.00    +0.000 C 
ATOM      3  C   UNL     1      -1.052  10.380  18.817  0.00  0.00    +0.000 C 
ATOM      4  C   UNL     1      -0.270  11.150  19.888  0.00  0.00    +0.000 C 
ATOM      5  C   UNL     1       1.155  11.223  19.332  0.00  0.00    +0.000 C 
ENDROOT
BRANCH   1   9
ATOM      6  N   UNL     1       2.407   7.142  18.215  0.00  0.00    +0.000 N 
ATOM      7  C   UNL     1       2.010   7.536  19.461  0.00  0.00    +0.000 C 
ATOM      8  O   UNL     1       2.019   6.850  20.482  0.00  0.00    +0.000 OA
ATOM      9  N   UNL     1       1.557   8.808  19.595  0.00  0.00    +0.000 N 
ATOM     10  H   UNL     1       2.100   7.711  17.443  0.00  0.00    +0.000 HD
ATOM     11  H   UNL     1       1.259   8.953  20.554  0.00  0.00    +0.000 HD
BRANCH   6  16
ATOM     12  C   UNL     1       5.045   4.661  17.383  0.00  0.00    +0.000 A 
ATOM     13  C   UNL     1       4.305   3.482  17.259  0.00  0.00    +0.000 A 
ATOM     14  C   UNL     1       2.930   3.506  17.468  0.00  0.00    +0.000 A 
ATOM     15  C   UNL     1       2.295   4.709  17.789  0.00  0.00    +0.000 A 
ATOM     16  C   UNL     1       3.016   5.900  17.903  0.00  0.00    +0.000 A 
ATOM     17  C   UNL     1       4.405   5.867  17.716  0.00  0.00    +0.000 A 
BRANCH  12  19
ATOM     18  N   UNL     1       7.606   4.618  16.978  0.00  0.00    +0.000 NA
ATOM     19  C   UNL     1       6.461   4.635  17.158  0.00  0.00    +0.000 C 
ENDBRANCH  12  19
ENDBRANCH   6  16
ENDBRANCH   1   9
BRANCH   4  20
ATOM     20  O   UNL     1      -0.790  12.458  20.113  0.00  0.00    +0.000 OA
BRANCH  20  21
ATOM     21  C   UNL     1      -1.848  12.580  20.974  0.00  0.00    +0.000 A 
ATOM     22  C   UNL     1      -3.099  13.117  20.665  0.00  0.00    +0.000 A 
ATOM     23  C   UNL     1      -4.102  13.190  21.634  0.00  0.00    +0.000 A 
ATOM     24  C   UNL     1      -3.879  12.733  22.939  0.00  0.00    +0.000 A 
ATOM     25  C   UNL     1      -2.625  12.188  23.248  0.00  0.00    +0.000 A 
ATOM     26  C   UNL     1      -1.621  12.110  22.273  0.00  0.00    +0.000 A 
BRANCH  24  27
ATOM     27  C   UNL     1      -4.960  12.836  23.984  0.00  0.00    +0.000 C 
ATOM     28  F   UNL     1      -4.688  12.125  25.117  0.00  0.00    +0.000 F 
ATOM     29  F   UNL     1      -5.177  14.115  24.393  0.00  0.00    +0.000 F 
ATOM     30  F   UNL     1      -6.162  12.375  23.541  0.00  0.00    +0.000 F 
ENDBRANCH  24  27
ENDBRANCH  20  21
ENDBRANCH   4  20
TORSDOF 6
ENDMDL
MODEL 3
REMARK VINA RESULT:      -8.0      0.462      1.079
REMARK  Name = 
REMARK  6 active torsions:
REMARK  status: ('A' for Active; 'I' for Inactive)
REMARK    1  A    between atoms: C_2  and  C_3
REMARK    2  A    between atoms: C_7  and  N_8
REMARK    3  A    between atoms: N_11  and  C_12
REMARK    4  A    between atoms: C_15  and  O_16
REMARK    5  A    between atoms: O_16  and  C_17
REMARK    6  A    between atoms: C_20  and  C_21
REMARK                            x       y       z     vdW  Elec       q    Type
REMARK                         _______ _______ _______ _____ _____    ______ ____
ROOT
ATOM      1  C   UNL     1       6.975   5.129  16.569  0.00  0.00    +0.000 C 
ATOM      2  C   UNL     1       7.411   6.169  17.602  0.00  0.00    +0.000 C 
ATOM      3  C   UNL     1       6.325   7.251  17.589  0.00  0.00    +0.000 C 
ATOM      4  C   UNL     1       5.164   6.694  16.754  0.00  0.00    +0.000 C 
ATOM      5  C   UNL     1       5.451   5.193  16.667  0.00  0.00    +0.000 C 
ENDROOT
BRANCH   1   9
ATOM      6  N   UNL     1       6.323   3.899  13.948  0.00  0.00    +0.000 N 
ATOM      7  C   UNL     1       7.197   4.947  14.010  0.00  0.00    +0.000 C 
ATOM      8  O   UNL     1       7.801   5.453  13.066  0.00  0.00    +0.000 OA
ATOM      9  N   UNL     1       7.431   5.488  15.232  0.00  0.00    +0.000 N 
ATOM     10  H   UNL     1       6.115   3.432  14.815  0.00  0.00    +0.000 HD
ATOM     11  H   UNL     1       8.125   6.223  15.141  0.00  0.00    +0.000 HD
BRANCH   6  16
ATOM     12  C   UNL     1       4.333   3.318  10.864  0.00  0.00    +0.000 A 
ATOM     13  C   UNL     1       4.876   2.122  10.389  0.00  0.00    +0.000 A 
ATOM     14  C   UNL     1       5.918   1.515  11.083  0.00  0.00    +0.000 A 
ATOM     15  C   UNL     1       6.405   2.096  12.256  0.00  0.00    +0.000 A 
ATOM     16  C   UNL     1       5.864   3.285  12.755  0.00  0.00    +0.000 A 
ATOM     17  C   UNL     1       4.832   3.906  12.039  0.00  0.00    +0.000 A 
BRANCH  12  19
ATOM     18  N   UNL     1       2.382   4.435   9.570  0.00  0.00    +0.000 NA
ATOM     19  C   UNL     1       3.253   3.937  10.151  0.00  0.00    +0.000 C 
ENDBRANCH  12  19
ENDBRANCH   6  16
ENDBRANCH   1   9
BRANCH   4  20
ATOM     20  O   UNL     1       3.894   6.929  17.356  0.00  0.00    +0.000 OA
BRANCH  20  21
ATOM     21  C   UNL     1       3.341   5.910  18.086  0.00  0.00    +0.000 A 
ATOM     22  C   UNL     1       2.249   5.128  17.706  0.00  0.00    +0.000 A 
ATOM     23  C   UNL     1       1.772   4.115  18.540  0.00  0.00    +0.000 A 
ATOM     24  C   UNL     1       2.372   3.859  19.779  0.00  0.00    +0.000 A 
ATOM     25  C   UNL     1       3.474   4.638  20.158  0.00  0.00    +0.000 A 
ATOM     26  C   UNL     1       3.954   5.652  19.317  0.00  0.00    +0.000 A 
BRANCH  24  27
ATOM     27  C   UNL     1       1.838   2.777  20.682  0.00  0.00    +0.000 C 
ATOM     28  F   UNL     1       1.518   1.627  20.020  0.00  0.00    +0.000 F 
ATOM     29  F   UNL     1       2.724   2.413  21.648  0.00  0.00    +0.000 F 
ATOM     30  F   UNL     1       0.704   3.153  21.335  0.00  0.00    +0.000 F 
ENDBRANCH  24  27
ENDBRANCH  20  21
ENDBRANCH   4  20
TORSDOF 6
ENDMDL
MODEL 4
REMARK VINA RESULT:      -7.9      5.444      8.526
REMARK  Name = 
REMARK  6 active torsions:
REMARK  status: ('A' for Active; 'I' for Inactive)
REMARK    1  A    between atoms: C_2  and  C_3
REMARK    2  A    between atoms: C_7  and  N_8
REMARK    3  A    between atoms: N_11  and  C_12
REMARK    4  A    between atoms: C_15  and  O_16
REMARK    5  A    between atoms: O_16  and  C_17
REMARK    6  A    between atoms: C_20  and  C_21
REMARK                            x       y       z     vdW  Elec       q    Type
REMARK                         _______ _______ _______ _____ _____    ______ ____
ROOT
ATOM      1  C   UNL     1       3.544   2.738  20.014  0.00  0.00    +0.000 C 
ATOM      2  C   UNL     1       3.585   1.412  19.256  0.00  0.00    +0.000 C 
ATOM      3  C   UNL     1       3.599   1.781  17.768  0.00  0.00    +0.000 C 
ATOM      4  C   UNL     1       3.831   3.296  17.697  0.00  0.00    +0.000 C 
ATOM      5  C   UNL     1       4.339   3.664  19.093  0.00  0.00    +0.000 C 
ENDROOT
BRANCH   1   9
ATOM      6  N   UNL     1       2.478   5.509  19.997  0.00  0.00    +0.000 N 
ATOM      7  C   UNL     1       1.635   4.456  20.215  0.00  0.00    +0.000 C 
ATOM      8  O   UNL     1       0.429   4.520  20.444  0.00  0.00    +0.000 OA
ATOM      9  N   UNL     1       2.175   3.211  20.179  0.00  0.00    +0.000 N 
ATOM     10  H   UNL     1       3.463   5.324  20.085  0.00  0.00    +0.000 HD
ATOM     11  H   UNL     1       1.454   2.531  20.396  0.00  0.00    +0.000 HD
BRANCH   6  16
ATOM     12  C   UNL     1       1.169   8.857  20.938  0.00  0.00    +0.000 A 
ATOM     13  C   UNL     1       1.245   9.549  19.727  0.00  0.00    +0.000 A 
ATOM     14  C   UNL     1       1.748   8.909  18.599  0.00  0.00    +0.000 A 
ATOM     15  C   UNL     1       2.162   7.578  18.679  0.00  0.00    +0.000 A 
ATOM     16  C   UNL     1       2.080   6.865  19.878  0.00  0.00    +0.000 A 
ATOM     17  C   UNL     1       1.595   7.520  21.019  0.00  0.00    +0.000 A 
BRANCH  12  19
ATOM     18  N   UNL     1       0.212  10.052  23.032  0.00  0.00    +0.000 NA
ATOM     19  C   UNL     1       0.641   9.516  22.098  0.00  0.00    +0.000 C 
ENDBRANCH  12  19
ENDBRANCH   6  16
ENDBRANCH   1   9
BRANCH   4  20
ATOM     20  O   UNL     1       4.786   3.659  16.703  0.00  0.00    +0.000 OA
BRANCH  20  21
ATOM     21  C   UNL     1       5.619   4.710  16.979  0.00  0.00    +0.000 A 
ATOM     22  C   UNL     1       6.937   4.616  17.430  0.00  0.00    +0.000 A 
ATOM     23  C   UNL     1       7.689   5.765  17.681  0.00  0.00    +0.000 A 
ATOM     24  C   UNL     1       7.142   7.040  17.492  0.00  0.00    +0.000 A 
ATOM     25  C   UNL     1       5.821   7.137  17.032  0.00  0.00    +0.000 A 
ATOM     26  C   UNL     1       5.069   5.981  16.776  0.00  0.00    +0.000 A 
BRANCH  24  27
ATOM     27  C   UNL     1       7.954   8.276  17.785  0.00  0.00    +0.000 C 
ATOM     28  F   UNL     1       8.829   8.598  16.788  0.00  0.00    +0.000 F 
ATOM     29  F   UNL     1       7.183   9.380  17.972  0.00  0.00    +0.000 F 
ATOM     30  F   UNL     1       8.710   8.150  18.911  0.00  0.00    +0.000 F 
ENDBRANCH  24  27
ENDBRANCH  20  21
ENDBRANCH   4  20
TORSDOF 6
ENDMDL
MODEL 5
REMARK VINA RESULT:      -7.7      7.491      9.308
REMARK  Name = 
REMARK  6 active torsions:
REMARK  status: ('A' for Active; 'I' for Inactive)
REMARK    1  A    between atoms: C_2  and  C_3
REMARK    2  A    between atoms: C_7  and  N_8
REMARK    3  A    between atoms: N_11  and  C_12
REMARK    4  A    between atoms: C_15  and  O_16
REMARK    5  A    between atoms: O_16  and  C_17
REMARK    6  A    between atoms: C_20  and  C_21
REMARK                            x       y       z     vdW  Elec       q    Type
REMARK                         _______ _______ _______ _____ _____    ______ ____
ROOT
ATOM      1  C   UNL     1       1.477  10.062  19.021  0.00  0.00    +0.000 C 
ATOM      2  C   UNL     1       0.489   9.856  17.873  0.00  0.00    +0.000 C 
ATOM      3  C   UNL     1      -0.870  10.330  18.402  0.00  0.00    +0.000 C 
ATOM      4  C   UNL     1      -0.597  11.040  19.734  0.00  0.00    +0.000 C 
ATOM      5  C   UNL     1       0.912  11.299  19.718  0.00  0.00    +0.000 C 
ENDROOT
BRANCH   1   9
ATOM      6  N   UNL     1       2.460   7.300  18.555  0.00  0.00    +0.000 N 
ATOM      7  C   UNL     1       1.892   7.628  19.754  0.00  0.00    +0.000 C 
ATOM      8  O   UNL     1       1.703   6.872  20.705  0.00  0.00    +0.000 OA
ATOM      9  N   UNL     1       1.491   8.914  19.919  0.00  0.00    +0.000 N 
ATOM     10  H   UNL     1       2.310   7.942  17.794  0.00  0.00    +0.000 HD
ATOM     11  H   UNL     1       1.053   9.009  20.829  0.00  0.00    +0.000 HD
BRANCH   6  16
ATOM     12  C   UNL     1       5.061   4.720  17.939  0.00  0.00    +0.000 A 
ATOM     13  C   UNL     1       4.290   3.603  17.609  0.00  0.00    +0.000 A 
ATOM     14  C   UNL     1       2.902   3.700  17.608  0.00  0.00    +0.000 A 
ATOM     15  C   UNL     1       2.289   4.915  17.924  0.00  0.00    +0.000 A 
ATOM     16  C   UNL     1       3.044   6.047  18.242  0.00  0.00    +0.000 A 
ATOM     17  C   UNL     1       4.442   5.938  18.265  0.00  0.00    +0.000 A 
BRANCH  12  19
ATOM     18  N   UNL     1       7.649   4.532  17.921  0.00  0.00    +0.000 NA
ATOM     19  C   UNL     1       6.492   4.619  17.930  0.00  0.00    +0.000 C 
ENDBRANCH  12  19
ENDBRANCH   6  16
ENDBRANCH   1   9
BRANCH   4  20
ATOM     20  O   UNL     1      -1.316  12.263  19.862  0.00  0.00    +0.000 OA
BRANCH  20  21
ATOM     21  C   UNL     1      -2.183  12.380  20.916  0.00  0.00    +0.000 A 
ATOM     22  C   UNL     1      -1.924  12.008  22.236  0.00  0.00    +0.000 A 
ATOM     23  C   UNL     1      -2.894  12.174  23.227  0.00  0.00    +0.000 A 
ATOM     24  C   UNL     1      -4.150  12.714  22.924  0.00  0.00    +0.000 A 
ATOM     25  C   UNL     1      -4.409  13.095  21.600  0.00  0.00    +0.000 A 
ATOM     26  C   UNL     1      -3.432  12.931  20.607  0.00  0.00    +0.000 A 
BRANCH  24  27
ATOM     27  C   UNL     1      -5.198  12.870  23.997  0.00  0.00    +0.000 C 
ATOM     28  F   UNL     1      -6.413  12.358  23.645  0.00  0.00    +0.000 F 
ATOM     29  F   UNL     1      -4.858  12.251  25.159  0.00  0.00    +0.000 F 
ATOM     30  F   UNL     1      -5.427  14.173  24.318  0.00  0.00    +0.000 F 
ENDBRANCH  24  27
ENDBRANCH  20  21
ENDBRANCH   4  20
TORSDOF 6
ENDMDL
MODEL 6
REMARK VINA RESULT:      -7.7      7.291      8.980
REMARK  Name = 
REMARK  6 active torsions:
REMARK  status: ('A' for Active; 'I' for Inactive)
REMARK    1  A    between atoms: C_2  and  C_3
REMARK    2  A    between atoms: C_7  and  N_8
REMARK    3  A    between atoms: N_11  and  C_12
REMARK    4  A    between atoms: C_15  and  O_16
REMARK    5  A    between atoms: O_16  and  C_17
REMARK    6  A    between atoms: C_20  and  C_21
REMARK                            x       y       z     vdW  Elec       q    Type
REMARK                         _______ _______ _______ _____ _____    ______ ____
ROOT
ATOM      1  C   UNL     1       1.270   9.931  18.328  0.00  0.00    +0.000 C 
ATOM      2  C   UNL     1      -0.139   9.699  17.782  0.00  0.00    +0.000 C 
ATOM      3  C   UNL     1      -1.089  10.378  18.775  0.00  0.00    +0.000 C 
ATOM      4  C   UNL     1      -0.211  11.207  19.722  0.00  0.00    +0.000 C 
ATOM      5  C   UNL     1       1.136  11.297  19.001  0.00  0.00    +0.000 C 
ENDROOT
BRANCH   1   9
ATOM      6  N   UNL     1       2.576   7.302  17.894  0.00  0.00    +0.000 N 
ATOM      7  C   UNL     1       2.202   7.677  19.153  0.00  0.00    +0.000 C 
ATOM      8  O   UNL     1       2.322   7.012  20.180  0.00  0.00    +0.000 OA
ATOM      9  N   UNL     1       1.639   8.904  19.293  0.00  0.00    +0.000 N 
ATOM     10  H   UNL     1       2.183   7.827  17.131  0.00  0.00    +0.000 HD
ATOM     11  H   UNL     1       1.373   9.036  20.263  0.00  0.00    +0.000 HD
BRANCH   6  16
ATOM     12  C   UNL     1       5.270   5.086  16.612  0.00  0.00    +0.000 A 
ATOM     13  C   UNL     1       4.748   3.816  16.869  0.00  0.00    +0.000 A 
ATOM     14  C   UNL     1       3.506   3.693  17.485  0.00  0.00    +0.000 A 
ATOM     15  C   UNL     1       2.784   4.838  17.831  0.00  0.00    +0.000 A 
ATOM     16  C   UNL     1       3.284   6.116  17.569  0.00  0.00    +0.000 A 
ATOM     17  C   UNL     1       4.546   6.236  16.970  0.00  0.00    +0.000 A 
BRANCH  12  19
ATOM     18  N   UNL     1       7.578   5.304  15.448  0.00  0.00    +0.000 NA
ATOM     19  C   UNL     1       6.546   5.209  15.968  0.00  0.00    +0.000 C 
ENDBRANCH  12  19
ENDBRANCH   6  16
ENDBRANCH   1   9
BRANCH   4  20
ATOM     20  O   UNL     1      -0.740  12.508  19.963  0.00  0.00    +0.000 OA
BRANCH  20  21
ATOM     21  C   UNL     1      -1.657  12.641  20.972  0.00  0.00    +0.000 A 
ATOM     22  C   UNL     1      -2.997  12.999  20.820  0.00  0.00    +0.000 A 
ATOM     23  C   UNL     1      -3.837  13.106  21.930  0.00  0.00    +0.000 A 
ATOM     24  C   UNL     1      -3.358  12.862  23.223  0.00  0.00    +0.000 A 
ATOM     25  C   UNL     1      -2.013  12.496  23.377  0.00  0.00    +0.000 A 
ATOM     26  C   UNL     1      -1.173  12.384  22.260  0.00  0.00    +0.000 A 
BRANCH  24  27
ATOM     27  C   UNL     1      -4.266  13.001  24.418  0.00  0.00    +0.000 C 
ATOM     28  F   UNL     1      -5.424  13.670  24.143  0.00  0.00    +0.000 F 
ATOM     29  F   UNL     1      -4.646  11.800  24.933  0.00  0.00    +0.000 F 
ATOM     30  F   UNL     1      -3.683  13.682  25.443  0.00  0.00    +0.000 F 
ENDBRANCH  24  27
ENDBRANCH  20  21
ENDBRANCH   4  20
TORSDOF 6
ENDMDL
MODEL 7
REMARK VINA RESULT:      -7.7      4.416      8.204
REMARK  Name = 
REMARK  6 active torsions:
REMARK  status: ('A' for Active; 'I' for Inactive)
REMARK    1  A    between atoms: C_2  and  C_3
REMARK    2  A    between atoms: C_7  and  N_8
REMARK    3  A    between atoms: N_11  and  C_12
REMARK    4  A    between atoms: C_15  and  O_16
REMARK    5  A    between atoms: O_16  and  C_17
REMARK    6  A    between atoms: C_20  and  C_21
REMARK                            x       y       z     vdW  Elec       q    Type
REMARK                         _______ _______ _______ _____ _____    ______ ____
ROOT
ATOM      1  C   UNL     1       8.005   6.988  17.477  0.00  0.00    +0.000 C 
ATOM      2  C   UNL     1       7.472   6.447  18.803  0.00  0.00    +0.000 C 
ATOM      3  C   UNL     1       6.045   5.967  18.515  0.00  0.00    +0.000 C 
ATOM      4  C   UNL     1       5.874   5.993  16.991  0.00  0.00    +0.000 C 
ATOM      5  C   UNL     1       7.305   6.091  16.455  0.00  0.00    +0.000 C 
ENDROOT
BRANCH   1   9
ATOM      6  N   UNL     1       9.043   9.423  18.819  0.00  0.00    +0.000 N 
ATOM      7  C   UNL     1       8.046   9.529  17.892  0.00  0.00    +0.000 C 
ATOM      8  O   UNL     1       7.476  10.563  17.546  0.00  0.00    +0.000 OA
ATOM      9  N   UNL     1       7.635   8.385  17.288  0.00  0.00    +0.000 N 
ATOM     10  H   UNL     1       9.224   8.502  19.184  0.00  0.00    +0.000 HD
ATOM     11  H   UNL     1       6.869   8.600  16.659  0.00  0.00    +0.000 HD
BRANCH   6  16
ATOM     12  C   UNL     1       9.706  12.109  21.299  0.00  0.00    +0.000 A 
ATOM     13  C   UNL     1      10.871  12.690  20.793  0.00  0.00    +0.000 A 
ATOM     14  C   UNL     1      11.449  12.179  19.636  0.00  0.00    +0.000 A 
ATOM     15  C   UNL     1      10.856  11.098  18.980  0.00  0.00    +0.000 A 
ATOM     16  C   UNL     1       9.683  10.513  19.463  0.00  0.00    +0.000 A 
ATOM     17  C   UNL     1       9.117  11.015  20.643  0.00  0.00    +0.000 A 
BRANCH  12  19
ATOM     18  N   UNL     1       8.628  13.079  23.451  0.00  0.00    +0.000 NA
ATOM     19  C   UNL     1       9.107  12.645  22.488  0.00  0.00    +0.000 C 
ENDBRANCH  12  19
ENDBRANCH   6  16
ENDBRANCH   1   9
BRANCH   4  20
ATOM     20  O   UNL     1       5.229   4.825  16.491  0.00  0.00    +0.000 OA
BRANCH  20  21
ATOM     21  C   UNL     1       4.234   4.276  17.254  0.00  0.00    +0.000 A 
ATOM     22  C   UNL     1       4.161   2.946  17.673  0.00  0.00    +0.000 A 
ATOM     23  C   UNL     1       3.090   2.501  18.451  0.00  0.00    +0.000 A 
ATOM     24  C   UNL     1       2.061   3.372  18.826  0.00  0.00    +0.000 A 
ATOM     25  C   UNL     1       2.136   4.710  18.412  0.00  0.00    +0.000 A 
ATOM     26  C   UNL     1       3.214   5.156  17.636  0.00  0.00    +0.000 A 
BRANCH  24  27
ATOM     27  C   UNL     1       0.897   2.878  19.648  0.00  0.00    +0.000 C 
ATOM     28  F   UNL     1       0.181   3.883  20.231  0.00  0.00    +0.000 F 
ATOM     29  F   UNL     1       0.002   2.162  18.915  0.00  0.00    +0.000 F 
ATOM     30  F   UNL     1       1.285   2.063  20.667  0.00  0.00    +0.000 F 
ENDBRANCH  24  27
ENDBRANCH  20  21
ENDBRANCH   4  20
TORSDOF 6
ENDMDL
MODEL 8
REMARK VINA RESULT:      -7.6      7.474      9.054
REMARK  Name = 
REMARK  6 active torsions:
REMARK  status: ('A' for Active; 'I' for Inactive)
REMARK    1  A    between atoms: C_2  and  C_3
REMARK    2  A    between atoms: C_7  and  N_8
REMARK    3  A    between atoms: N_11  and  C_12
REMARK    4  A    between atoms: C_15  and  O_16
REMARK    5  A    between atoms: O_16  and  C_17
REMARK    6  A    between atoms: C_20  and  C_21
REMARK                            x       y       z     vdW  Elec       q    Type
REMARK                         _______ _______ _______ _____ _____    ______ ____
ROOT
ATOM      1  C   UNL     1       1.236   9.974  18.488  0.00  0.00    +0.000 C 
ATOM      2  C   UNL     1      -0.196   9.848  17.969  0.00  0.00    +0.000 C 
ATOM      3  C   UNL     1      -1.089  10.467  19.051  0.00  0.00    +0.000 C 
ATOM      4  C   UNL     1      -0.151  11.169  20.041  0.00  0.00    +0.000 C 
ATOM      5  C   UNL     1       1.178  11.275  19.289  0.00  0.00    +0.000 C 
ENDROOT
BRANCH   1   9
ATOM      6  N   UNL     1       2.828   7.548  17.865  0.00  0.00    +0.000 N 
ATOM      7  C   UNL     1       2.280   7.703  19.106  0.00  0.00    +0.000 C 
ATOM      8  O   UNL     1       2.346   6.905  20.040  0.00  0.00    +0.000 OA
ATOM      9  N   UNL     1       1.590   8.847  19.342  0.00  0.00    +0.000 N 
ATOM     10  H   UNL     1       2.475   8.148  17.138  0.00  0.00    +0.000 HD
ATOM     11  H   UNL     1       1.205   8.814  20.280  0.00  0.00    +0.000 HD
BRANCH   6  16
ATOM     12  C   UNL     1       4.106   4.088  17.414  0.00  0.00    +0.000 A 
ATOM     13  C   UNL     1       5.315   4.310  16.750  0.00  0.00    +0.000 A 
ATOM     14  C   UNL     1       5.700   5.609  16.436  0.00  0.00    +0.000 A 
ATOM     15  C   UNL     1       4.884   6.684  16.795  0.00  0.00    +0.000 A 
ATOM     16  C   UNL     1       3.678   6.483  17.472  0.00  0.00    +0.000 A 
ATOM     17  C   UNL     1       3.282   5.170  17.765  0.00  0.00    +0.000 A 
BRANCH  12  19
ATOM     18  N   UNL     1       3.396   1.666  18.011  0.00  0.00    +0.000 NA
ATOM     19  C   UNL     1       3.716   2.748  17.745  0.00  0.00    +0.000 C 
ENDBRANCH  12  19
ENDBRANCH   6  16
ENDBRANCH   1   9
BRANCH   4  20
ATOM     20  O   UNL     1      -0.620  12.461  20.419  0.00  0.00    +0.000 OA
BRANCH  20  21
ATOM     21  C   UNL     1      -1.654  12.522  21.315  0.00  0.00    +0.000 A 
ATOM     22  C   UNL     1      -1.694  11.902  22.564  0.00  0.00    +0.000 A 
ATOM     23  C   UNL     1      -2.810  12.037  23.392  0.00  0.00    +0.000 A 
ATOM     24  C   UNL     1      -3.918  12.792  22.991  0.00  0.00    +0.000 A 
ATOM     25  C   UNL     1      -3.877  13.422  21.738  0.00  0.00    +0.000 A 
ATOM     26  C   UNL     1      -2.753  13.290  20.911  0.00  0.00    +0.000 A 
BRANCH  24  27
ATOM     27  C   UNL     1      -5.128  12.915  23.882  0.00  0.00    +0.000 C 
ATOM     28  F   UNL     1      -6.277  12.463  23.300  0.00  0.00    +0.000 F 
ATOM     29  F   UNL     1      -5.001  12.216  25.041  0.00  0.00    +0.000 F 
ATOM     30  F   UNL     1      -5.383  14.202  24.245  0.00  0.00    +0.000 F 
ENDBRANCH  24  27
ENDBRANCH  20  21
ENDBRANCH   4  20
TORSDOF 6
ENDMDL
MODEL 9
REMARK VINA RESULT:      -7.5      6.621      8.120
REMARK  Name = 
REMARK  6 active torsions:
REMARK  status: ('A' for Active; 'I' for Inactive)
REMARK    1  A    between atoms: C_2  and  C_3
REMARK    2  A    between atoms: C_7  and  N_8
REMARK    3  A    between atoms: N_11  and  C_12
REMARK    4  A    between atoms: C_15  and  O_16
REMARK    5  A    between atoms: O_16  and  C_17
REMARK    6  A    between atoms: C_20  and  C_21
REMARK                            x       y       z     vdW  Elec       q    Type
REMARK                         _______ _______ _______ _____ _____    ______ ____
ROOT
ATOM      1  C   UNL     1       1.739   9.266  17.845  0.00  0.00    +0.000 C 
ATOM      2  C   UNL     1       0.241   9.346  17.554  0.00  0.00    +0.000 C 
ATOM      3  C   UNL     1      -0.389  10.009  18.784  0.00  0.00    +0.000 C 
ATOM      4  C   UNL     1       0.772  10.535  19.639  0.00  0.00    +0.000 C 
ATOM      5  C   UNL     1       1.973  10.517  18.691  0.00  0.00    +0.000 C 
ENDROOT
BRANCH   1   9
ATOM      6  N   UNL     1       3.887   7.271  17.376  0.00  0.00    +0.000 N 
ATOM      7  C   UNL     1       3.009   7.097  18.408  0.00  0.00    +0.000 C 
ATOM      8  O   UNL     1       2.980   6.150  19.192  0.00  0.00    +0.000 OA
ATOM      9  N   UNL     1       2.069   8.058  18.592  0.00  0.00    +0.000 N 
ATOM     10  H   UNL     1       3.628   7.943  16.672  0.00  0.00    +0.000 HD
ATOM     11  H   UNL     1       1.462   7.785  19.359  0.00  0.00    +0.000 HD
BRANCH   6  16
ATOM     12  C   UNL     1       6.146   4.951  15.555  0.00  0.00    +0.000 A 
ATOM     13  C   UNL     1       7.172   4.756  16.483  0.00  0.00    +0.000 A 
ATOM     14  C   UNL     1       7.123   5.410  17.710  0.00  0.00    +0.000 A 
ATOM     15  C   UNL     1       6.045   6.246  18.012  0.00  0.00    +0.000 A 
ATOM     16  C   UNL     1       5.003   6.441  17.102  0.00  0.00    +0.000 A 
ATOM     17  C   UNL     1       5.068   5.800  15.857  0.00  0.00    +0.000 A 
BRANCH  12  19
ATOM     18  N   UNL     1       6.229   3.714  13.276  0.00  0.00    +0.000 NA
ATOM     19  C   UNL     1       6.194   4.268  14.294  0.00  0.00    +0.000 C 
ENDBRANCH  12  19
ENDBRANCH   6  16
ENDBRANCH   1   9
BRANCH   4  20
ATOM     20  O   UNL     1       0.539  11.852  20.131  0.00  0.00    +0.000 OA
BRANCH  20  21
ATOM     21  C   UNL     1      -0.455  12.014  21.060  0.00  0.00    +0.000 A 
ATOM     22  C   UNL     1      -0.581  11.306  22.257  0.00  0.00    +0.000 A 
ATOM     23  C   UNL     1      -1.644  11.560  23.126  0.00  0.00    +0.000 A 
ATOM     24  C   UNL     1      -2.611  12.525  22.820  0.00  0.00    +0.000 A 
ATOM     25  C   UNL     1      -2.481  13.241  21.622  0.00  0.00    +0.000 A 
ATOM     26  C   UNL     1      -1.411  12.989  20.753  0.00  0.00    +0.000 A 
BRANCH  24  27
ATOM     27  C   UNL     1      -3.767  12.777  23.755  0.00  0.00    +0.000 C 
ATOM     28  F   UNL     1      -4.033  11.726  24.583  0.00  0.00    +0.000 F 
ATOM     29  F   UNL     1      -3.562  13.848  24.569  0.00  0.00    +0.000 F 
ATOM     30  F   UNL     1      -4.931  13.027  23.093  0.00  0.00    +0.000 F 
ENDBRANCH  24  27
ENDBRANCH  20  21
ENDBRANCH   4  20
TORSDOF 6
ENDMDL
