MODEL 1
REMARK VINA RESULT:     -10.5      0.000      0.000
REMARK  Name = 
REMARK  5 active torsions:
REMARK  status: ('A' for Active; 'I' for Inactive)
REMARK    1  A    between atoms: C_2  and  C_4
REMARK    2  A    between atoms: C_9  and  C_10
REMARK    3  A    between atoms: C_15  and  C_16
REMARK    4  A    between atoms: C_21  and  O_22
REMARK    5  A    between atoms: O_22  and  C_23
REMARK                            x       y       z     vdW  Elec       q    Type
REMARK                         _______ _______ _______ _____ _____    ______ ____
ROOT
ATOM      1  C   UNL     1       0.856   9.925  20.397  0.00  0.00    +0.000 A 
ATOM      2  C   UNL     1       1.175  10.178  19.054  0.00  0.00    +0.000 A 
ATOM      3  C   UNL     1       1.789   9.198  18.263  0.00  0.00    +0.000 A 
ATOM      4  C   UNL     1       2.051   7.942  18.827  0.00  0.00    +0.000 A 
ATOM      5  N   UNL     1       2.559   6.819  18.242  0.00  0.00    +0.000 NA
ATOM      6  C   UNL     1       2.494   5.853  19.149  0.00  0.00    +0.000 A 
ATOM      7  N   UNL     1       2.095   6.385  20.357  0.00  0.00    +0.000 N 
ATOM      8  C   UNL     1       1.746   7.703  20.158  0.00  0.00    +0.000 A 
ATOM      9  C   UNL     1       1.176   8.679  20.982  0.00  0.00    +0.000 A 
ATOM     10  H   UNL     1       1.977   5.862  21.212  0.00  0.00    +0.000 HD
ENDROOT
BRANCH   1  16
ATOM     11  C   UNL     1      -2.456  13.572  23.749  0.00  0.00    +0.000 A 
ATOM     12  C   UNL     1      -1.595  14.571  23.271  0.00  0.00    +0.000 A 
ATOM     13  C   UNL     1      -0.525  14.266  22.417  0.00  0.00    +0.000 A 
ATOM     14  C   UNL     1      -0.379  12.923  22.062  0.00  0.00    +0.000 A 
ATOM     15  N   UNL     1       0.513  12.266  21.250  0.00  0.00    +0.000 N 
ATOM     16  C   UNL     1       0.178  10.926  21.218  0.00  0.00    +0.000 A 
ATOM     17  N   UNL     1      -0.877  10.706  21.980  0.00  0.00    +0.000 NA
ATOM     18  C   UNL     1      -1.227  11.920  22.508  0.00  0.00    +0.000 A 
ATOM     19  C   UNL     1      -2.283  12.234  23.371  0.00  0.00    +0.000 A 
ATOM     20  H   UNL     1       1.255  12.695  20.718  0.00  0.00    +0.000 HD
BRANCH  11  22
ATOM     21  N   UNL     1      -4.347  12.998  25.120  0.00  0.00    +0.000 NA
ATOM     22  C   UNL     1      -3.584  13.930  24.652  0.00  0.00    +0.000 C 
ATOM     23  N   UNL     1      -3.816  15.237  24.973  0.00  0.00    +0.000 N 
ATOM     24  H   UNL     1      -5.034  13.407  25.757  0.00  0.00    +0.000 HD
ATOM     25  H   UNL     1      -4.745  15.454  25.309  0.00  0.00    +0.000 HD
ATOM     26  H   UNL     1      -3.493  15.921  24.295  0.00  0.00    +0.000 HD
ENDBRANCH  11  22
ENDBRANCH   1  16
BRANCH   6  27
ATOM     27  C   UNL     1       2.707   4.428  18.836  0.00  0.00    +0.000 A 
ATOM     28  C   UNL     1       1.542   3.626  18.828  0.00  0.00    +0.000 A 
ATOM     29  C   UNL     1       1.588   2.242  18.667  0.00  0.00    +0.000 A 
ATOM     30  C   UNL     1       2.815   1.612  18.561  0.00  0.00    +0.000 A 
ATOM     31  C   UNL     1       3.982   2.373  18.576  0.00  0.00    +0.000 A 
ATOM     32  C   UNL     1       3.942   3.786  18.630  0.00  0.00    +0.000 A 
BRANCH  32  33
ATOM     33  O   UNL     1       5.113   4.524  18.495  0.00  0.00    +0.000 OA
BRANCH  33  34
ATOM     34  C   UNL     1       5.703   4.557  17.237  0.00  0.00    +0.000 A 
ATOM     35  C   UNL     1       7.081   4.746  17.055  0.00  0.00    +0.000 A 
ATOM     36  C   UNL     1       7.612   4.902  15.772  0.00  0.00    +0.000 A 
ATOM     37  C   UNL     1       6.777   4.795  14.664  0.00  0.00    +0.000 A 
ATOM     38 CL   UNL     1       7.432   4.995  13.084  0.00  0.00    +0.000 Cl
ATOM     39  C   UNL     1       5.415   4.532  14.831  0.00  0.00    +0.000 A 
ATOM     40  C   UNL     1       4.877   4.415  16.119  0.00  0.00    +0.000 A 
ENDBRANCH  33  34
ENDBRANCH  32  33
ENDBRANCH   6  27
TORSDOF 5
ENDMDL
MODEL 2
REMARK VINA RESULT:     -10.3      1.162      1.531
REMARK  Name = 
REMARK  5 active torsions:
REMARK  status: ('A' for Active; 'I' for Inactive)
REMARK    1  A    between atoms: C_2  and  C_4
REMARK    2  A    between atoms: C_9  and  C_10
REMARK    3  A    between atoms: C_15  and  C_16
REMARK    4  A    between atoms: C_21  and  O_22
REMARK    5  A    between atoms: O_22  and  C_23
REMARK                            x       y       z     vdW  Elec       q    Type
REMARK                         _______ _______ _______ _____ _____    ______ ____
ROOT
ATOM      1  C   UNL     1       0.372  10.452  20.381  0.00  0.00    +0.000 A 
ATOM      2  C   UNL     1       0.772  10.584  19.043  0.00  0.00    +0.000 A 
ATOM      3  C   UNL     1       1.500   9.571  18.406  0.00  0.00    +0.000 A 
ATOM      4  C   UNL     1       1.796   8.402  19.119  0.00  0.00    +0.000 A 
ATOM      5  N   UNL     1       2.413   7.261  18.695  0.00  0.00    +0.000 NA
ATOM      6  C   UNL     1       2.341   6.393  19.696  0.00  0.00    +0.000 A 
ATOM      7  N   UNL     1       1.824   7.021  20.809  0.00  0.00    +0.000 N 
ATOM      8  C   UNL     1       1.411   8.283  20.445  0.00  0.00    +0.000 A 
ATOM      9  C   UNL     1       0.724   9.298  21.118  0.00  0.00    +0.000 A 
ATOM     10  H   UNL     1       1.677   6.582  21.706  0.00  0.00    +0.000 HD
ENDROOT
BRANCH   1  16
ATOM     11  C   UNL     1      -2.584  14.442  23.673  0.00  0.00    +0.000 A 
ATOM     12  C   UNL     1      -3.486  14.458  22.600  0.00  0.00    +0.000 A 
ATOM     13  C   UNL     1      -3.263  13.689  21.448  0.00  0.00    +0.000 A 
ATOM     14  C   UNL     1      -2.108  12.903  21.441  0.00  0.00    +0.000 A 
ATOM     15  N   UNL     1      -1.583  12.028  20.523  0.00  0.00    +0.000 N 
ATOM     16  C   UNL     1      -0.424  11.484  21.042  0.00  0.00    +0.000 A 
ATOM     17  N   UNL     1      -0.189  11.984  22.241  0.00  0.00    +0.000 NA
ATOM     18  C   UNL     1      -1.211  12.859  22.497  0.00  0.00    +0.000 A 
ATOM     19  C   UNL     1      -1.436  13.641  23.636  0.00  0.00    +0.000 A 
ATOM     20  H   UNL     1      -2.001  11.777  19.639  0.00  0.00    +0.000 HD
BRANCH  11  22
ATOM     21  N   UNL     1      -4.024  15.788  25.054  0.00  0.00    +0.000 NA
ATOM     22  C   UNL     1      -2.853  15.268  24.883  0.00  0.00    +0.000 C 
ATOM     23  N   UNL     1      -1.863  15.483  25.800  0.00  0.00    +0.000 N 
ATOM     24  H   UNL     1      -4.053  16.277  25.950  0.00  0.00    +0.000 HD
ATOM     25  H   UNL     1      -1.988  16.280  26.410  0.00  0.00    +0.000 HD
ATOM     26  H   UNL     1      -0.914  15.427  25.443  0.00  0.00    +0.000 HD
ENDBRANCH  11  22
ENDBRANCH   1  16
BRANCH   6  27
ATOM     27  C   UNL     1       2.664   4.961  19.554  0.00  0.00    +0.000 A 
ATOM     28  C   UNL     1       1.560   4.079  19.629  0.00  0.00    +0.000 A 
ATOM     29  C   UNL     1       1.710   2.693  19.633  0.00  0.00    +0.000 A 
ATOM     30  C   UNL     1       2.981   2.148  19.613  0.00  0.00    +0.000 A 
ATOM     31  C   UNL     1       4.089   2.991  19.550  0.00  0.00    +0.000 A 
ATOM     32  C   UNL     1       3.946   4.393  19.437  0.00  0.00    +0.000 A 
BRANCH  32  33
ATOM     33  O   UNL     1       5.062   5.196  19.228  0.00  0.00    +0.000 OA
BRANCH  33  34
ATOM     34  C   UNL     1       5.597   5.220  17.946  0.00  0.00    +0.000 A 
ATOM     35  C   UNL     1       4.884   5.706  16.840  0.00  0.00    +0.000 A 
ATOM     36  C   UNL     1       5.411   5.592  15.551  0.00  0.00    +0.000 A 
ATOM     37  C   UNL     1       6.685   5.060  15.372  0.00  0.00    +0.000 A 
ATOM     38 CL   UNL     1       7.330   4.914  13.783  0.00  0.00    +0.000 Cl
ATOM     39  C   UNL     1       7.434   4.643  16.475  0.00  0.00    +0.000 A 
ATOM     40  C   UNL     1       6.889   4.721  17.763  0.00  0.00    +0.000 A 
ENDBRANCH  33  34
ENDBRANCH  32  33
ENDBRANCH   6  27
TORSDOF 5
ENDMDL
MODEL 3
REMARK VINA RESULT:     -10.0      1.099      1.806
REMARK  Name = 
REMARK  5 active torsions:
REMARK  status: ('A' for Active; 'I' for Inactive)
REMARK    1  A    between atoms: C_2  and  C_4
REMARK    2  A    between atoms: C_9  and  C_10
REMARK    3  A    between atoms: C_15  and  C_16
REMARK    4  A    between atoms: C_21  and  O_22
REMARK    5  A    between atoms: O_22  and  C_23
REMARK                            x       y       z     vdW  Elec       q    Type
REMARK                         _______ _______ _______ _____ _____    ______ ____
ROOT
ATOM      1  C   UNL     1       0.981  10.060  20.156  0.00  0.00    +0.000 A 
ATOM      2  C   UNL     1       1.295  10.216  18.798  0.00  0.00    +0.000 A 
ATOM      3  C   UNL     1       1.861   9.165  18.064  0.00  0.00    +0.000 A 
ATOM      4  C   UNL     1       2.078   7.937  18.703  0.00  0.00    +0.000 A 
ATOM      5  N   UNL     1       2.535   6.760  18.185  0.00  0.00    +0.000 NA
ATOM      6  C   UNL     1       2.441   5.855  19.151  0.00  0.00    +0.000 A 
ATOM      7  N   UNL     1       2.078   6.477  20.326  0.00  0.00    +0.000 N 
ATOM      8  C   UNL     1       1.779   7.793  20.048  0.00  0.00    +0.000 A 
ATOM      9  C   UNL     1       1.258   8.840  20.814  0.00  0.00    +0.000 A 
ATOM     10  H   UNL     1       1.948   6.013  21.213  0.00  0.00    +0.000 HD
ENDROOT
BRANCH   1  16
ATOM     11  C   UNL     1      -0.957  14.752  23.276  0.00  0.00    +0.000 A 
ATOM     12  C   UNL     1      -1.983  13.886  23.681  0.00  0.00    +0.000 A 
ATOM     13  C   UNL     1      -2.063  12.572  23.197  0.00  0.00    +0.000 A 
ATOM     14  C   UNL     1      -1.061  12.176  22.308  0.00  0.00    +0.000 A 
ATOM     15  N   UNL     1      -0.805  10.993  21.661  0.00  0.00    +0.000 N 
ATOM     16  C   UNL     1       0.352  11.136  20.919  0.00  0.00    +0.000 A 
ATOM     17  N   UNL     1       0.830  12.358  21.060  0.00  0.00    +0.000 NA
ATOM     18  C   UNL     1      -0.028  13.009  21.906  0.00  0.00    +0.000 A 
ATOM     19  C   UNL     1       0.035  14.322  22.384  0.00  0.00    +0.000 A 
ATOM     20  H   UNL     1      -1.337  10.141  21.754  0.00  0.00    +0.000 HD
BRANCH  11  22
ATOM     21  N   UNL     1       0.039  16.466  24.639  0.00  0.00    +0.000 NA
ATOM     22  C   UNL     1      -0.899  16.140  23.812  0.00  0.00    +0.000 C 
ATOM     23  N   UNL     1      -1.838  17.058  23.438  0.00  0.00    +0.000 N 
ATOM     24  H   UNL     1      -0.037  17.459  24.867  0.00  0.00    +0.000 HD
ATOM     25  H   UNL     1      -1.946  17.857  24.049  0.00  0.00    +0.000 HD
ATOM     26  H   UNL     1      -2.736  16.678  23.153  0.00  0.00    +0.000 HD
ENDBRANCH  11  22
ENDBRANCH   1  16
BRANCH   6  27
ATOM     27  C   UNL     1       2.595   4.406  18.924  0.00  0.00    +0.000 A 
ATOM     28  C   UNL     1       1.389   3.668  18.874  0.00  0.00    +0.000 A 
ATOM     29  C   UNL     1       1.368   2.277  18.786  0.00  0.00    +0.000 A 
ATOM     30  C   UNL     1       2.561   1.578  18.799  0.00  0.00    +0.000 A 
ATOM     31  C   UNL     1       3.765   2.276  18.859  0.00  0.00    +0.000 A 
ATOM     32  C   UNL     1       3.803   3.690  18.839  0.00  0.00    +0.000 A 
BRANCH  32  33
ATOM     33  O   UNL     1       5.020   4.356  18.752  0.00  0.00    +0.000 OA
BRANCH  33  34
ATOM     34  C   UNL     1       5.543   4.561  17.481  0.00  0.00    +0.000 A 
ATOM     35  C   UNL     1       4.756   4.501  16.322  0.00  0.00    +0.000 A 
ATOM     36  C   UNL     1       5.347   4.584  15.058  0.00  0.00    +0.000 A 
ATOM     37  C   UNL     1       6.718   4.802  14.952  0.00  0.00    +0.000 A 
ATOM     38 CL   UNL     1       7.445   4.897  13.394  0.00  0.00    +0.000 Cl
ATOM     39  C   UNL     1       7.500   4.937  16.102  0.00  0.00    +0.000 A 
ATOM     40  C   UNL     1       6.913   4.815  17.367  0.00  0.00    +0.000 A 
ENDBRANCH  33  34
ENDBRANCH  32  33
ENDBRANCH   6  27
TORSDOF 5
ENDMDL
MODEL 4
REMARK VINA RESULT:      -9.9      1.101      1.101
REMARK  Name = 
REMARK  5 active torsions:
REMARK  status: ('A' for Active; 'I' for Inactive)
REMARK    1  A    between atoms: C_2  and  C_4
REMARK    2  A    between atoms: C_9  and  C_10
REMARK    3  A    between atoms: C_15  and  C_16
REMARK    4  A    between atoms: C_21  and  O_22
REMARK    5  A    between atoms: O_22  and  C_23
REMARK                            x       y       z     vdW  Elec       q    Type
REMARK                         _______ _______ _______ _____ _____    ______ ____
ROOT
ATOM      1  C   UNL     1       0.291  10.192  20.215  0.00  0.00    +0.000 A 
ATOM      2  C   UNL     1       0.798  10.327  18.915  0.00  0.00    +0.000 A 
ATOM      3  C   UNL     1       1.616   9.337  18.355  0.00  0.00    +0.000 A 
ATOM      4  C   UNL     1       1.894   8.186  19.105  0.00  0.00    +0.000 A 
ATOM      5  N   UNL     1       2.588   7.067  18.750  0.00  0.00    +0.000 NA
ATOM      6  C   UNL     1       2.463   6.206  19.752  0.00  0.00    +0.000 A 
ATOM      7  N   UNL     1       1.829   6.823  20.809  0.00  0.00    +0.000 N 
ATOM      8  C   UNL     1       1.401   8.065  20.395  0.00  0.00    +0.000 A 
ATOM      9  C   UNL     1       0.622   9.060  20.994  0.00  0.00    +0.000 A 
ATOM     10  H   UNL     1       1.622   6.388  21.696  0.00  0.00    +0.000 HD
ENDROOT
BRANCH   1  16
ATOM     11  C   UNL     1      -3.541  13.798  23.011  0.00  0.00    +0.000 A 
ATOM     12  C   UNL     1      -3.493  14.545  21.825  0.00  0.00    +0.000 A 
ATOM     13  C   UNL     1      -2.667  14.166  20.757  0.00  0.00    +0.000 A 
ATOM     14  C   UNL     1      -1.915  13.002  20.937  0.00  0.00    +0.000 A 
ATOM     15  N   UNL     1      -1.035  12.326  20.127  0.00  0.00    +0.000 N 
ATOM     16  C   UNL     1      -0.597  11.198  20.793  0.00  0.00    +0.000 A 
ATOM     17  N   UNL     1      -1.152  11.137  21.989  0.00  0.00    +0.000 NA
ATOM     18  C   UNL     1      -1.959  12.238  22.093  0.00  0.00    +0.000 A 
ATOM     19  C   UNL     1      -2.776  12.634  23.159  0.00  0.00    +0.000 A 
ATOM     20  H   UNL     1      -0.791  12.578  19.181  0.00  0.00    +0.000 HD
BRANCH  11  22
ATOM     21  N   UNL     1      -5.575  13.647  24.287  0.00  0.00    +0.000 NA
ATOM     22  C   UNL     1      -4.431  14.227  24.125  0.00  0.00    +0.000 C 
ATOM     23  N   UNL     1      -4.044  15.234  24.963  0.00  0.00    +0.000 N 
ATOM     24  H   UNL     1      -6.033  14.023  25.119  0.00  0.00    +0.000 HD
ATOM     25  H   UNL     1      -4.784  15.691  25.479  0.00  0.00    +0.000 HD
ATOM     26  H   UNL     1      -3.388  15.904  24.571  0.00  0.00    +0.000 HD
ENDBRANCH  11  22
ENDBRANCH   1  16
BRANCH   6  27
ATOM     27  C   UNL     1       2.850   4.786  19.656  0.00  0.00    +0.000 A 
ATOM     28  C   UNL     1       1.819   3.855  19.923  0.00  0.00    +0.000 A 
ATOM     29  C   UNL     1       2.050   2.482  19.991  0.00  0.00    +0.000 A 
ATOM     30  C   UNL     1       3.339   2.003  19.843  0.00  0.00    +0.000 A 
ATOM     31  C   UNL     1       4.378   2.896  19.589  0.00  0.00    +0.000 A 
ATOM     32  C   UNL     1       4.139   4.278  19.411  0.00  0.00    +0.000 A 
BRANCH  32  33
ATOM     33  O   UNL     1       5.171   5.121  19.014  0.00  0.00    +0.000 OA
BRANCH  33  34
ATOM     34  C   UNL     1       5.675   4.951  17.730  0.00  0.00    +0.000 A 
ATOM     35  C   UNL     1       7.050   4.888  17.461  0.00  0.00    +0.000 A 
ATOM     36  C   UNL     1       7.513   4.847  16.143  0.00  0.00    +0.000 A 
ATOM     37  C   UNL     1       6.600   4.791  15.094  0.00  0.00    +0.000 A 
ATOM     38 CL   UNL     1       7.173   4.747  13.471  0.00  0.00    +0.000 Cl
ATOM     39  C   UNL     1       5.228   4.777  15.355  0.00  0.00    +0.000 A 
ATOM     40  C   UNL     1       4.764   4.859  16.674  0.00  0.00    +0.000 A 
ENDBRANCH  33  34
ENDBRANCH  32  33
ENDBRANCH   6  27
TORSDOF 5
ENDMDL
MODEL 5
REMARK VINA RESULT:      -9.9      4.122     10.861
REMARK  Name = 
REMARK  5 active torsions:
REMARK  status: ('A' for Active; 'I' for Inactive)
REMARK    1  A    between atoms: C_2  and  C_4
REMARK    2  A    between atoms: C_9  and  C_10
REMARK    3  A    between atoms: C_15  and  C_16
REMARK    4  A    between atoms: C_21  and  O_22
REMARK    5  A    between atoms: O_22  and  C_23
REMARK                            x       y       z     vdW  Elec       q    Type
REMARK                         _______ _______ _______ _____ _____    ______ ____
ROOT
ATOM      1  C   UNL     1       1.919   8.076  19.427  0.00  0.00    +0.000 A 
ATOM      2  C   UNL     1       1.487   7.757  20.722  0.00  0.00    +0.000 A 
ATOM      3  C   UNL     1       0.663   8.633  21.443  0.00  0.00    +0.000 A 
ATOM      4  C   UNL     1       0.247   9.824  20.833  0.00  0.00    +0.000 A 
ATOM      5  N   UNL     1      -0.607  10.781  21.295  0.00  0.00    +0.000 NA
ATOM      6  C   UNL     1      -0.787  11.644  20.304  0.00  0.00    +0.000 A 
ATOM      7  N   UNL     1       0.067  11.334  19.267  0.00  0.00    +0.000 N 
ATOM      8  C   UNL     1       0.689  10.140  19.558  0.00  0.00    +0.000 A 
ATOM      9  C   UNL     1       1.548   9.306  18.836  0.00  0.00    +0.000 A 
ATOM     10  H   UNL     1       0.135  11.844  18.399  0.00  0.00    +0.000 HD
ENDROOT
BRANCH   1  16
ATOM     11  C   UNL     1       5.397   4.841  15.831  0.00  0.00    +0.000 A 
ATOM     12  C   UNL     1       4.718   3.746  16.384  0.00  0.00    +0.000 A 
ATOM     13  C   UNL     1       3.747   3.917  17.381  0.00  0.00    +0.000 A 
ATOM     14  C   UNL     1       3.488   5.232  17.775  0.00  0.00    +0.000 A 
ATOM     15  N   UNL     1       2.614   5.777  18.683  0.00  0.00    +0.000 N 
ATOM     16  C   UNL     1       2.743   7.152  18.651  0.00  0.00    +0.000 A 
ATOM     17  N   UNL     1       3.665   7.498  17.773  0.00  0.00    +0.000 NA
ATOM     18  C   UNL     1       4.134   6.332  17.231  0.00  0.00    +0.000 A 
ATOM     19  C   UNL     1       5.112   6.148  16.246  0.00  0.00    +0.000 A 
ATOM     20  H   UNL     1       1.946   5.266  19.241  0.00  0.00    +0.000 HD
BRANCH  11  22
ATOM     21  N   UNL     1       7.448   5.405  14.707  0.00  0.00    +0.000 NA
ATOM     22  C   UNL     1       6.421   4.624  14.771  0.00  0.00    +0.000 C 
ATOM     23  N   UNL     1       6.266   3.613  13.865  0.00  0.00    +0.000 N 
ATOM     24  H   UNL     1       8.071   5.090  13.961  0.00  0.00    +0.000 HD
ATOM     25  H   UNL     1       6.792   3.702  13.006  0.00  0.00    +0.000 HD
ATOM     26  H   UNL     1       5.309   3.320  13.692  0.00  0.00    +0.000 HD
ENDBRANCH  11  22
ENDBRANCH   1  16
BRANCH   6  27
ATOM     27  C   UNL     1      -1.834  12.683  20.311  0.00  0.00    +0.000 A 
ATOM     28  C   UNL     1      -1.404  13.976  20.692  0.00  0.00    +0.000 A 
ATOM     29  C   UNL     1      -2.291  15.038  20.864  0.00  0.00    +0.000 A 
ATOM     30  C   UNL     1      -3.649  14.820  20.707  0.00  0.00    +0.000 A 
ATOM     31  C   UNL     1      -4.103  13.555  20.342  0.00  0.00    +0.000 A 
ATOM     32  C   UNL     1      -3.206  12.499  20.060  0.00  0.00    +0.000 A 
BRANCH  32  33
ATOM     33  O   UNL     1      -3.681  11.293  19.557  0.00  0.00    +0.000 OA
BRANCH  33  34
ATOM     34  C   UNL     1      -3.546  11.077  18.191  0.00  0.00    +0.000 A 
ATOM     35  C   UNL     1      -4.326  11.751  17.240  0.00  0.00    +0.000 A 
ATOM     36  C   UNL     1      -4.249  11.408  15.887  0.00  0.00    +0.000 A 
ATOM     37  C   UNL     1      -3.336  10.441  15.473  0.00  0.00    +0.000 A 
ATOM     38 CL   UNL     1      -3.247  10.016  13.808  0.00  0.00    +0.000 Cl
ATOM     39  C   UNL     1      -2.502   9.817  16.403  0.00  0.00    +0.000 A 
ATOM     40  C   UNL     1      -2.608  10.134  17.764  0.00  0.00    +0.000 A 
ENDBRANCH  33  34
ENDBRANCH  32  33
ENDBRANCH   6  27
TORSDOF 5
ENDMDL
MODEL 6
REMARK VINA RESULT:      -9.7      1.400      1.740
REMARK  Name = 
REMARK  5 active torsions:
REMARK  status: ('A' for Active; 'I' for Inactive)
REMARK    1  A    between atoms: C_2  and  C_4
REMARK    2  A    between atoms: C_9  and  C_10
REMARK    3  A    between atoms: C_15  and  C_16
REMARK    4  A    between atoms: C_21  and  O_22
REMARK    5  A    between atoms: O_22  and  C_23
REMARK                            x       y       z     vdW  Elec       q    Type
REMARK                         _______ _______ _______ _____ _____    ______ ____
ROOT
ATOM      1  C   UNL     1      -0.028  10.697  20.964  0.00  0.00    +0.000 A 
ATOM      2  C   UNL     1       0.343  10.901  19.627  0.00  0.00    +0.000 A 
ATOM      3  C   UNL     1       1.092   9.941  18.933  0.00  0.00    +0.000 A 
ATOM      4  C   UNL     1       1.437   8.751  19.588  0.00  0.00    +0.000 A 
ATOM      5  N   UNL     1       2.082   7.651  19.104  0.00  0.00    +0.000 NA
ATOM      6  C   UNL     1       2.055   6.738  20.066  0.00  0.00    +0.000 A 
ATOM      7  N   UNL     1       1.539   7.299  21.215  0.00  0.00    +0.000 N 
ATOM      8  C   UNL     1       1.079   8.562  20.914  0.00  0.00    +0.000 A 
ATOM      9  C   UNL     1       0.374   9.525  21.643  0.00  0.00    +0.000 A 
ATOM     10  H   UNL     1       1.421   6.817  22.094  0.00  0.00    +0.000 HD
ENDROOT
BRANCH   1  16
ATOM     11  C   UNL     1      -3.818  14.607  23.382  0.00  0.00    +0.000 A 
ATOM     12  C   UNL     1      -2.683  15.090  24.048  0.00  0.00    +0.000 A 
ATOM     13  C   UNL     1      -1.428  14.486  23.882  0.00  0.00    +0.000 A 
ATOM     14  C   UNL     1      -1.374  13.396  23.010  0.00  0.00    +0.000 A 
ATOM     15  N   UNL     1      -0.346  12.587  22.592  0.00  0.00    +0.000 N 
ATOM     16  C   UNL     1      -0.844  11.673  21.683  0.00  0.00    +0.000 A 
ATOM     17  N   UNL     1      -2.139  11.862  21.517  0.00  0.00    +0.000 NA
ATOM     18  C   UNL     1      -2.480  12.911  22.327  0.00  0.00    +0.000 A 
ATOM     19  C   UNL     1      -3.730  13.513  22.511  0.00  0.00    +0.000 A 
ATOM     20  H   UNL     1       0.623  12.679  22.857  0.00  0.00    +0.000 HD
BRANCH  11  22
ATOM     21  N   UNL     1      -6.119  14.987  22.789  0.00  0.00    +0.000 NA
ATOM     22  C   UNL     1      -5.136  15.273  23.577  0.00  0.00    +0.000 C 
ATOM     23  N   UNL     1      -5.299  16.189  24.578  0.00  0.00    +0.000 N 
ATOM     24  H   UNL     1      -6.956  15.490  23.090  0.00  0.00    +0.000 HD
ATOM     25  H   UNL     1      -6.077  16.826  24.474  0.00  0.00    +0.000 HD
ATOM     26  H   UNL     1      -4.455  16.670  24.875  0.00  0.00    +0.000 HD
ENDBRANCH  11  22
ENDBRANCH   1  16
BRANCH   6  27
ATOM     27  C   UNL     1       2.419   5.324  19.855  0.00  0.00    +0.000 A 
ATOM     28  C   UNL     1       1.366   4.394  20.016  0.00  0.00    +0.000 A 
ATOM     29  C   UNL     1       1.571   3.016  19.969  0.00  0.00    +0.000 A 
ATOM     30  C   UNL     1       2.855   2.527  19.809  0.00  0.00    +0.000 A 
ATOM     31  C   UNL     1       3.916   3.418  19.659  0.00  0.00    +0.000 A 
ATOM     32  C   UNL     1       3.705   4.815  19.597  0.00  0.00    +0.000 A 
BRANCH  32  33
ATOM     33  O   UNL     1       4.762   5.669  19.300  0.00  0.00    +0.000 OA
BRANCH  33  34
ATOM     34  C   UNL     1       5.332   5.560  18.037  0.00  0.00    +0.000 A 
ATOM     35  C   UNL     1       4.746   6.123  16.894  0.00  0.00    +0.000 A 
ATOM     36  C   UNL     1       5.285   5.879  15.628  0.00  0.00    +0.000 A 
ATOM     37  C   UNL     1       6.455   5.133  15.510  0.00  0.00    +0.000 A 
ATOM     38 CL   UNL     1       7.114   4.828  13.949  0.00  0.00    +0.000 Cl
ATOM     39  C   UNL     1       7.088   4.631  16.650  0.00  0.00    +0.000 A 
ATOM     40  C   UNL     1       6.525   4.844  17.915  0.00  0.00    +0.000 A 
ENDBRANCH  33  34
ENDBRANCH  32  33
ENDBRANCH   6  27
TORSDOF 5
ENDMDL
MODEL 7
REMARK VINA RESULT:      -9.6      1.531      1.797
REMARK  Name = 
REMARK  5 active torsions:
REMARK  status: ('A' for Active; 'I' for Inactive)
REMARK    1  A    between atoms: C_2  and  C_4
REMARK    2  A    between atoms: C_9  and  C_10
REMARK    3  A    between atoms: C_15  and  C_16
REMARK    4  A    between atoms: C_21  and  O_22
REMARK    5  A    between atoms: O_22  and  C_23
REMARK                            x       y       z     vdW  Elec       q    Type
REMARK                         _______ _______ _______ _____ _____    ______ ____
ROOT
ATOM      1  C   UNL     1       0.916   9.983  20.157  0.00  0.00    +0.000 A 
ATOM      2  C   UNL     1       1.028  10.151  18.769  0.00  0.00    +0.000 A 
ATOM      3  C   UNL     1       1.544   9.132  17.959  0.00  0.00    +0.000 A 
ATOM      4  C   UNL     1       1.919   7.920  18.556  0.00  0.00    +0.000 A 
ATOM      5  N   UNL     1       2.366   6.770  17.974  0.00  0.00    +0.000 NA
ATOM      6  C   UNL     1       2.460   5.865  18.939  0.00  0.00    +0.000 A 
ATOM      7  N   UNL     1       2.229   6.469  20.157  0.00  0.00    +0.000 N 
ATOM      8  C   UNL     1       1.820   7.765  19.929  0.00  0.00    +0.000 A 
ATOM      9  C   UNL     1       1.352   8.783  20.765  0.00  0.00    +0.000 A 
ATOM     10  H   UNL     1       2.252   6.002  21.051  0.00  0.00    +0.000 HD
ENDROOT
BRANCH   1  16
ATOM     11  C   UNL     1      -2.011  13.835  23.634  0.00  0.00    +0.000 A 
ATOM     12  C   UNL     1      -1.095  14.772  23.135  0.00  0.00    +0.000 A 
ATOM     13  C   UNL     1      -0.077  14.396  22.246  0.00  0.00    +0.000 A 
ATOM     14  C   UNL     1      -0.041  13.049  21.878  0.00  0.00    +0.000 A 
ATOM     15  N   UNL     1       0.773  12.335  21.035  0.00  0.00    +0.000 N 
ATOM     16  C   UNL     1       0.340  11.023  21.005  0.00  0.00    +0.000 A 
ATOM     17  N   UNL     1      -0.704  10.876  21.799  0.00  0.00    +0.000 NA
ATOM     18  C   UNL     1      -0.948  12.108  22.345  0.00  0.00    +0.000 A 
ATOM     19  C   UNL     1      -1.950  12.492  23.242  0.00  0.00    +0.000 A 
ATOM     20  H   UNL     1       1.528  12.713  20.482  0.00  0.00    +0.000 HD
BRANCH  11  22
ATOM     21  N   UNL     1      -2.897  15.311  25.315  0.00  0.00    +0.000 NA
ATOM     22  C   UNL     1      -3.082  14.269  24.574  0.00  0.00    +0.000 C 
ATOM     23  N   UNL     1      -4.247  13.561  24.658  0.00  0.00    +0.000 N 
ATOM     24  H   UNL     1      -3.741  15.497  25.860  0.00  0.00    +0.000 HD
ATOM     25  H   UNL     1      -4.787  13.694  25.503  0.00  0.00    +0.000 HD
ATOM     26  H   UNL     1      -4.186  12.580  24.401  0.00  0.00    +0.000 HD
ENDBRANCH  11  22
ENDBRANCH   1  16
BRANCH   6  27
ATOM     27  C   UNL     1       2.663   4.426  18.688  0.00  0.00    +0.000 A 
ATOM     28  C   UNL     1       1.934   3.553  19.529  0.00  0.00    +0.000 A 
ATOM     29  C   UNL     1       2.105   2.170  19.499  0.00  0.00    +0.000 A 
ATOM     30  C   UNL     1       3.055   1.622  18.656  0.00  0.00    +0.000 A 
ATOM     31  C   UNL     1       3.797   2.457  17.822  0.00  0.00    +0.000 A 
ATOM     32  C   UNL     1       3.556   3.849  17.766  0.00  0.00    +0.000 A 
BRANCH  32  33
ATOM     33  O   UNL     1       4.208   4.634  16.822  0.00  0.00    +0.000 OA
BRANCH  33  34
ATOM     34  C   UNL     1       5.322   5.348  17.246  0.00  0.00    +0.000 A 
ATOM     35  C   UNL     1       6.205   4.859  18.220  0.00  0.00    +0.000 A 
ATOM     36  C   UNL     1       7.237   5.664  18.709  0.00  0.00    +0.000 A 
ATOM     37  C   UNL     1       7.435   6.933  18.172  0.00  0.00    +0.000 A 
ATOM     38 CL   UNL     1       8.703   7.926  18.780  0.00  0.00    +0.000 Cl
ATOM     39  C   UNL     1       6.607   7.400  17.148  0.00  0.00    +0.000 A 
ATOM     40  C   UNL     1       5.548   6.608  16.686  0.00  0.00    +0.000 A 
ENDBRANCH  33  34
ENDBRANCH  32  33
ENDBRANCH   6  27
TORSDOF 5
ENDMDL
MODEL 8
REMARK VINA RESULT:      -9.5      2.842      4.576
REMARK  Name = 
REMARK  5 active torsions:
REMARK  status: ('A' for Active; 'I' for Inactive)
REMARK    1  A    between atoms: C_2  and  C_4
REMARK    2  A    between atoms: C_9  and  C_10
REMARK    3  A    between atoms: C_15  and  C_16
REMARK    4  A    between atoms: C_21  and  O_22
REMARK    5  A    between atoms: O_22  and  C_23
REMARK                            x       y       z     vdW  Elec       q    Type
REMARK                         _______ _______ _______ _____ _____    ______ ____
ROOT
ATOM      1  C   UNL     1       0.868   9.784  19.733  0.00  0.00    +0.000 A 
ATOM      2  C   UNL     1       0.924   8.892  20.814  0.00  0.00    +0.000 A 
ATOM      3  C   UNL     1       1.619   7.680  20.712  0.00  0.00    +0.000 A 
ATOM      4  C   UNL     1       2.290   7.385  19.518  0.00  0.00    +0.000 A 
ATOM      5  N   UNL     1       3.088   6.322  19.213  0.00  0.00    +0.000 NA
ATOM      6  C   UNL     1       3.596   6.558  18.010  0.00  0.00    +0.000 A 
ATOM      7  N   UNL     1       3.007   7.685  17.478  0.00  0.00    +0.000 N 
ATOM      8  C   UNL     1       2.219   8.264  18.448  0.00  0.00    +0.000 A 
ATOM      9  C   UNL     1       1.493   9.457  18.508  0.00  0.00    +0.000 A 
ATOM     10  H   UNL     1       3.212   8.073  16.569  0.00  0.00    +0.000 HD
ENDROOT
BRANCH   1  16
ATOM     11  C   UNL     1      -1.308  15.320  20.083  0.00  0.00    +0.000 A 
ATOM     12  C   UNL     1      -2.362  14.715  20.783  0.00  0.00    +0.000 A 
ATOM     13  C   UNL     1      -2.405  13.328  20.983  0.00  0.00    +0.000 A 
ATOM     14  C   UNL     1      -1.336  12.593  20.463  0.00  0.00    +0.000 A 
ATOM     15  N   UNL     1      -1.030  11.255  20.481  0.00  0.00    +0.000 N 
ATOM     16  C   UNL     1       0.181  11.069  19.842  0.00  0.00    +0.000 A 
ATOM     17  N   UNL     1       0.647  12.227  19.414  0.00  0.00    +0.000 NA
ATOM     18  C   UNL     1      -0.274  13.171  19.783  0.00  0.00    +0.000 A 
ATOM     19  C   UNL     1      -0.250  14.554  19.576  0.00  0.00    +0.000 A 
ATOM     20  H   UNL     1      -1.568  10.531  20.934  0.00  0.00    +0.000 HD
BRANCH  11  22
ATOM     21  N   UNL     1      -1.962  17.321  18.918  0.00  0.00    +0.000 NA
ATOM     22  C   UNL     1      -1.292  16.796  19.891  0.00  0.00    +0.000 C 
ATOM     23  N   UNL     1      -0.563  17.589  20.732  0.00  0.00    +0.000 N 
ATOM     24  H   UNL     1      -1.885  18.338  18.960  0.00  0.00    +0.000 HD
ATOM     25  H   UNL     1      -0.330  18.509  20.383  0.00  0.00    +0.000 HD
ATOM     26  H   UNL     1       0.232  17.142  21.178  0.00  0.00    +0.000 HD
ENDBRANCH  11  22
ENDBRANCH   1  16
BRANCH   6  27
ATOM     27  C   UNL     1       4.703   5.776  17.428  0.00  0.00    +0.000 A 
ATOM     28  C   UNL     1       5.985   6.365  17.535  0.00  0.00    +0.000 A 
ATOM     29  C   UNL     1       7.114   5.812  16.932  0.00  0.00    +0.000 A 
ATOM     30  C   UNL     1       6.981   4.674  16.157  0.00  0.00    +0.000 A 
ATOM     31  C   UNL     1       5.729   4.077  16.023  0.00  0.00    +0.000 A 
ATOM     32  C   UNL     1       4.598   4.567  16.717  0.00  0.00    +0.000 A 
BRANCH  32  33
ATOM     33  O   UNL     1       3.398   3.865  16.682  0.00  0.00    +0.000 OA
BRANCH  33  34
ATOM     34  C   UNL     1       2.876   3.435  17.895  0.00  0.00    +0.000 A 
ATOM     35  C   UNL     1       1.513   3.540  18.211  0.00  0.00    +0.000 A 
ATOM     36  C   UNL     1       1.054   3.215  19.490  0.00  0.00    +0.000 A 
ATOM     37  C   UNL     1       1.945   2.712  20.434  0.00  0.00    +0.000 A 
ATOM     38 CL   UNL     1       1.379   2.319  22.011  0.00  0.00    +0.000 Cl
ATOM     39  C   UNL     1       3.291   2.532  20.106  0.00  0.00    +0.000 A 
ATOM     40  C   UNL     1       3.758   2.895  18.836  0.00  0.00    +0.000 A 
ENDBRANCH  33  34
ENDBRANCH  32  33
ENDBRANCH   6  27
TORSDOF 5
ENDMDL
MODEL 9
REMARK VINA RESULT:      -9.5      1.490      1.706
REMARK  Name = 
REMARK  5 active torsions:
REMARK  status: ('A' for Active; 'I' for Inactive)
REMARK    1  A    between atoms: C_2  and  C_4
REMARK    2  A    between atoms: C_9  and  C_10
REMARK    3  A    between atoms: C_15  and  C_16
REMARK    4  A    between atoms: C_21  and  O_22
REMARK    5  A    between atoms: O_22  and  C_23
REMARK                            x       y       z     vdW  Elec       q    Type
REMARK                         _______ _______ _______ _____ _____    ______ ____
ROOT
ATOM      1  C   UNL     1       0.357  10.484  20.202  0.00  0.00    +0.000 A 
ATOM      2  C   UNL     1       0.730  10.549  18.851  0.00  0.00    +0.000 A 
ATOM      3  C   UNL     1       1.456   9.510  18.254  0.00  0.00    +0.000 A 
ATOM      4  C   UNL     1       1.777   8.383  19.022  0.00  0.00    +0.000 A 
ATOM      5  N   UNL     1       2.397   7.227  18.646  0.00  0.00    +0.000 NA
ATOM      6  C   UNL     1       2.352   6.412  19.692  0.00  0.00    +0.000 A 
ATOM      7  N   UNL     1       1.850   7.093  20.781  0.00  0.00    +0.000 N 
ATOM      8  C   UNL     1       1.418   8.331  20.360  0.00  0.00    +0.000 A 
ATOM      9  C   UNL     1       0.735   9.374  20.992  0.00  0.00    +0.000 A 
ATOM     10  H   UNL     1       1.725   6.701  21.703  0.00  0.00    +0.000 HD
ENDROOT
BRANCH   1  16
ATOM     11  C   UNL     1      -2.964  15.056  22.094  0.00  0.00    +0.000 A 
ATOM     12  C   UNL     1      -2.331  14.829  23.325  0.00  0.00    +0.000 A 
ATOM     13  C   UNL     1      -1.414  13.781  23.492  0.00  0.00    +0.000 A 
ATOM     14  C   UNL     1      -1.158  12.994  22.366  0.00  0.00    +0.000 A 
ATOM     15  N   UNL     1      -0.328  11.923  22.147  0.00  0.00    +0.000 N 
ATOM     16  C   UNL     1      -0.436  11.543  20.823  0.00  0.00    +0.000 A 
ATOM     17  N   UNL     1      -1.304  12.318  20.201  0.00  0.00    +0.000 NA
ATOM     18  C   UNL     1      -1.759  13.210  21.134  0.00  0.00    +0.000 A 
ATOM     19  C   UNL     1      -2.683  14.250  20.983  0.00  0.00    +0.000 A 
ATOM     20  H   UNL     1       0.301  11.516  22.823  0.00  0.00    +0.000 HD
BRANCH  11  22
ATOM     21  N   UNL     1      -4.349  16.800  23.002  0.00  0.00    +0.000 NA
ATOM     22  C   UNL     1      -3.930  16.179  21.949  0.00  0.00    +0.000 C 
ATOM     23  N   UNL     1      -4.378  16.542  20.711  0.00  0.00    +0.000 N 
ATOM     24  H   UNL     1      -4.962  17.569  22.724  0.00  0.00    +0.000 HD
ATOM     25  H   UNL     1      -5.241  17.069  20.688  0.00  0.00    +0.000 HD
ATOM     26  H   UNL     1      -4.366  15.810  20.006  0.00  0.00    +0.000 HD
ENDBRANCH  11  22
ENDBRANCH   1  16
BRANCH   6  27
ATOM     27  C   UNL     1       2.686   4.978  19.620  0.00  0.00    +0.000 A 
ATOM     28  C   UNL     1       1.598   4.091  19.800  0.00  0.00    +0.000 A 
ATOM     29  C   UNL     1       1.766   2.709  19.878  0.00  0.00    +0.000 A 
ATOM     30  C   UNL     1       3.042   2.176  19.830  0.00  0.00    +0.000 A 
ATOM     31  C   UNL     1       4.134   3.025  19.663  0.00  0.00    +0.000 A 
ATOM     32  C   UNL     1       3.968   4.417  19.474  0.00  0.00    +0.000 A 
BRANCH  32  33
ATOM     33  O   UNL     1       5.062   5.216  19.164  0.00  0.00    +0.000 OA
BRANCH  33  34
ATOM     34  C   UNL     1       5.610   5.080  17.895  0.00  0.00    +0.000 A 
ATOM     35  C   UNL     1       6.910   4.598  17.681  0.00  0.00    +0.000 A 
ATOM     36  C   UNL     1       7.466   4.601  16.399  0.00  0.00    +0.000 A 
ATOM     37  C   UNL     1       6.697   5.016  15.316  0.00  0.00    +0.000 A 
ATOM     38 CL   UNL     1       7.386   5.025  13.738  0.00  0.00    +0.000 Cl
ATOM     39  C   UNL     1       5.375   5.427  15.508  0.00  0.00    +0.000 A 
ATOM     40  C   UNL     1       4.832   5.461  16.798  0.00  0.00    +0.000 A 
ENDBRANCH  33  34
ENDBRANCH  32  33
ENDBRANCH   6  27
TORSDOF 5
ENDMDL
