MODEL 1
REMARK VINA RESULT:      -6.4      0.000      0.000
REMARK  Name = 
REMARK  6 active torsions:
REMARK  status: ('A' for Active; 'I' for Inactive)
REMARK    1  A    between atoms: O5*_1  and  C5*_2
REMARK    2  A    between atoms: C5*_2  and  C4*_3
REMARK    3  A    between atoms: C1*_5  and  N_6
REMARK    4  A    between atoms: C_10  and  SE_11
REMARK    5  A    between atoms: C2*_16  and  O2*_17
REMARK    6  A    between atoms: C3*_18  and  O3*_19
REMARK                            x       y       z     vdW  Elec       q    Type
REMARK                         _______ _______ _______ _____ _____    ______ ____
ROOT
ATOM      1  C4* UNL     1       5.736   5.244  15.199  0.00  0.00    +0.000 C 
ATOM      2  O4* UNL     1       4.764   5.189  16.238  0.00  0.00    +0.000 OA
ATOM      3  C1* UNL     1       5.465   5.152  17.462  0.00  0.00    +0.000 C 
ATOM      4  C2* UNL     1       6.803   4.486  17.168  0.00  0.00    +0.000 C 
ATOM      5  C3* UNL     1       7.147   5.062  15.816  0.00  0.00    +0.000 C 
ENDROOT
BRANCH   3   6
ATOM      6  N   UNL     1       4.714   4.379  18.456  0.00  0.00    +0.000 N 
ATOM      7  N   UNL     1       4.981   3.116  18.771  0.00  0.00    +0.000 NA
ATOM      8  C   UNL     1       4.096   2.708  19.715  0.00  0.00    +0.000 A 
ATOM      9  C   UNL     1       3.244   3.760  19.990  0.00  0.00    +0.000 A 
ATOM     10  C   UNL     1       2.155   3.944  20.843  0.00  0.00    +0.000 A 
ATOM     11  N   UNL     1       1.547   5.167  20.820  0.00  0.00    +0.000 NA
ATOM     12  C   UNL     1       1.983   6.177  20.003  0.00  0.00    +0.000 A 
ATOM     13  N   UNL     1       3.053   5.986  19.175  0.00  0.00    +0.000 NA
ATOM     14  C   UNL     1       3.661   4.777  19.190  0.00  0.00    +0.000 A 
BRANCH  10  15
ATOM     15 SE   UNL     1       1.463   2.582  22.020  0.00  0.00    +0.000 Se
ATOM     16  H   UNL     1       0.268   3.387  22.534  0.00  0.00    +0.000 HD
ENDBRANCH  10  15
ENDBRANCH   3   6
BRANCH   4  17
ATOM     17  O2* UNL     1       7.788   4.688  18.156  0.00  0.00    +0.000 OA
ATOM     18  H2* UNL     1       8.651   4.881  17.697  0.00  0.00    +0.000 HD
ENDBRANCH   4  17
BRANCH   5  19
ATOM     19  O3* UNL     1       7.816   6.295  15.930  0.00  0.00    +0.000 OA
ATOM     20  H3* UNL     1       8.284   6.501  15.082  0.00  0.00    +0.000 HD
ENDBRANCH   5  19
BRANCH   1  21
ATOM     21  C5* UNL     1       5.388   4.226  14.105  0.00  0.00    +0.000 C 
BRANCH  21  22
ATOM     22  O5* UNL     1       6.495   3.440  13.763  0.00  0.00    +0.000 OA
ATOM     23  H5* UNL     1       7.291   3.988  13.997  0.00  0.00    +0.000 HD
ENDBRANCH  21  22
ENDBRANCH   1  21
TORSDOF 6
ENDMDL
MODEL 2
REMARK VINA RESULT:      -6.1      1.188      1.233
REMARK  Name = 
REMARK  6 active torsions:
REMARK  status: ('A' for Active; 'I' for Inactive)
REMARK    1  A    between atoms: O5*_1  and  C5*_2
REMARK    2  A    between atoms: C5*_2  and  C4*_3
REMARK    3  A    between atoms: C1*_5  and  N_6
REMARK    4  A    between atoms: C_10  and  SE_11
REMARK    5  A    between atoms: C2*_16  and  O2*_17
REMARK    6  A    between atoms: C3*_18  and  O3*_19
REMARK                            x       y       z     vdW  Elec       q    Type
REMARK                         _______ _______ _______ _____ _____    ______ ____
ROOT
ATOM      1  C4* UNL     1       5.811   4.607  13.974  0.00  0.00    +0.000 C 
ATOM      2  O4* UNL     1       4.773   4.707  14.944  0.00  0.00    +0.000 OA
ATOM      3  C1* UNL     1       5.393   4.800  16.208  0.00  0.00    +0.000 C 
ATOM      4  C2* UNL     1       6.723   4.065  16.086  0.00  0.00    +0.000 C 
ATOM      5  C3* UNL     1       7.172   4.462  14.701  0.00  0.00    +0.000 C 
ENDROOT
BRANCH   3   6
ATOM      6  N   UNL     1       4.553   4.174  17.234  0.00  0.00    +0.000 N 
ATOM      7  N   UNL     1       4.410   2.861  17.379  0.00  0.00    +0.000 NA
ATOM      8  C   UNL     1       3.563   2.628  18.413  0.00  0.00    +0.000 A 
ATOM      9  C   UNL     1       3.164   3.847  18.926  0.00  0.00    +0.000 A 
ATOM     10  C   UNL     1       2.320   4.247  19.962  0.00  0.00    +0.000 A 
ATOM     11  N   UNL     1       2.169   5.590  20.159  0.00  0.00    +0.000 NA
ATOM     12  C   UNL     1       2.818   6.513  19.381  0.00  0.00    +0.000 A 
ATOM     13  N   UNL     1       3.646   6.109  18.371  0.00  0.00    +0.000 NA
ATOM     14  C   UNL     1       3.800   4.780  18.168  0.00  0.00    +0.000 A 
BRANCH  10  15
ATOM     15 SE   UNL     1       1.357   3.025  21.102  0.00  0.00    +0.000 Se
ATOM     16  H   UNL     1       1.947   1.740  20.520  0.00  0.00    +0.000 HD
ENDBRANCH  10  15
ENDBRANCH   3   6
BRANCH   4  17
ATOM     17  O2* UNL     1       7.650   4.357  17.107  0.00  0.00    +0.000 OA
ATOM     18  H2* UNL     1       8.492   4.672  16.678  0.00  0.00    +0.000 HD
ENDBRANCH   4  17
BRANCH   5  19
ATOM     19  O3* UNL     1       7.877   5.680  14.712  0.00  0.00    +0.000 OA
ATOM     20  H3* UNL     1       8.800   5.535  14.383  0.00  0.00    +0.000 HD
ENDBRANCH   5  19
BRANCH   1  21
ATOM     21  C5* UNL     1       5.496   3.473  12.988  0.00  0.00    +0.000 C 
BRANCH  21  22
ATOM     22  O5* UNL     1       6.651   3.024  12.337  0.00  0.00    +0.000 OA
ATOM     23  H5* UNL     1       6.663   2.039  12.468  0.00  0.00    +0.000 HD
ENDBRANCH  21  22
ENDBRANCH   1  21
TORSDOF 6
ENDMDL
MODEL 3
REMARK VINA RESULT:      -6.1      3.810      6.154
REMARK  Name = 
REMARK  6 active torsions:
REMARK  status: ('A' for Active; 'I' for Inactive)
REMARK    1  A    between atoms: O5*_1  and  C5*_2
REMARK    2  A    between atoms: C5*_2  and  C4*_3
REMARK    3  A    between atoms: C1*_5  and  N_6
REMARK    4  A    between atoms: C_10  and  SE_11
REMARK    5  A    between atoms: C2*_16  and  O2*_17
REMARK    6  A    between atoms: C3*_18  and  O3*_19
REMARK                            x       y       z     vdW  Elec       q    Type
REMARK                         _______ _______ _______ _____ _____    ______ ____
ROOT
ATOM      1  C4* UNL     1       2.311   4.396  20.964  0.00  0.00    +0.000 C 
ATOM      2  O4* UNL     1       3.468   4.189  20.160  0.00  0.00    +0.000 OA
ATOM      3  C1* UNL     1       3.626   5.336  19.355  0.00  0.00    +0.000 C 
ATOM      4  C2* UNL     1       2.229   5.911  19.151  0.00  0.00    +0.000 C 
ATOM      5  C3* UNL     1       1.604   5.698  20.508  0.00  0.00    +0.000 C 
ENDROOT
BRANCH   3   6
ATOM      6  N   UNL     1       4.227   4.976  18.067  0.00  0.00    +0.000 N 
ATOM      7  N   UNL     1       3.727   4.059  17.245  0.00  0.00    +0.000 NA
ATOM      8  C   UNL     1       4.528   3.972  16.153  0.00  0.00    +0.000 A 
ATOM      9  C   UNL     1       5.567   4.869  16.309  0.00  0.00    +0.000 A 
ATOM     10  C   UNL     1       6.679   5.225  15.546  0.00  0.00    +0.000 A 
ATOM     11  N   UNL     1       7.508   6.181  16.062  0.00  0.00    +0.000 NA
ATOM     12  C   UNL     1       7.264   6.773  17.273  0.00  0.00    +0.000 A 
ATOM     13  N   UNL     1       6.169   6.419  18.010  0.00  0.00    +0.000 NA
ATOM     14  C   UNL     1       5.343   5.472  17.507  0.00  0.00    +0.000 A 
BRANCH  10  15
ATOM     15 SE   UNL     1       7.112   4.443  13.837  0.00  0.00    +0.000 Se
ATOM     16  H   UNL     1       8.195   5.452  13.452  0.00  0.00    +0.000 HD
ENDBRANCH  10  15
ENDBRANCH   3   6
BRANCH   4  17
ATOM     17  O2* UNL     1       2.204   7.245  18.698  0.00  0.00    +0.000 OA
ATOM     18  H2* UNL     1       2.919   7.352  18.013  0.00  0.00    +0.000 HD
ENDBRANCH   4  17
BRANCH   5  19
ATOM     19  O3* UNL     1       1.885   6.764  21.383  0.00  0.00    +0.000 OA
ATOM     20  H3* UNL     1       1.891   7.617  20.878  0.00  0.00    +0.000 HD
ENDBRANCH   5  19
BRANCH   1  21
ATOM     21  C5* UNL     1       1.421   3.146  20.928  0.00  0.00    +0.000 C 
BRANCH  21  22
ATOM     22  O5* UNL     1       1.423   2.479  22.159  0.00  0.00    +0.000 OA
ATOM     23  H5* UNL     1       0.482   2.510  22.479  0.00  0.00    +0.000 HD
ENDBRANCH  21  22
ENDBRANCH   1  21
TORSDOF 6
ENDMDL
MODEL 4
REMARK VINA RESULT:      -6.0      1.234      1.249
REMARK  Name = 
REMARK  6 active torsions:
REMARK  status: ('A' for Active; 'I' for Inactive)
REMARK    1  A    between atoms: O5*_1  and  C5*_2
REMARK    2  A    between atoms: C5*_2  and  C4*_3
REMARK    3  A    between atoms: C1*_5  and  N_6
REMARK    4  A    between atoms: C_10  and  SE_11
REMARK    5  A    between atoms: C2*_16  and  O2*_17
REMARK    6  A    between atoms: C3*_18  and  O3*_19
REMARK                            x       y       z     vdW  Elec       q    Type
REMARK                         _______ _______ _______ _____ _____    ______ ____
ROOT
ATOM      1  C4* UNL     1       5.731   4.781  14.616  0.00  0.00    +0.000 C 
ATOM      2  O4* UNL     1       4.857   4.917  15.731  0.00  0.00    +0.000 OA
ATOM      3  C1* UNL     1       5.666   5.019  16.884  0.00  0.00    +0.000 C 
ATOM      4  C2* UNL     1       6.949   4.257  16.573  0.00  0.00    +0.000 C 
ATOM      5  C3* UNL     1       7.186   4.622  15.128  0.00  0.00    +0.000 C 
ENDROOT
BRANCH   3   6
ATOM      6  N   UNL     1       4.984   4.426  18.038  0.00  0.00    +0.000 N 
ATOM      7  N   UNL     1       5.612   3.918  19.092  0.00  0.00    +0.000 NA
ATOM      8  C   UNL     1       4.686   3.452  19.967  0.00  0.00    +0.000 A 
ATOM      9  C   UNL     1       3.433   3.678  19.430  0.00  0.00    +0.000 A 
ATOM     10  C   UNL     1       2.127   3.423  19.845  0.00  0.00    +0.000 A 
ATOM     11  N   UNL     1       1.121   3.800  19.000  0.00  0.00    +0.000 NA
ATOM     12  C   UNL     1       1.374   4.408  17.799  0.00  0.00    +0.000 A 
ATOM     13  N   UNL     1       2.659   4.656  17.404  0.00  0.00    +0.000 NA
ATOM     14  C   UNL     1       3.662   4.284  18.234  0.00  0.00    +0.000 A 
BRANCH  10  15
ATOM     15 SE   UNL     1       1.671   2.566  21.511  0.00  0.00    +0.000 Se
ATOM     16  H   UNL     1       1.782   3.815  22.386  0.00  0.00    +0.000 HD
ENDBRANCH  10  15
ENDBRANCH   3   6
BRANCH   4  17
ATOM     17  O2* UNL     1       8.026   4.548  17.433  0.00  0.00    +0.000 OA
ATOM     18  H2* UNL     1       8.862   4.223  17.001  0.00  0.00    +0.000 HD
ENDBRANCH   4  17
BRANCH   5  19
ATOM     19  O3* UNL     1       7.904   5.827  15.007  0.00  0.00    +0.000 OA
ATOM     20  H3* UNL     1       8.875   5.643  15.064  0.00  0.00    +0.000 HD
ENDBRANCH   5  19
BRANCH   1  21
ATOM     21  C5* UNL     1       5.250   3.638  13.712  0.00  0.00    +0.000 C 
BRANCH  21  22
ATOM     22  O5* UNL     1       6.287   3.146  12.911  0.00  0.00    +0.000 OA
ATOM     23  H5* UNL     1       6.959   3.877  12.867  0.00  0.00    +0.000 HD
ENDBRANCH  21  22
ENDBRANCH   1  21
TORSDOF 6
ENDMDL
MODEL 5
REMARK VINA RESULT:      -6.0      1.171      2.030
REMARK  Name = 
REMARK  6 active torsions:
REMARK  status: ('A' for Active; 'I' for Inactive)
REMARK    1  A    between atoms: O5*_1  and  C5*_2
REMARK    2  A    between atoms: C5*_2  and  C4*_3
REMARK    3  A    between atoms: C1*_5  and  N_6
REMARK    4  A    between atoms: C_10  and  SE_11
REMARK    5  A    between atoms: C2*_16  and  O2*_17
REMARK    6  A    between atoms: C3*_18  and  O3*_19
REMARK                            x       y       z     vdW  Elec       q    Type
REMARK                         _______ _______ _______ _____ _____    ______ ____
ROOT
ATOM      1  C4* UNL     1       5.744   5.038  14.812  0.00  0.00    +0.000 C 
ATOM      2  O4* UNL     1       4.750   5.376  15.774  0.00  0.00    +0.000 OA
ATOM      3  C1* UNL     1       5.407   5.545  17.011  0.00  0.00    +0.000 C 
ATOM      4  C2* UNL     1       6.639   4.648  16.965  0.00  0.00    +0.000 C 
ATOM      5  C3* UNL     1       7.097   4.819  15.537  0.00  0.00    +0.000 C 
ENDROOT
BRANCH   3   6
ATOM      6  N   UNL     1       4.526   5.151  18.114  0.00  0.00    +0.000 N 
ATOM      7  N   UNL     1       4.180   5.957  19.113  0.00  0.00    +0.000 NA
ATOM      8  C   UNL     1       3.365   5.276  19.958  0.00  0.00    +0.000 A 
ATOM      9  C   UNL     1       3.204   3.996  19.463  0.00  0.00    +0.000 A 
ATOM     10  C   UNL     1       2.506   2.863  19.879  0.00  0.00    +0.000 A 
ATOM     11  N   UNL     1       2.606   1.747  19.098  0.00  0.00    +0.000 NA
ATOM     12  C   UNL     1       3.355   1.733  17.950  0.00  0.00    +0.000 A 
ATOM     13  N   UNL     1       4.033   2.850  17.550  0.00  0.00    +0.000 NA
ATOM     14  C   UNL     1       3.939   3.960  18.319  0.00  0.00    +0.000 A 
BRANCH  10  15
ATOM     15 SE   UNL     1       1.435   2.784  21.482  0.00  0.00    +0.000 Se
ATOM     16  H   UNL     1       0.636   1.538  21.096  0.00  0.00    +0.000 HD
ENDBRANCH  10  15
ENDBRANCH   3   6
BRANCH   4  17
ATOM     17  O2* UNL     1       7.619   4.947  17.933  0.00  0.00    +0.000 OA
ATOM     18  H2* UNL     1       7.226   5.595  18.578  0.00  0.00    +0.000 HD
ENDBRANCH   4  17
BRANCH   5  19
ATOM     19  O3* UNL     1       7.939   5.938  15.392  0.00  0.00    +0.000 OA
ATOM     20  H3* UNL     1       8.483   6.054  16.212  0.00  0.00    +0.000 HD
ENDBRANCH   5  19
BRANCH   1  21
ATOM     21  C5* UNL     1       5.273   3.841  13.975  0.00  0.00    +0.000 C 
BRANCH  21  22
ATOM     22  O5* UNL     1       6.339   3.240  13.295  0.00  0.00    +0.000 OA
ATOM     23  H5* UNL     1       5.942   2.471  12.806  0.00  0.00    +0.000 HD
ENDBRANCH  21  22
ENDBRANCH   1  21
TORSDOF 6
ENDMDL
MODEL 6
REMARK VINA RESULT:      -6.0      3.753      5.848
REMARK  Name = 
REMARK  6 active torsions:
REMARK  status: ('A' for Active; 'I' for Inactive)
REMARK    1  A    between atoms: O5*_1  and  C5*_2
REMARK    2  A    between atoms: C5*_2  and  C4*_3
REMARK    3  A    between atoms: C1*_5  and  N_6
REMARK    4  A    between atoms: C_10  and  SE_11
REMARK    5  A    between atoms: C2*_16  and  O2*_17
REMARK    6  A    between atoms: C3*_18  and  O3*_19
REMARK                            x       y       z     vdW  Elec       q    Type
REMARK                         _______ _______ _______ _____ _____    ______ ____
ROOT
ATOM      1  C4* UNL     1       2.116   3.329  20.297  0.00  0.00    +0.000 C 
ATOM      2  O4* UNL     1       3.278   3.069  19.517  0.00  0.00    +0.000 OA
ATOM      3  C1* UNL     1       3.853   4.318  19.198  0.00  0.00    +0.000 C 
ATOM      4  C2* UNL     1       2.706   5.321  19.168  0.00  0.00    +0.000 C 
ATOM      5  C3* UNL     1       1.857   4.858  20.327  0.00  0.00    +0.000 C 
ENDROOT
BRANCH   3   6
ATOM      6  N   UNL     1       4.514   4.255  17.891  0.00  0.00    +0.000 N 
ATOM      7  N   UNL     1       4.205   3.375  16.943  0.00  0.00    +0.000 NA
ATOM      8  C   UNL     1       5.009   3.592  15.872  0.00  0.00    +0.000 A 
ATOM      9  C   UNL     1       5.852   4.645  16.171  0.00  0.00    +0.000 A 
ATOM     10  C   UNL     1       6.874   5.308  15.492  0.00  0.00    +0.000 A 
ATOM     11  N   UNL     1       7.499   6.329  16.150  0.00  0.00    +0.000 NA
ATOM     12  C   UNL     1       7.142   6.696  17.421  0.00  0.00    +0.000 A 
ATOM     13  N   UNL     1       6.136   6.041  18.076  0.00  0.00    +0.000 NA
ATOM     14  C   UNL     1       5.513   5.028  17.431  0.00  0.00    +0.000 A 
BRANCH  10  15
ATOM     15 SE   UNL     1       7.453   4.858  13.708  0.00  0.00    +0.000 Se
ATOM     16  H   UNL     1       8.126   6.197  13.400  0.00  0.00    +0.000 HD
ENDBRANCH  10  15
ENDBRANCH   3   6
BRANCH   4  17
ATOM     17  O2* UNL     1       3.106   6.670  19.239  0.00  0.00    +0.000 OA
ATOM     18  H2* UNL     1       3.233   6.904  20.199  0.00  0.00    +0.000 HD
ENDBRANCH   4  17
BRANCH   5  19
ATOM     19  O3* UNL     1       2.285   5.423  21.544  0.00  0.00    +0.000 OA
ATOM     20  H3* UNL     1       2.862   6.208  21.362  0.00  0.00    +0.000 HD
ENDBRANCH   5  19
BRANCH   1  21
ATOM     21  C5* UNL     1       0.937   2.499  19.770  0.00  0.00    +0.000 C 
BRANCH  21  22
ATOM     22  O5* UNL     1       1.284   1.792  18.613  0.00  0.00    +0.000 OA
ATOM     23  H5* UNL     1       0.639   2.089  17.917  0.00  0.00    +0.000 HD
ENDBRANCH  21  22
ENDBRANCH   1  21
TORSDOF 6
ENDMDL
MODEL 7
REMARK VINA RESULT:      -6.0      3.219      4.443
REMARK  Name = 
REMARK  6 active torsions:
REMARK  status: ('A' for Active; 'I' for Inactive)
REMARK    1  A    between atoms: O5*_1  and  C5*_2
REMARK    2  A    between atoms: C5*_2  and  C4*_3
REMARK    3  A    between atoms: C1*_5  and  N_6
REMARK    4  A    between atoms: C_10  and  SE_11
REMARK    5  A    between atoms: C2*_16  and  O2*_17
REMARK    6  A    between atoms: C3*_18  and  O3*_19
REMARK                            x       y       z     vdW  Elec       q    Type
REMARK                         _______ _______ _______ _____ _____    ______ ____
ROOT
ATOM      1  C4* UNL     1       3.302   3.471  17.474  0.00  0.00    +0.000 C 
ATOM      2  O4* UNL     1       2.569   4.678  17.662  0.00  0.00    +0.000 OA
ATOM      3  C1* UNL     1       3.413   5.574  18.353  0.00  0.00    +0.000 C 
ATOM      4  C2* UNL     1       4.356   4.714  19.186  0.00  0.00    +0.000 C 
ATOM      5  C3* UNL     1       4.641   3.566  18.249  0.00  0.00    +0.000 C 
ENDROOT
BRANCH   3   6
ATOM      6  N   UNL     1       2.622   6.454  19.218  0.00  0.00    +0.000 N 
ATOM      7  N   UNL     1       2.156   6.101  20.411  0.00  0.00    +0.000 NA
ATOM      8  C   UNL     1       1.466   7.145  20.935  0.00  0.00    +0.000 A 
ATOM      9  C   UNL     1       1.502   8.185  20.025  0.00  0.00    +0.000 A 
ATOM     10  C   UNL     1       0.985   9.479  19.993  0.00  0.00    +0.000 A 
ATOM     11  N   UNL     1       1.237  10.223  18.875  0.00  0.00    +0.000 NA
ATOM     12  C   UNL     1       1.970   9.729  17.828  0.00  0.00    +0.000 A 
ATOM     13  N   UNL     1       2.475   8.460  17.872  0.00  0.00    +0.000 NA
ATOM     14  C   UNL     1       2.229   7.716  18.975  0.00  0.00    +0.000 A 
BRANCH  10  15
ATOM     15 SE   UNL     1      -0.065  10.258  21.411  0.00  0.00    +0.000 Se
ATOM     16  H   UNL     1      -1.110  10.920  20.512  0.00  0.00    +0.000 HD
ENDBRANCH  10  15
ENDBRANCH   3   6
BRANCH   4  17
ATOM     17  O2* UNL     1       5.504   5.386  19.652  0.00  0.00    +0.000 OA
ATOM     18  H2* UNL     1       5.405   6.353  19.435  0.00  0.00    +0.000 HD
ENDBRANCH   4  17
BRANCH   5  19
ATOM     19  O3* UNL     1       5.712   3.855  17.383  0.00  0.00    +0.000 OA
ATOM     20  H3* UNL     1       6.045   4.771  17.558  0.00  0.00    +0.000 HD
ENDBRANCH   5  19
BRANCH   1  21
ATOM     21  C5* UNL     1       2.431   2.268  17.859  0.00  0.00    +0.000 C 
BRANCH  21  22
ATOM     22  O5* UNL     1       3.199   1.232  18.405  0.00  0.00    +0.000 OA
ATOM     23  H5* UNL     1       2.841   1.091  19.322  0.00  0.00    +0.000 HD
ENDBRANCH  21  22
ENDBRANCH   1  21
TORSDOF 6
ENDMDL
MODEL 8
REMARK VINA RESULT:      -5.9      3.444      5.039
REMARK  Name = 
REMARK  6 active torsions:
REMARK  status: ('A' for Active; 'I' for Inactive)
REMARK    1  A    between atoms: O5*_1  and  C5*_2
REMARK    2  A    between atoms: C5*_2  and  C4*_3
REMARK    3  A    between atoms: C1*_5  and  N_6
REMARK    4  A    between atoms: C_10  and  SE_11
REMARK    5  A    between atoms: C2*_16  and  O2*_17
REMARK    6  A    between atoms: C3*_18  and  O3*_19
REMARK                            x       y       z     vdW  Elec       q    Type
REMARK                         _______ _______ _______ _____ _____    ______ ____
ROOT
ATOM      1  C4* UNL     1       5.022   4.485  18.671  0.00  0.00    +0.000 C 
ATOM      2  O4* UNL     1       4.542   5.731  19.164  0.00  0.00    +0.000 OA
ATOM      3  C1* UNL     1       3.135   5.706  19.061  0.00  0.00    +0.000 C 
ATOM      4  C2* UNL     1       2.809   4.783  17.893  0.00  0.00    +0.000 C 
ATOM      5  C3* UNL     1       3.837   3.691  18.063  0.00  0.00    +0.000 C 
ENDROOT
BRANCH   3   6
ATOM      6  N   UNL     1       2.619   7.055  18.809  0.00  0.00    +0.000 N 
ATOM      7  N   UNL     1       2.811   7.725  17.678  0.00  0.00    +0.000 NA
ATOM      8  C   UNL     1       2.207   8.936  17.782  0.00  0.00    +0.000 A 
ATOM      9  C   UNL     1       1.621   9.019  19.031  0.00  0.00    +0.000 A 
ATOM     10  C   UNL     1       0.883   9.990  19.706  0.00  0.00    +0.000 A 
ATOM     11  N   UNL     1       0.474   9.692  20.975  0.00  0.00    +0.000 NA
ATOM     12  C   UNL     1       0.767   8.490  21.565  0.00  0.00    +0.000 A 
ATOM     13  N   UNL     1       1.488   7.544  20.893  0.00  0.00    +0.000 NA
ATOM     14  C   UNL     1       1.899   7.832  19.635  0.00  0.00    +0.000 A 
BRANCH  10  15
ATOM     15 SE   UNL     1       0.430  11.712  18.963  0.00  0.00    +0.000 Se
ATOM     16  H   UNL     1       1.767  12.390  19.266  0.00  0.00    +0.000 HD
ENDBRANCH  10  15
ENDBRANCH   3   6
BRANCH   4  17
ATOM     17  O2* UNL     1       1.475   4.330  17.858  0.00  0.00    +0.000 OA
ATOM     18  H2* UNL     1       1.481   3.343  17.992  0.00  0.00    +0.000 HD
ENDBRANCH   4  17
BRANCH   5  19
ATOM     19  O3* UNL     1       3.389   2.689  18.945  0.00  0.00    +0.000 OA
ATOM     20  H3* UNL     1       2.463   2.889  19.234  0.00  0.00    +0.000 HD
ENDBRANCH   5  19
BRANCH   1  21
ATOM     21  C5* UNL     1       6.188   4.722  17.701  0.00  0.00    +0.000 C 
BRANCH  21  22
ATOM     22  O5* UNL     1       7.393   4.233  18.219  0.00  0.00    +0.000 OA
ATOM     23  H5* UNL     1       7.329   4.358  19.203  0.00  0.00    +0.000 HD
ENDBRANCH  21  22
ENDBRANCH   1  21
TORSDOF 6
ENDMDL
MODEL 9
REMARK VINA RESULT:      -5.9      3.522      4.914
REMARK  Name = 
REMARK  6 active torsions:
REMARK  status: ('A' for Active; 'I' for Inactive)
REMARK    1  A    between atoms: O5*_1  and  C5*_2
REMARK    2  A    between atoms: C5*_2  and  C4*_3
REMARK    3  A    between atoms: C1*_5  and  N_6
REMARK    4  A    between atoms: C_10  and  SE_11
REMARK    5  A    between atoms: C2*_16  and  O2*_17
REMARK    6  A    between atoms: C3*_18  and  O3*_19
REMARK                            x       y       z     vdW  Elec       q    Type
REMARK                         _______ _______ _______ _____ _____    ______ ____
ROOT
ATOM      1  C4* UNL     1       5.714   4.875  19.394  0.00  0.00    +0.000 C 
ATOM      2  O4* UNL     1       4.769   5.871  19.771  0.00  0.00    +0.000 OA
ATOM      3  C1* UNL     1       3.601   5.647  19.011  0.00  0.00    +0.000 C 
ATOM      4  C2* UNL     1       4.057   4.994  17.712  0.00  0.00    +0.000 C 
ATOM      5  C3* UNL     1       5.152   4.072  18.193  0.00  0.00    +0.000 C 
ENDROOT
BRANCH   3   6
ATOM      6  N   UNL     1       2.920   6.915  18.737  0.00  0.00    +0.000 N 
ATOM      7  N   UNL     1       3.038   7.591  17.599  0.00  0.00    +0.000 NA
ATOM      8  C   UNL     1       2.283   8.716  17.682  0.00  0.00    +0.000 A 
ATOM      9  C   UNL     1       1.678   8.738  18.924  0.00  0.00    +0.000 A 
ATOM     10  C   UNL     1       0.815   9.615  19.580  0.00  0.00    +0.000 A 
ATOM     11  N   UNL     1       0.433   9.281  20.849  0.00  0.00    +0.000 NA
ATOM     12  C   UNL     1       0.871   8.134  21.457  0.00  0.00    +0.000 A 
ATOM     13  N   UNL     1       1.714   7.280  20.804  0.00  0.00    +0.000 NA
ATOM     14  C   UNL     1       2.098   7.604  19.547  0.00  0.00    +0.000 A 
BRANCH  10  15
ATOM     15 SE   UNL     1       0.153  11.255  18.811  0.00  0.00    +0.000 Se
ATOM     16  H   UNL     1      -1.241  10.733  18.459  0.00  0.00    +0.000 HD
ENDBRANCH  10  15
ENDBRANCH   3   6
BRANCH   4  17
ATOM     17  O2* UNL     1       3.033   4.354  16.986  0.00  0.00    +0.000 OA
ATOM     18  H2* UNL     1       2.585   5.038  16.417  0.00  0.00    +0.000 HD
ENDBRANCH   4  17
BRANCH   5  19
ATOM     19  O3* UNL     1       4.639   2.828  18.607  0.00  0.00    +0.000 OA
ATOM     20  H3* UNL     1       5.386   2.203  18.786  0.00  0.00    +0.000 HD
ENDBRANCH   5  19
BRANCH   1  21
ATOM     21  C5* UNL     1       7.081   5.524  19.137  0.00  0.00    +0.000 C 
BRANCH  21  22
ATOM     22  O5* UNL     1       7.894   5.477  20.275  0.00  0.00    +0.000 OA
ATOM     23  H5* UNL     1       8.783   5.812  19.981  0.00  0.00    +0.000 HD
ENDBRANCH  21  22
ENDBRANCH   1  21
TORSDOF 6
ENDMDL
