MODEL 1
REMARK VINA RESULT:      -7.2      0.000      0.000
REMARK  Name = 
REMARK  5 active torsions:
REMARK  status: ('A' for Active; 'I' for Inactive)
REMARK    1  A    between atoms: N_2  and  C_4
REMARK    2  A    between atoms: C_6  and  N_7
REMARK    3  A    between atoms: C_15  and  N_16
REMARK    4  A    between atoms: N_16  and  C_17
REMARK    5  A    between atoms: C_20  and  O_21
REMARK                            x       y       z     vdW  Elec       q    Type
REMARK                         _______ _______ _______ _____ _____    ______ ____
ROOT
ATOM      1  C   UNL     1       1.808   6.136  20.073  0.00  0.00    +0.000 A 
ATOM      2  C   UNL     1       1.275   7.066  21.012  0.00  0.00    +0.000 A 
ATOM      3  C   UNL     1       1.185   8.438  20.710  0.00  0.00    +0.000 A 
ATOM      4  C   UNL     1       1.639   8.835  19.441  0.00  0.00    +0.000 A 
ATOM      5  N   UNL     1       1.706  10.040  18.861  0.00  0.00    +0.000 NA
ATOM      6  O   UNL     1       2.220   9.846  17.602  0.00  0.00    +0.000 OA
ATOM      7  N   UNL     1       2.468   8.518  17.363  0.00  0.00    +0.000 NA
ATOM      8  C   UNL     1       2.161   7.851  18.485  0.00  0.00    +0.000 A 
ATOM      9  C   UNL     1       2.279   6.452  18.766  0.00  0.00    +0.000 A 
ENDROOT
BRANCH   1  11
ATOM     10  O   UNL     1       2.590   4.555  21.544  0.00  0.00    +0.000 OA
ATOM     11  N   UNL     1       1.911   4.757  20.530  0.00  0.00    +0.000 N 
ATOM     12  O   UNL     1       1.282   3.904  19.891  0.00  0.00    +0.000 OA
ENDBRANCH   1  11
BRANCH   3  13
ATOM     13  N   UNL     1       0.653   9.396  21.663  0.00  0.00    +0.000 N 
ATOM     14  O   UNL     1       1.351   9.632  22.655  0.00  0.00    +0.000 OA
ATOM     15  O   UNL     1      -0.451   9.909  21.451  0.00  0.00    +0.000 OA
ENDBRANCH   3  13
BRANCH   9  16
ATOM     16  N   UNL     1       2.855   5.479  17.910  0.00  0.00    +0.000 N 
ATOM     17  H   UNL     1       2.282   5.264  17.091  0.00  0.00    +0.000 HD
BRANCH  16  18
ATOM     18  C   UNL     1       4.233   5.262  17.704  0.00  0.00    +0.000 A 
ATOM     19  C   UNL     1       4.691   4.690  16.506  0.00  0.00    +0.000 A 
ATOM     20  C   UNL     1       6.020   4.300  16.353  0.00  0.00    +0.000 A 
ATOM     21  C   UNL     1       6.912   4.516  17.395  0.00  0.00    +0.000 A 
ATOM     22  C   UNL     1       6.500   5.144  18.565  0.00  0.00    +0.000 A 
ATOM     23  C   UNL     1       5.160   5.515  18.722  0.00  0.00    +0.000 A 
BRANCH  21  24
ATOM     24  O   UNL     1       8.208   4.103  17.308  0.00  0.00    +0.000 OA
ATOM     25  H   UNL     1       8.491   3.801  18.187  0.00  0.00    +0.000 HD
ENDBRANCH  21  24
ENDBRANCH  16  18
ENDBRANCH   9  16
TORSDOF 5
ENDMDL
MODEL 2
REMARK VINA RESULT:      -7.0      0.169      1.210
REMARK  Name = 
REMARK  5 active torsions:
REMARK  status: ('A' for Active; 'I' for Inactive)
REMARK    1  A    between atoms: N_2  and  C_4
REMARK    2  A    between atoms: C_6  and  N_7
REMARK    3  A    between atoms: C_15  and  N_16
REMARK    4  A    between atoms: N_16  and  C_17
REMARK    5  A    between atoms: C_20  and  O_21
REMARK                            x       y       z     vdW  Elec       q    Type
REMARK                         _______ _______ _______ _____ _____    ______ ____
ROOT
ATOM      1  C   UNL     1       1.747   6.093  20.077  0.00  0.00    +0.000 A 
ATOM      2  C   UNL     1       1.273   7.049  21.021  0.00  0.00    +0.000 A 
ATOM      3  C   UNL     1       1.228   8.421  20.710  0.00  0.00    +0.000 A 
ATOM      4  C   UNL     1       1.666   8.791  19.427  0.00  0.00    +0.000 A 
ATOM      5  N   UNL     1       1.765   9.988  18.836  0.00  0.00    +0.000 NA
ATOM      6  O   UNL     1       2.241   9.765  17.566  0.00  0.00    +0.000 OA
ATOM      7  N   UNL     1       2.432   8.427  17.333  0.00  0.00    +0.000 NA
ATOM      8  C   UNL     1       2.126   7.780  18.467  0.00  0.00    +0.000 A 
ATOM      9  C   UNL     1       2.198   6.380  18.757  0.00  0.00    +0.000 A 
ENDROOT
BRANCH   1  11
ATOM     10  O   UNL     1       1.201   3.870  19.872  0.00  0.00    +0.000 OA
ATOM     11  N   UNL     1       1.808   4.714  20.544  0.00  0.00    +0.000 N 
ATOM     12  O   UNL     1       2.492   4.491  21.551  0.00  0.00    +0.000 OA
ENDBRANCH   1  11
BRANCH   3  13
ATOM     13  N   UNL     1       0.756   9.406  21.667  0.00  0.00    +0.000 N 
ATOM     14  O   UNL     1       1.540   9.715  22.572  0.00  0.00    +0.000 OA
ATOM     15  O   UNL     1      -0.382   9.871  21.545  0.00  0.00    +0.000 OA
ENDBRANCH   3  13
BRANCH   9  16
ATOM     16  N   UNL     1       2.715   5.380  17.896  0.00  0.00    +0.000 N 
ATOM     17  H   UNL     1       2.183   5.270  17.029  0.00  0.00    +0.000 HD
BRANCH  16  18
ATOM     18  C   UNL     1       4.069   5.002  17.776  0.00  0.00    +0.000 A 
ATOM     19  C   UNL     1       4.987   5.315  18.792  0.00  0.00    +0.000 A 
ATOM     20  C   UNL     1       6.355   5.117  18.616  0.00  0.00    +0.000 A 
ATOM     21  C   UNL     1       6.811   4.567  17.426  0.00  0.00    +0.000 A 
ATOM     22  C   UNL     1       5.918   4.184  16.432  0.00  0.00    +0.000 A 
ATOM     23  C   UNL     1       4.547   4.404  16.604  0.00  0.00    +0.000 A 
BRANCH  21  24
ATOM     24  O   UNL     1       8.143   4.404  17.192  0.00  0.00    +0.000 OA
ATOM     25  H   UNL     1       8.281   3.518  16.819  0.00  0.00    +0.000 HD
ENDBRANCH  21  24
ENDBRANCH  16  18
ENDBRANCH   9  16
TORSDOF 5
ENDMDL
MODEL 3
REMARK VINA RESULT:      -7.0      2.540      6.668
REMARK  Name = 
REMARK  5 active torsions:
REMARK  status: ('A' for Active; 'I' for Inactive)
REMARK    1  A    between atoms: N_2  and  C_4
REMARK    2  A    between atoms: C_6  and  N_7
REMARK    3  A    between atoms: C_15  and  N_16
REMARK    4  A    between atoms: N_16  and  C_17
REMARK    5  A    between atoms: C_20  and  O_21
REMARK                            x       y       z     vdW  Elec       q    Type
REMARK                         _______ _______ _______ _____ _____    ______ ____
ROOT
ATOM      1  C   UNL     1       4.137   4.250  17.024  0.00  0.00    +0.000 A 
ATOM      2  C   UNL     1       4.857   3.986  15.823  0.00  0.00    +0.000 A 
ATOM      3  C   UNL     1       6.010   4.721  15.487  0.00  0.00    +0.000 A 
ATOM      4  C   UNL     1       6.409   5.717  16.395  0.00  0.00    +0.000 A 
ATOM      5  N   UNL     1       7.428   6.585  16.366  0.00  0.00    +0.000 NA
ATOM      6  O   UNL     1       7.355   7.321  17.524  0.00  0.00    +0.000 OA
ATOM      7  N   UNL     1       6.304   6.917  18.306  0.00  0.00    +0.000 NA
ATOM      8  C   UNL     1       5.661   5.949  17.636  0.00  0.00    +0.000 A 
ATOM      9  C   UNL     1       4.478   5.230  18.000  0.00  0.00    +0.000 A 
ENDROOT
BRANCH   1  11
ATOM     10  O   UNL     1       3.072   2.284  17.552  0.00  0.00    +0.000 OA
ATOM     11  N   UNL     1       2.924   3.468  17.224  0.00  0.00    +0.000 N 
ATOM     12  O   UNL     1       1.845   4.058  17.086  0.00  0.00    +0.000 OA
ENDBRANCH   1  11
BRANCH   3  13
ATOM     13  N   UNL     1       6.746   4.468  14.262  0.00  0.00    +0.000 N 
ATOM     14  O   UNL     1       6.334   3.545  13.550  0.00  0.00    +0.000 OA
ATOM     15  O   UNL     1       7.735   5.161  13.997  0.00  0.00    +0.000 OA
ENDBRANCH   3  13
BRANCH   9  16
ATOM     16  N   UNL     1       3.675   5.477  19.142  0.00  0.00    +0.000 N 
ATOM     17  H   UNL     1       4.095   5.155  20.016  0.00  0.00    +0.000 HD
BRANCH  16  18
ATOM     18  C   UNL     1       2.778   6.553  19.312  0.00  0.00    +0.000 A 
ATOM     19  C   UNL     1       2.607   7.503  18.293  0.00  0.00    +0.000 A 
ATOM     20  C   UNL     1       1.871   8.667  18.506  0.00  0.00    +0.000 A 
ATOM     21  C   UNL     1       1.268   8.869  19.741  0.00  0.00    +0.000 A 
ATOM     22  C   UNL     1       1.363   7.910  20.743  0.00  0.00    +0.000 A 
ATOM     23  C   UNL     1       2.121   6.753  20.532  0.00  0.00    +0.000 A 
BRANCH  21  24
ATOM     24  O   UNL     1       0.583  10.015  20.009  0.00  0.00    +0.000 OA
ATOM     25  H   UNL     1      -0.036  10.180  19.277  0.00  0.00    +0.000 HD
ENDBRANCH  21  24
ENDBRANCH  16  18
ENDBRANCH   9  16
TORSDOF 5
ENDMDL
MODEL 4
REMARK VINA RESULT:      -6.9      1.392      1.845
REMARK  Name = 
REMARK  5 active torsions:
REMARK  status: ('A' for Active; 'I' for Inactive)
REMARK    1  A    between atoms: N_2  and  C_4
REMARK    2  A    between atoms: C_6  and  N_7
REMARK    3  A    between atoms: C_15  and  N_16
REMARK    4  A    between atoms: N_16  and  C_17
REMARK    5  A    between atoms: C_20  and  O_21
REMARK                            x       y       z     vdW  Elec       q    Type
REMARK                         _______ _______ _______ _____ _____    ______ ____
ROOT
ATOM      1  C   UNL     1       2.268   4.745  20.324  0.00  0.00    +0.000 A 
ATOM      2  C   UNL     1       1.554   5.730  21.066  0.00  0.00    +0.000 A 
ATOM      3  C   UNL     1       1.497   7.069  20.635  0.00  0.00    +0.000 A 
ATOM      4  C   UNL     1       2.172   7.376  19.442  0.00  0.00    +0.000 A 
ATOM      5  N   UNL     1       2.323   8.531  18.782  0.00  0.00    +0.000 NA
ATOM      6  O   UNL     1       3.065   8.252  17.659  0.00  0.00    +0.000 OA
ATOM      7  N   UNL     1       3.376   6.918  17.585  0.00  0.00    +0.000 NA
ATOM      8  C   UNL     1       2.878   6.334  18.685  0.00  0.00    +0.000 A 
ATOM      9  C   UNL     1       2.967   4.968  19.104  0.00  0.00    +0.000 A 
ENDROOT
BRANCH   1  11
ATOM     10  O   UNL     1       2.539   3.343  22.125  0.00  0.00    +0.000 OA
ATOM     11  N   UNL     1       2.309   3.411  20.911  0.00  0.00    +0.000 N 
ATOM     12  O   UNL     1       2.074   2.459  20.157  0.00  0.00    +0.000 OA
ENDBRANCH   1  11
BRANCH   3  13
ATOM     13  N   UNL     1       0.782   8.083  21.389  0.00  0.00    +0.000 N 
ATOM     14  O   UNL     1       1.473   8.890  22.022  0.00  0.00    +0.000 OA
ATOM     15  O   UNL     1      -0.454   8.088  21.374  0.00  0.00    +0.000 OA
ENDBRANCH   3  13
BRANCH   9  16
ATOM     16  N   UNL     1       3.708   3.948  18.455  0.00  0.00    +0.000 N 
ATOM     17  H   UNL     1       3.160   3.108  18.254  0.00  0.00    +0.000 HD
BRANCH  16  18
ATOM     18  C   UNL     1       4.789   4.139  17.568  0.00  0.00    +0.000 A 
ATOM     19  C   UNL     1       6.038   4.561  18.051  0.00  0.00    +0.000 A 
ATOM     20  C   UNL     1       7.062   4.931  17.182  0.00  0.00    +0.000 A 
ATOM     21  C   UNL     1       6.850   4.845  15.813  0.00  0.00    +0.000 A 
ATOM     22  C   UNL     1       5.647   4.364  15.309  0.00  0.00    +0.000 A 
ATOM     23  C   UNL     1       4.614   4.015  16.185  0.00  0.00    +0.000 A 
BRANCH  21  24
ATOM     24  O   UNL     1       7.805   5.245  14.927  0.00  0.00    +0.000 OA
ATOM     25  H   UNL     1       8.455   4.528  14.835  0.00  0.00    +0.000 HD
ENDBRANCH  21  24
ENDBRANCH  16  18
ENDBRANCH   9  16
TORSDOF 5
ENDMDL
MODEL 5
REMARK VINA RESULT:      -6.8      2.878      6.787
REMARK  Name = 
REMARK  5 active torsions:
REMARK  status: ('A' for Active; 'I' for Inactive)
REMARK    1  A    between atoms: N_2  and  C_4
REMARK    2  A    between atoms: C_6  and  N_7
REMARK    3  A    between atoms: C_15  and  N_16
REMARK    4  A    between atoms: N_16  and  C_17
REMARK    5  A    between atoms: C_20  and  O_21
REMARK                            x       y       z     vdW  Elec       q    Type
REMARK                         _______ _______ _______ _____ _____    ______ ____
ROOT
ATOM      1  C   UNL     1       4.525   3.766  16.980  0.00  0.00    +0.000 A 
ATOM      2  C   UNL     1       5.073   3.707  15.667  0.00  0.00    +0.000 A 
ATOM      3  C   UNL     1       6.137   4.544  15.282  0.00  0.00    +0.000 A 
ATOM      4  C   UNL     1       6.628   5.429  16.257  0.00  0.00    +0.000 A 
ATOM      5  N   UNL     1       7.599   6.349  16.210  0.00  0.00    +0.000 NA
ATOM      6  O   UNL     1       7.668   6.917  17.460  0.00  0.00    +0.000 OA
ATOM      7  N   UNL     1       6.756   6.353  18.315  0.00  0.00    +0.000 NA
ATOM      8  C   UNL     1       6.058   5.450  17.610  0.00  0.00    +0.000 A 
ATOM      9  C   UNL     1       4.968   4.623  18.028  0.00  0.00    +0.000 A 
ENDROOT
BRANCH   1  11
ATOM     10  O   UNL     1       2.302   3.237  16.734  0.00  0.00    +0.000 OA
ATOM     11  N   UNL     1       3.382   2.897  17.233  0.00  0.00    +0.000 N 
ATOM     12  O   UNL     1       3.591   1.872  17.895  0.00  0.00    +0.000 OA
ENDBRANCH   1  11
BRANCH   3  13
ATOM     13  N   UNL     1       6.697   4.500  13.943  0.00  0.00    +0.000 N 
ATOM     14  O   UNL     1       6.323   3.570  13.218  0.00  0.00    +0.000 OA
ATOM     15  O   UNL     1       7.512   5.364  13.600  0.00  0.00    +0.000 OA
ENDBRANCH   3  13
BRANCH   9  16
ATOM     16  N   UNL     1       4.329   4.668  19.294  0.00  0.00    +0.000 N 
ATOM     17  H   UNL     1       4.950   4.443  20.074  0.00  0.00    +0.000 HD
BRANCH  16  18
ATOM     18  C   UNL     1       3.255   5.508  19.655  0.00  0.00    +0.000 A 
ATOM     19  C   UNL     1       3.113   6.774  19.064  0.00  0.00    +0.000 A 
ATOM     20  C   UNL     1       2.173   7.690  19.533  0.00  0.00    +0.000 A 
ATOM     21  C   UNL     1       1.339   7.325  20.581  0.00  0.00    +0.000 A 
ATOM     22  C   UNL     1       1.411   6.053  21.137  0.00  0.00    +0.000 A 
ATOM     23  C   UNL     1       2.371   5.145  20.677  0.00  0.00    +0.000 A 
BRANCH  21  24
ATOM     24  O   UNL     1       0.441   8.206  21.104  0.00  0.00    +0.000 OA
ATOM     25  H   UNL     1       0.882   8.709  21.809  0.00  0.00    +0.000 HD
ENDBRANCH  21  24
ENDBRANCH  16  18
ENDBRANCH   9  16
TORSDOF 5
ENDMDL
MODEL 6
REMARK VINA RESULT:      -6.8      2.699      4.634
REMARK  Name = 
REMARK  5 active torsions:
REMARK  status: ('A' for Active; 'I' for Inactive)
REMARK    1  A    between atoms: N_2  and  C_4
REMARK    2  A    between atoms: C_6  and  N_7
REMARK    3  A    between atoms: C_15  and  N_16
REMARK    4  A    between atoms: N_16  and  C_17
REMARK    5  A    between atoms: C_20  and  O_21
REMARK                            x       y       z     vdW  Elec       q    Type
REMARK                         _______ _______ _______ _____ _____    ______ ____
ROOT
ATOM      1  C   UNL     1       5.354   5.224  18.395  0.00  0.00    +0.000 A 
ATOM      2  C   UNL     1       4.505   5.967  19.265  0.00  0.00    +0.000 A 
ATOM      3  C   UNL     1       3.113   5.755  19.283  0.00  0.00    +0.000 A 
ATOM      4  C   UNL     1       2.613   4.777  18.407  0.00  0.00    +0.000 A 
ATOM      5  N   UNL     1       1.365   4.354  18.171  0.00  0.00    +0.000 NA
ATOM      6  O   UNL     1       1.454   3.362  17.224  0.00  0.00    +0.000 OA
ATOM      7  N   UNL     1       2.758   3.134  16.863  0.00  0.00    +0.000 NA
ATOM      8  C   UNL     1       3.515   4.010  17.539  0.00  0.00    +0.000 A 
ATOM      9  C   UNL     1       4.931   4.210  17.487  0.00  0.00    +0.000 A 
ENDROOT
BRANCH   1  11
ATOM     10  O   UNL     1       7.561   4.694  18.752  0.00  0.00    +0.000 OA
ATOM     11  N   UNL     1       6.766   5.583  18.422  0.00  0.00    +0.000 N 
ATOM     12  O   UNL     1       7.059   6.735  18.077  0.00  0.00    +0.000 OA
ENDBRANCH   1  11
BRANCH   3  13
ATOM     13  N   UNL     1       2.237   6.513  20.158  0.00  0.00    +0.000 N 
ATOM     14  O   UNL     1       1.665   5.878  21.051  0.00  0.00    +0.000 OA
ATOM     15  O   UNL     1       2.096   7.727  19.969  0.00  0.00    +0.000 OA
ENDBRANCH   3  13
BRANCH   9  16
ATOM     16  N   UNL     1       5.830   3.557  16.605  0.00  0.00    +0.000 N 
ATOM     17  H   UNL     1       5.879   2.545  16.746  0.00  0.00    +0.000 HD
BRANCH  16  18
ATOM     18  C   UNL     1       6.146   3.958  15.290  0.00  0.00    +0.000 A 
ATOM     19  C   UNL     1       5.490   3.376  14.193  0.00  0.00    +0.000 A 
ATOM     20  C   UNL     1       5.910   3.621  12.887  0.00  0.00    +0.000 A 
ATOM     21  C   UNL     1       6.975   4.484  12.670  0.00  0.00    +0.000 A 
ATOM     22  C   UNL     1       7.596   5.127  13.734  0.00  0.00    +0.000 A 
ATOM     23  C   UNL     1       7.185   4.862  15.045  0.00  0.00    +0.000 A 
BRANCH  21  24
ATOM     24  O   UNL     1       7.451   4.711  11.414  0.00  0.00    +0.000 OA
ATOM     25  H   UNL     1       7.515   5.672  11.281  0.00  0.00    +0.000 HD
ENDBRANCH  21  24
ENDBRANCH  16  18
ENDBRANCH   9  16
TORSDOF 5
ENDMDL
MODEL 7
REMARK VINA RESULT:      -6.7      0.942      1.289
REMARK  Name = 
REMARK  5 active torsions:
REMARK  status: ('A' for Active; 'I' for Inactive)
REMARK    1  A    between atoms: N_2  and  C_4
REMARK    2  A    between atoms: C_6  and  N_7
REMARK    3  A    between atoms: C_15  and  N_16
REMARK    4  A    between atoms: N_16  and  C_17
REMARK    5  A    between atoms: C_20  and  O_21
REMARK                            x       y       z     vdW  Elec       q    Type
REMARK                         _______ _______ _______ _____ _____    ______ ____
ROOT
ATOM      1  C   UNL     1       2.341   6.307  19.437  0.00  0.00    +0.000 A 
ATOM      2  C   UNL     1       1.760   6.838  20.625  0.00  0.00    +0.000 A 
ATOM      3  C   UNL     1       1.372   8.189  20.706  0.00  0.00    +0.000 A 
ATOM      4  C   UNL     1       1.581   8.975  19.560  0.00  0.00    +0.000 A 
ATOM      5  N   UNL     1       1.343  10.270  19.318  0.00  0.00    +0.000 NA
ATOM      6  O   UNL     1       1.726  10.508  18.020  0.00  0.00    +0.000 OA
ATOM      7  N   UNL     1       2.192   9.366  17.420  0.00  0.00    +0.000 NA
ATOM      8  C   UNL     1       2.160   8.393  18.342  0.00  0.00    +0.000 A 
ATOM      9  C   UNL     1       2.578   7.029  18.233  0.00  0.00    +0.000 A 
ENDROOT
BRANCH   1  11
ATOM     10  O   UNL     1       2.071   4.092  18.888  0.00  0.00    +0.000 OA
ATOM     11  N   UNL     1       2.763   4.914  19.503  0.00  0.00    +0.000 N 
ATOM     12  O   UNL     1       3.798   4.669  20.136  0.00  0.00    +0.000 OA
ENDBRANCH   1  11
BRANCH   3  13
ATOM     13  N   UNL     1       0.788   8.744  21.914  0.00  0.00    +0.000 N 
ATOM     14  O   UNL     1      -0.430   8.590  22.060  0.00  0.00    +0.000 OA
ATOM     15  O   UNL     1       1.514   9.343  22.716  0.00  0.00    +0.000 OA
ENDBRANCH   3  13
BRANCH   9  16
ATOM     16  N   UNL     1       3.219   6.445  17.111  0.00  0.00    +0.000 N 
ATOM     17  H   UNL     1       2.914   6.834  16.216  0.00  0.00    +0.000 HD
BRANCH  16  18
ATOM     18  C   UNL     1       4.530   5.923  17.078  0.00  0.00    +0.000 A 
ATOM     19  C   UNL     1       4.780   4.668  16.500  0.00  0.00    +0.000 A 
ATOM     20  C   UNL     1       6.025   4.053  16.619  0.00  0.00    +0.000 A 
ATOM     21  C   UNL     1       7.044   4.714  17.291  0.00  0.00    +0.000 A 
ATOM     22  C   UNL     1       6.842   5.987  17.812  0.00  0.00    +0.000 A 
ATOM     23  C   UNL     1       5.585   6.592  17.709  0.00  0.00    +0.000 A 
BRANCH  21  24
ATOM     24  O   UNL     1       8.260   4.129  17.474  0.00  0.00    +0.000 OA
ATOM     25  H   UNL     1       8.633   4.454  18.311  0.00  0.00    +0.000 HD
ENDBRANCH  21  24
ENDBRANCH  16  18
ENDBRANCH   9  16
TORSDOF 5
ENDMDL
MODEL 8
REMARK VINA RESULT:      -6.6      2.433      6.535
REMARK  Name = 
REMARK  5 active torsions:
REMARK  status: ('A' for Active; 'I' for Inactive)
REMARK    1  A    between atoms: N_2  and  C_4
REMARK    2  A    between atoms: C_6  and  N_7
REMARK    3  A    between atoms: C_15  and  N_16
REMARK    4  A    between atoms: N_16  and  C_17
REMARK    5  A    between atoms: C_20  and  O_21
REMARK                            x       y       z     vdW  Elec       q    Type
REMARK                         _______ _______ _______ _____ _____    ______ ____
ROOT
ATOM      1  C   UNL     1       3.559   4.575  17.455  0.00  0.00    +0.000 A 
ATOM      2  C   UNL     1       4.132   4.021  16.274  0.00  0.00    +0.000 A 
ATOM      3  C   UNL     1       5.271   4.594  15.677  0.00  0.00    +0.000 A 
ATOM      4  C   UNL     1       5.809   5.729  16.307  0.00  0.00    +0.000 A 
ATOM      5  N   UNL     1       6.854   6.505  15.994  0.00  0.00    +0.000 NA
ATOM      6  O   UNL     1       6.939   7.469  16.969  0.00  0.00    +0.000 OA
ATOM      7  N   UNL     1       5.963   7.305  17.919  0.00  0.00    +0.000 NA
ATOM      8  C   UNL     1       5.211   6.263  17.538  0.00  0.00    +0.000 A 
ATOM      9  C   UNL     1       4.046   5.712  18.161  0.00  0.00    +0.000 A 
ENDROOT
BRANCH   1  11
ATOM     10  O   UNL     1       1.349   4.000  17.202  0.00  0.00    +0.000 OA
ATOM     11  N   UNL     1       2.343   3.931  17.935  0.00  0.00    +0.000 N 
ATOM     12  O   UNL     1       2.412   3.336  19.018  0.00  0.00    +0.000 OA
ENDBRANCH   1  11
BRANCH   3  13
ATOM     13  N   UNL     1       5.858   4.044  14.468  0.00  0.00    +0.000 N 
ATOM     14  O   UNL     1       7.058   3.753  14.521  0.00  0.00    +0.000 OA
ATOM     15  O   UNL     1       5.153   3.907  13.462  0.00  0.00    +0.000 OA
ENDBRANCH   3  13
BRANCH   9  16
ATOM     16  N   UNL     1       3.383   6.243  19.296  0.00  0.00    +0.000 N 
ATOM     17  H   UNL     1       3.931   6.180  20.157  0.00  0.00    +0.000 HD
BRANCH  16  18
ATOM     18  C   UNL     1       2.454   7.305  19.298  0.00  0.00    +0.000 A 
ATOM     19  C   UNL     1       2.227   8.052  18.131  0.00  0.00    +0.000 A 
ATOM     20  C   UNL     1       1.457   9.213  18.154  0.00  0.00    +0.000 A 
ATOM     21  C   UNL     1       0.875   9.614  19.349  0.00  0.00    +0.000 A 
ATOM     22  C   UNL     1       1.026   8.854  20.503  0.00  0.00    +0.000 A 
ATOM     23  C   UNL     1       1.818   7.701  20.480  0.00  0.00    +0.000 A 
BRANCH  21  24
ATOM     24  O   UNL     1       0.157  10.769  19.428  0.00  0.00    +0.000 OA
ATOM     25  H   UNL     1       0.114  11.039  20.360  0.00  0.00    +0.000 HD
ENDBRANCH  21  24
ENDBRANCH  16  18
ENDBRANCH   9  16
TORSDOF 5
ENDMDL
MODEL 9
REMARK VINA RESULT:      -6.6      2.554      6.735
REMARK  Name = 
REMARK  5 active torsions:
REMARK  status: ('A' for Active; 'I' for Inactive)
REMARK    1  A    between atoms: N_2  and  C_4
REMARK    2  A    between atoms: C_6  and  N_7
REMARK    3  A    between atoms: C_15  and  N_16
REMARK    4  A    between atoms: N_16  and  C_17
REMARK    5  A    between atoms: C_20  and  O_21
REMARK                            x       y       z     vdW  Elec       q    Type
REMARK                         _______ _______ _______ _____ _____    ______ ____
ROOT
ATOM      1  C   UNL     1       4.086   4.331  17.022  0.00  0.00    +0.000 A 
ATOM      2  C   UNL     1       4.820   3.980  15.853  0.00  0.00    +0.000 A 
ATOM      3  C   UNL     1       5.968   4.698  15.468  0.00  0.00    +0.000 A 
ATOM      4  C   UNL     1       6.349   5.768  16.296  0.00  0.00    +0.000 A 
ATOM      5  N   UNL     1       7.359   6.642  16.206  0.00  0.00    +0.000 NA
ATOM      6  O   UNL     1       7.268   7.468  17.301  0.00  0.00    +0.000 OA
ATOM      7  N   UNL     1       6.213   7.116  18.105  0.00  0.00    +0.000 NA
ATOM      8  C   UNL     1       5.587   6.091  17.509  0.00  0.00    +0.000 A 
ATOM      9  C   UNL     1       4.409   5.389  17.919  0.00  0.00    +0.000 A 
ENDROOT
BRANCH   1  11
ATOM     10  O   UNL     1       1.799   4.136  17.118  0.00  0.00    +0.000 OA
ATOM     11  N   UNL     1       2.880   3.554  17.274  0.00  0.00    +0.000 N 
ATOM     12  O   UNL     1       3.031   2.366  17.587  0.00  0.00    +0.000 OA
ENDBRANCH   1  11
BRANCH   3  13
ATOM     13  N   UNL     1       6.719   4.356  14.273  0.00  0.00    +0.000 N 
ATOM     14  O   UNL     1       7.743   5.014  14.057  0.00  0.00    +0.000 OA
ATOM     15  O   UNL     1       6.304   3.453  13.537  0.00  0.00    +0.000 OA
ENDBRANCH   3  13
BRANCH   9  16
ATOM     16  N   UNL     1       3.592   5.718  19.031  0.00  0.00    +0.000 N 
ATOM     17  H   UNL     1       3.924   5.325  19.914  0.00  0.00    +0.000 HD
BRANCH  16  18
ATOM     18  C   UNL     1       2.839   6.901  19.191  0.00  0.00    +0.000 A 
ATOM     19  C   UNL     1       2.173   7.162  20.399  0.00  0.00    +0.000 A 
ATOM     20  C   UNL     1       1.280   8.225  20.518  0.00  0.00    +0.000 A 
ATOM     21  C   UNL     1       1.076   9.061  19.428  0.00  0.00    +0.000 A 
ATOM     22  C   UNL     1       1.777   8.867  18.243  0.00  0.00    +0.000 A 
ATOM     23  C   UNL     1       2.655   7.785  18.121  0.00  0.00    +0.000 A 
BRANCH  21  24
ATOM     24  O   UNL     1       0.175  10.081  19.484  0.00  0.00    +0.000 OA
ATOM     25  H   UNL     1       0.247  10.597  18.664  0.00  0.00    +0.000 HD
ENDBRANCH  21  24
ENDBRANCH  16  18
ENDBRANCH   9  16
TORSDOF 5
ENDMDL
