MODEL 1
REMARK VINA RESULT:      -8.2      0.000      0.000
REMARK  Name = 
REMARK  1 active torsions:
REMARK  status: ('A' for Active; 'I' for Inactive)
REMARK    1  A    between atoms: C_7  and  C_8
REMARK                            x       y       z     vdW  Elec       q    Type
REMARK                         _______ _______ _______ _____ _____    ______ ____
ROOT
ATOM      1  O   UNL     1       4.324   2.877  19.167  0.00  0.00    +0.000 OA
ATOM      2  C   UNL     1       4.056   4.026  18.828  0.00  0.00    +0.000 C 
ATOM      3  C   UNL     1       3.182   4.889  19.707  0.00  0.00    +0.000 C 
ATOM      4  O   UNL     1       2.737   4.444  20.760  0.00  0.00    +0.000 OA
ATOM      5  C   UNL     1       2.877   6.263  19.270  0.00  0.00    +0.000 A 
ATOM      6  C   UNL     1       2.056   7.044  20.098  0.00  0.00    +0.000 A 
ATOM      7  C   UNL     1       1.725   8.348  19.732  0.00  0.00    +0.000 A 
ATOM      8  C   UNL     1       2.223   8.857  18.535  0.00  0.00    +0.000 A 
ATOM      9  C   UNL     1       3.038   8.074  17.713  0.00  0.00    +0.000 A 
ATOM     10  C   UNL     1       3.390   6.755  18.054  0.00  0.00    +0.000 A 
ATOM     11  C   UNL     1       4.251   5.907  17.193  0.00  0.00    +0.000 A 
ATOM     12  C   UNL     1       4.791   6.361  15.972  0.00  0.00    +0.000 A 
ATOM     13  C   UNL     1       5.607   5.548  15.175  0.00  0.00    +0.000 A 
ATOM     14  C   UNL     1       5.906   4.253  15.573  0.00  0.00    +0.000 A 
ATOM     15  C   UNL     1       5.391   3.772  16.770  0.00  0.00    +0.000 A 
ATOM     16  C   UNL     1       4.574   4.590  17.569  0.00  0.00    +0.000 A 
ENDROOT
BRANCH   7  17
ATOM     17  C   UNL     1       0.846   9.148  20.568  0.00  0.00    +0.000 A 
ATOM     18  C   UNL     1       0.001  10.221  20.141  0.00  0.00    +0.000 A 
ATOM     19  C   UNL     1      -0.699  10.781  21.183  0.00  0.00    +0.000 A 
ATOM     20  S   UNL     1      -0.349  10.028  22.676  0.00  0.00    +0.000 S 
ATOM     21  C   UNL     1       0.742   8.944  21.930  0.00  0.00    +0.000 A 
ENDBRANCH   7  17
TORSDOF 1
ENDMDL
MODEL 2
REMARK VINA RESULT:      -8.0      3.368      7.462
REMARK  Name = 
REMARK  1 active torsions:
REMARK  status: ('A' for Active; 'I' for Inactive)
REMARK    1  A    between atoms: C_7  and  C_8
REMARK                            x       y       z     vdW  Elec       q    Type
REMARK                         _______ _______ _______ _____ _____    ______ ____
ROOT
ATOM      1  O   UNL     1       0.624  12.090  18.876  0.00  0.00    +0.000 OA
ATOM      2  C   UNL     1       0.810  10.967  19.339  0.00  0.00    +0.000 C 
ATOM      3  C   UNL     1       1.561   9.933  18.534  0.00  0.00    +0.000 C 
ATOM      4  O   UNL     1       1.985  10.210  17.417  0.00  0.00    +0.000 OA
ATOM      5  C   UNL     1       1.766   8.596  19.118  0.00  0.00    +0.000 A 
ATOM      6  C   UNL     1       2.460   7.648  18.349  0.00  0.00    +0.000 A 
ATOM      7  C   UNL     1       2.675   6.362  18.843  0.00  0.00    +0.000 A 
ATOM      8  C   UNL     1       2.191   6.040  20.109  0.00  0.00    +0.000 A 
ATOM      9  C   UNL     1       1.500   6.987  20.870  0.00  0.00    +0.000 A 
ATOM     10  C   UNL     1       1.266   8.291  20.399  0.00  0.00    +0.000 A 
ATOM     11  C   UNL     1       0.532   9.310  21.189  0.00  0.00    +0.000 A 
ATOM     12  C   UNL     1       0.019   9.051  22.478  0.00  0.00    +0.000 A 
ATOM     13  C   UNL     1      -0.667  10.027  23.212  0.00  0.00    +0.000 A 
ATOM     14  C   UNL     1      -0.866  11.292  22.679  0.00  0.00    +0.000 A 
ATOM     15  C   UNL     1      -0.376  11.582  21.412  0.00  0.00    +0.000 A 
ATOM     16  C   UNL     1       0.314  10.602  20.677  0.00  0.00    +0.000 A 
ENDROOT
BRANCH   7  17
ATOM     17  C   UNL     1       3.360   5.366  18.037  0.00  0.00    +0.000 A 
ATOM     18  C   UNL     1       3.068   3.967  17.974  0.00  0.00    +0.000 A 
ATOM     19  C   UNL     1       3.909   3.295  17.119  0.00  0.00    +0.000 A 
ATOM     20  S   UNL     1       5.052   4.334  16.389  0.00  0.00    +0.000 S 
ATOM     21  C   UNL     1       4.420   5.691  17.214  0.00  0.00    +0.000 A 
ENDBRANCH   7  17
TORSDOF 1
ENDMDL
MODEL 3
REMARK VINA RESULT:      -7.7      1.046      1.255
REMARK  Name = 
REMARK  1 active torsions:
REMARK  status: ('A' for Active; 'I' for Inactive)
REMARK    1  A    between atoms: C_7  and  C_8
REMARK                            x       y       z     vdW  Elec       q    Type
REMARK                         _______ _______ _______ _____ _____    ______ ____
ROOT
ATOM      1  O   UNL     1       3.597   3.350  19.849  0.00  0.00    +0.000 OA
ATOM      2  C   UNL     1       3.473   4.454  19.326  0.00  0.00    +0.000 C 
ATOM      3  C   UNL     1       2.597   5.502  19.971  0.00  0.00    +0.000 C 
ATOM      4  O   UNL     1       2.008   5.253  21.018  0.00  0.00    +0.000 OA
ATOM      5  C   UNL     1       2.467   6.816  19.317  0.00  0.00    +0.000 A 
ATOM      6  C   UNL     1       1.642   7.772  19.931  0.00  0.00    +0.000 A 
ATOM      7  C   UNL     1       1.472   9.029  19.353  0.00  0.00    +0.000 A 
ATOM      8  C   UNL     1       2.134   9.316  18.162  0.00  0.00    +0.000 A 
ATOM      9  C   UNL     1       2.953   8.361  17.555  0.00  0.00    +0.000 A 
ATOM     10  C   UNL     1       3.145   7.083  18.112  0.00  0.00    +0.000 A 
ATOM     11  C   UNL     1       4.007   6.055  17.481  0.00  0.00    +0.000 A 
ATOM     12  C   UNL     1       4.709   6.281  16.279  0.00  0.00    +0.000 A 
ATOM     13  C   UNL     1       5.523   5.299  15.700  0.00  0.00    +0.000 A 
ATOM     14  C   UNL     1       5.660   4.058  16.304  0.00  0.00    +0.000 A 
ATOM     15  C   UNL     1       4.982   3.799  17.489  0.00  0.00    +0.000 A 
ATOM     16  C   UNL     1       4.167   4.786  18.069  0.00  0.00    +0.000 A 
ENDROOT
BRANCH   7  17
ATOM     17  C   UNL     1       0.590  10.008  19.965  0.00  0.00    +0.000 A 
ATOM     18  C   UNL     1       0.732  10.599  21.260  0.00  0.00    +0.000 A 
ATOM     19  C   UNL     1      -0.278  11.485  21.545  0.00  0.00    +0.000 A 
ATOM     20  S   UNL     1      -1.403  11.615  20.266  0.00  0.00    +0.000 S 
ATOM     21  C   UNL     1      -0.536  10.485  19.323  0.00  0.00    +0.000 A 
ENDBRANCH   7  17
TORSDOF 1
ENDMDL
MODEL 4
REMARK VINA RESULT:      -7.7      3.568      6.999
REMARK  Name = 
REMARK  1 active torsions:
REMARK  status: ('A' for Active; 'I' for Inactive)
REMARK    1  A    between atoms: C_7  and  C_8
REMARK                            x       y       z     vdW  Elec       q    Type
REMARK                         _______ _______ _______ _____ _____    ______ ____
ROOT
ATOM      1  O   UNL     1       2.112   2.609  19.929  0.00  0.00    +0.000 OA
ATOM      2  C   UNL     1       2.585   3.526  19.262  0.00  0.00    +0.000 C 
ATOM      3  C   UNL     1       3.431   3.219  18.050  0.00  0.00    +0.000 C 
ATOM      4  O   UNL     1       3.649   2.055  17.728  0.00  0.00    +0.000 OA
ATOM      5  C   UNL     1       3.986   4.341  17.272  0.00  0.00    +0.000 A 
ATOM      6  C   UNL     1       4.776   4.032  16.153  0.00  0.00    +0.000 A 
ATOM      7  C   UNL     1       5.337   5.052  15.385  0.00  0.00    +0.000 A 
ATOM      8  C   UNL     1       5.097   6.376  15.748  0.00  0.00    +0.000 A 
ATOM      9  C   UNL     1       4.311   6.677  16.863  0.00  0.00    +0.000 A 
ATOM     10  C   UNL     1       3.732   5.672  17.659  0.00  0.00    +0.000 A 
ATOM     11  C   UNL     1       2.898   5.971  18.848  0.00  0.00    +0.000 A 
ATOM     12  C   UNL     1       2.613   7.287  19.268  0.00  0.00    +0.000 A 
ATOM     13  C   UNL     1       1.818   7.551  20.391  0.00  0.00    +0.000 A 
ATOM     14  C   UNL     1       1.285   6.507  21.132  0.00  0.00    +0.000 A 
ATOM     15  C   UNL     1       1.546   5.197  20.749  0.00  0.00    +0.000 A 
ATOM     16  C   UNL     1       2.343   4.935  19.620  0.00  0.00    +0.000 A 
ENDROOT
BRANCH   7  17
ATOM     17  C   UNL     1       6.185   4.738  14.249  0.00  0.00    +0.000 A 
ATOM     18  C   UNL     1       7.430   5.357  13.912  0.00  0.00    +0.000 A 
ATOM     19  C   UNL     1       7.981   4.836  12.766  0.00  0.00    +0.000 A 
ATOM     20  S   UNL     1       7.012   3.604  12.086  0.00  0.00    +0.000 S 
ATOM     21  C   UNL     1       5.851   3.763  13.329  0.00  0.00    +0.000 A 
ENDBRANCH   7  17
TORSDOF 1
ENDMDL
MODEL 5
REMARK VINA RESULT:      -7.4      4.025      7.332
REMARK  Name = 
REMARK  1 active torsions:
REMARK  status: ('A' for Active; 'I' for Inactive)
REMARK    1  A    between atoms: C_7  and  C_8
REMARK                            x       y       z     vdW  Elec       q    Type
REMARK                         _______ _______ _______ _____ _____    ______ ____
ROOT
ATOM      1  O   UNL     1       2.212   7.303  19.732  0.00  0.00    +0.000 OA
ATOM      2  C   UNL     1       2.672   6.304  19.185  0.00  0.00    +0.000 C 
ATOM      3  C   UNL     1       3.543   6.447  17.960  0.00  0.00    +0.000 C 
ATOM      4  O   UNL     1       3.792   7.560  17.507  0.00  0.00    +0.000 OA
ATOM      5  C   UNL     1       4.078   5.229  17.326  0.00  0.00    +0.000 A 
ATOM      6  C   UNL     1       4.878   5.386  16.183  0.00  0.00    +0.000 A 
ATOM      7  C   UNL     1       5.404   4.270  15.534  0.00  0.00    +0.000 A 
ATOM      8  C   UNL     1       5.121   3.003  16.040  0.00  0.00    +0.000 A 
ATOM      9  C   UNL     1       4.322   2.853  17.176  0.00  0.00    +0.000 A 
ATOM     10  C   UNL     1       3.776   3.959  17.853  0.00  0.00    +0.000 A 
ATOM     11  C   UNL     1       2.924   3.820  19.059  0.00  0.00    +0.000 A 
ATOM     12  C   UNL     1       2.602   2.569  19.626  0.00  0.00    +0.000 A 
ATOM     13  C   UNL     1       1.799   2.457  20.768  0.00  0.00    +0.000 A 
ATOM     14  C   UNL     1       1.290   3.594  21.379  0.00  0.00    +0.000 A 
ATOM     15  C   UNL     1       1.586   4.843  20.849  0.00  0.00    +0.000 A 
ATOM     16  C   UNL     1       2.392   4.953  19.703  0.00  0.00    +0.000 A 
ENDROOT
BRANCH   7  17
ATOM     17  C   UNL     1       6.202   4.424  14.330  0.00  0.00    +0.000 A 
ATOM     18  C   UNL     1       6.031   3.726  13.093  0.00  0.00    +0.000 A 
ATOM     19  C   UNL     1       6.960   4.096  12.150  0.00  0.00    +0.000 A 
ATOM     20  S   UNL     1       8.041   5.280  12.739  0.00  0.00    +0.000 S 
ATOM     21  C   UNL     1       7.265   5.304  14.261  0.00  0.00    +0.000 A 
ENDBRANCH   7  17
TORSDOF 1
ENDMDL
MODEL 6
REMARK VINA RESULT:      -7.4      3.357      5.635
REMARK  Name = 
REMARK  1 active torsions:
REMARK  status: ('A' for Active; 'I' for Inactive)
REMARK    1  A    between atoms: C_7  and  C_8
REMARK                            x       y       z     vdW  Elec       q    Type
REMARK                         _______ _______ _______ _____ _____    ______ ____
ROOT
ATOM      1  O   UNL     1       2.118   9.898  17.391  0.00  0.00    +0.000 OA
ATOM      2  C   UNL     1       1.630   9.686  18.498  0.00  0.00    +0.000 C 
ATOM      3  C   UNL     1       0.841  10.769  19.194  0.00  0.00    +0.000 C 
ATOM      4  O   UNL     1       0.685  11.861  18.657  0.00  0.00    +0.000 OA
ATOM      5  C   UNL     1       0.270  10.484  20.523  0.00  0.00    +0.000 A 
ATOM      6  C   UNL     1      -0.454  11.508  21.155  0.00  0.00    +0.000 A 
ATOM      7  C   UNL     1      -1.008  11.301  22.417  0.00  0.00    +0.000 A 
ATOM      8  C   UNL     1      -0.831  10.065  23.034  0.00  0.00    +0.000 A 
ATOM      9  C   UNL     1      -0.108   9.050  22.401  0.00  0.00    +0.000 A 
ATOM     10  C   UNL     1       0.464   9.228  21.128  0.00  0.00    +0.000 A 
ATOM     11  C   UNL     1       1.237   8.165  20.441  0.00  0.00    +0.000 A 
ATOM     12  C   UNL     1       1.450   6.890  21.007  0.00  0.00    +0.000 A 
ATOM     13  C   UNL     1       2.179   5.896  20.341  0.00  0.00    +0.000 A 
ATOM     14  C   UNL     1       2.720   6.146  19.089  0.00  0.00    +0.000 A 
ATOM     15  C   UNL     1       2.531   7.391  18.501  0.00  0.00    +0.000 A 
ATOM     16  C   UNL     1       1.798   8.386  19.170  0.00  0.00    +0.000 A 
ENDROOT
BRANCH   7  17
ATOM     17  C   UNL     1      -1.726  12.369  23.092  0.00  0.00    +0.000 A 
ATOM     18  C   UNL     1      -3.071  12.323  23.578  0.00  0.00    +0.000 A 
ATOM     19  C   UNL     1      -3.457  13.506  24.161  0.00  0.00    +0.000 A 
ATOM     20  S   UNL     1      -2.215  14.678  24.129  0.00  0.00    +0.000 S 
ATOM     21  C   UNL     1      -1.152  13.601  23.335  0.00  0.00    +0.000 A 
ENDBRANCH   7  17
TORSDOF 1
ENDMDL
MODEL 7
REMARK VINA RESULT:      -7.4      2.256      3.756
REMARK  Name = 
REMARK  1 active torsions:
REMARK  status: ('A' for Active; 'I' for Inactive)
REMARK    1  A    between atoms: C_7  and  C_8
REMARK                            x       y       z     vdW  Elec       q    Type
REMARK                         _______ _______ _______ _____ _____    ______ ____
ROOT
ATOM      1  O   UNL     1       4.756   4.611  17.248  0.00  0.00    +0.000 OA
ATOM      2  C   UNL     1       3.992   5.212  17.999  0.00  0.00    +0.000 C 
ATOM      3  C   UNL     1       3.607   6.641  17.699  0.00  0.00    +0.000 C 
ATOM      4  O   UNL     1       4.056   7.205  16.707  0.00  0.00    +0.000 OA
ATOM      5  C   UNL     1       2.691   7.335  18.621  0.00  0.00    +0.000 A 
ATOM      6  C   UNL     1       2.353   8.666  18.327  0.00  0.00    +0.000 A 
ATOM      7  C   UNL     1       1.498   9.377  19.169  0.00  0.00    +0.000 A 
ATOM      8  C   UNL     1       0.989   8.743  20.300  0.00  0.00    +0.000 A 
ATOM      9  C   UNL     1       1.330   7.420  20.589  0.00  0.00    +0.000 A 
ATOM     10  C   UNL     1       2.190   6.675  19.760  0.00  0.00    +0.000 A 
ATOM     11  C   UNL     1       2.566   5.270  20.051  0.00  0.00    +0.000 A 
ATOM     12  C   UNL     1       2.084   4.569  21.176  0.00  0.00    +0.000 A 
ATOM     13  C   UNL     1       2.447   3.240  21.432  0.00  0.00    +0.000 A 
ATOM     14  C   UNL     1       3.305   2.571  20.572  0.00  0.00    +0.000 A 
ATOM     15  C   UNL     1       3.801   3.231  19.455  0.00  0.00    +0.000 A 
ATOM     16  C   UNL     1       3.435   4.564  19.199  0.00  0.00    +0.000 A 
ENDROOT
BRANCH   7  17
ATOM     17  C   UNL     1       1.175  10.765  18.889  0.00  0.00    +0.000 A 
ATOM     18  C   UNL     1       2.091  11.802  18.525  0.00  0.00    +0.000 A 
ATOM     19  C   UNL     1       1.466  13.011  18.337  0.00  0.00    +0.000 A 
ATOM     20  S   UNL     1      -0.220  12.913  18.596  0.00  0.00    +0.000 S 
ATOM     21  C   UNL     1      -0.118  11.246  18.958  0.00  0.00    +0.000 A 
ENDBRANCH   7  17
TORSDOF 1
ENDMDL
MODEL 8
REMARK VINA RESULT:      -7.2      2.103      3.592
REMARK  Name = 
REMARK  1 active torsions:
REMARK  status: ('A' for Active; 'I' for Inactive)
REMARK    1  A    between atoms: C_7  and  C_8
REMARK                            x       y       z     vdW  Elec       q    Type
REMARK                         _______ _______ _______ _____ _____    ______ ____
ROOT
ATOM      1  O   UNL     1       4.531   5.000  17.254  0.00  0.00    +0.000 OA
ATOM      2  C   UNL     1       3.774   5.456  18.107  0.00  0.00    +0.000 C 
ATOM      3  C   UNL     1       3.276   6.877  17.993  0.00  0.00    +0.000 C 
ATOM      4  O   UNL     1       3.627   7.579  17.050  0.00  0.00    +0.000 OA
ATOM      5  C   UNL     1       2.370   7.395  19.034  0.00  0.00    +0.000 A 
ATOM      6  C   UNL     1       1.927   8.721  18.911  0.00  0.00    +0.000 A 
ATOM      7  C   UNL     1       1.077   9.270  19.871  0.00  0.00    +0.000 A 
ATOM      8  C   UNL     1       0.679   8.480  20.946  0.00  0.00    +0.000 A 
ATOM      9  C   UNL     1       1.125   7.161  21.064  0.00  0.00    +0.000 A 
ATOM     10  C   UNL     1       1.983   6.578  20.114  0.00  0.00    +0.000 A 
ATOM     11  C   UNL     1       2.470   5.181  20.222  0.00  0.00    +0.000 A 
ATOM     12  C   UNL     1       2.103   4.326  21.282  0.00  0.00    +0.000 A 
ATOM     13  C   UNL     1       2.569   3.008  21.366  0.00  0.00    +0.000 A 
ATOM     14  C   UNL     1       3.419   2.503  20.393  0.00  0.00    +0.000 A 
ATOM     15  C   UNL     1       3.803   3.317  19.335  0.00  0.00    +0.000 A 
ATOM     16  C   UNL     1       3.333   4.639  19.252  0.00  0.00    +0.000 A 
ENDROOT
BRANCH   7  17
ATOM     17  C   UNL     1       0.645  10.653  19.769  0.00  0.00    +0.000 A 
ATOM     18  C   UNL     1      -0.207  11.212  18.765  0.00  0.00    +0.000 A 
ATOM     19  C   UNL     1      -0.418  12.558  18.947  0.00  0.00    +0.000 A 
ATOM     20  S   UNL     1       0.402  13.160  20.319  0.00  0.00    +0.000 S 
ATOM     21  C   UNL     1       1.041  11.616  20.676  0.00  0.00    +0.000 A 
ENDBRANCH   7  17
TORSDOF 1
ENDMDL
MODEL 9
REMARK VINA RESULT:      -7.2      3.058      7.267
REMARK  Name = 
REMARK  1 active torsions:
REMARK  status: ('A' for Active; 'I' for Inactive)
REMARK    1  A    between atoms: C_7  and  C_8
REMARK                            x       y       z     vdW  Elec       q    Type
REMARK                         _______ _______ _______ _____ _____    ______ ____
ROOT
ATOM      1  O   UNL     1      -0.455  11.025  23.081  0.00  0.00    +0.000 OA
ATOM      2  C   UNL     1      -0.066  10.733  21.953  0.00  0.00    +0.000 C 
ATOM      3  C   UNL     1       0.664   9.432  21.719  0.00  0.00    +0.000 C 
ATOM      4  O   UNL     1       0.870   8.665  22.653  0.00  0.00    +0.000 OA
ATOM      5  C   UNL     1       1.120   9.112  20.354  0.00  0.00    +0.000 A 
ATOM      6  C   UNL     1       1.803   7.901  20.162  0.00  0.00    +0.000 A 
ATOM      7  C   UNL     1       2.268   7.550  18.895  0.00  0.00    +0.000 A 
ATOM      8  C   UNL     1       2.040   8.419  17.831  0.00  0.00    +0.000 A 
ATOM      9  C   UNL     1       1.361   9.624  18.029  0.00  0.00    +0.000 A 
ATOM     10  C   UNL     1       0.881  10.008  19.294  0.00  0.00    +0.000 A 
ATOM     11  C   UNL     1       0.161  11.284  19.525  0.00  0.00    +0.000 A 
ATOM     12  C   UNL     1      -0.106  12.207  18.493  0.00  0.00    +0.000 A 
ATOM     13  C   UNL     1      -0.792  13.405  18.729  0.00  0.00    +0.000 A 
ATOM     14  C   UNL     1      -1.231  13.720  20.006  0.00  0.00    +0.000 A 
ATOM     15  C   UNL     1      -0.986  12.835  21.049  0.00  0.00    +0.000 A 
ATOM     16  C   UNL     1      -0.298  11.633  20.809  0.00  0.00    +0.000 A 
ENDROOT
BRANCH   7  17
ATOM     17  C   UNL     1       3.007   6.315  18.697  0.00  0.00    +0.000 A 
ATOM     18  C   UNL     1       3.777   5.953  17.547  0.00  0.00    +0.000 A 
ATOM     19  C   UNL     1       4.347   4.708  17.670  0.00  0.00    +0.000 A 
ATOM     20  S   UNL     1       3.965   3.967  19.160  0.00  0.00    +0.000 S 
ATOM     21  C   UNL     1       3.035   5.315  19.649  0.00  0.00    +0.000 A 
ENDBRANCH   7  17
TORSDOF 1
ENDMDL
