MODEL 1
REMARK VINA RESULT:      -7.4      0.000      0.000
REMARK  Name = 
REMARK  6 active torsions:
REMARK  status: ('A' for Active; 'I' for Inactive)
REMARK    1  A    between atoms: C_1  and  N_2
REMARK    2  A    between atoms: C_4  and  C_5
REMARK    3  A    between atoms: C_7  and  C_8
REMARK    4  A    between atoms: N_11  and  C_12
REMARK    5  A    between atoms: C_17  and  O_18
REMARK    6  A    between atoms: C_17  and  C_19
REMARK                            x       y       z     vdW  Elec       q    Type
REMARK                         _______ _______ _______ _____ _____    ______ ____
ROOT
ATOM      1  C   UNL     1      -3.370  10.806  16.011  0.00  0.00    +0.000 A 
ATOM      2  C   UNL     1      -2.201  10.671  16.790  0.00  0.00    +0.000 A 
ATOM      3  C   UNL     1      -2.114  11.108  18.134  0.00  0.00    +0.000 A 
ATOM      4  C   UNL     1      -3.245  11.708  18.702  0.00  0.00    +0.000 A 
ATOM      5  C   UNL     1      -4.431  11.815  17.918  0.00  0.00    +0.000 A 
ATOM      6  C   UNL     1      -4.497  11.393  16.587  0.00  0.00    +0.000 A 
ATOM      7  C   UNL     1      -5.575  12.418  18.728  0.00  0.00    +0.000 C 
ATOM      8  C   UNL     1      -4.917  12.607  20.095  0.00  0.00    +0.000 A 
ATOM      9  C   UNL     1      -5.497  13.079  21.259  0.00  0.00    +0.000 A 
ATOM     10  C   UNL     1      -4.727  13.178  22.409  0.00  0.00    +0.000 A 
ATOM     11  C   UNL     1      -3.353  12.891  22.350  0.00  0.00    +0.000 A 
ATOM     12  C   UNL     1      -2.765  12.483  21.150  0.00  0.00    +0.000 A 
ATOM     13  C   UNL     1      -3.550  12.253  20.024  0.00  0.00    +0.000 A 
ENDROOT
BRANCH   1  17
ATOM     14  C   UNL     1      -4.971   9.547  11.475  0.00  0.00    +0.000 C 
ATOM     15  N   UNL     1      -4.155   9.744  12.649  0.00  0.00    +0.000 N 
ATOM     16  C   UNL     1      -4.533  10.320  13.827  0.00  0.00    +0.000 A 
ATOM     17  C   UNL     1      -3.427  10.292  14.650  0.00  0.00    +0.000 A 
ATOM     18  C   UNL     1      -2.433   9.670  13.855  0.00  0.00    +0.000 A 
ATOM     19  N   UNL     1      -2.873   9.333  12.639  0.00  0.00    +0.000 NA
ENDBRANCH   1  17
BRANCH   3  20
ATOM     20  C   UNL     1      -0.869  10.851  18.851  0.00  0.00    +0.000 A 
ATOM     21  C   UNL     1       0.340  11.580  18.929  0.00  0.00    +0.000 A 
ATOM     22  N   UNL     1       1.262  10.987  19.690  0.00  0.00    +0.000 NA
ATOM     23  N   UNL     1       0.615   9.922  20.188  0.00  0.00    +0.000 N 
ATOM     24  C   UNL     1       1.271   9.071  21.152  0.00  0.00    +0.000 C 
ATOM     25  C   UNL     1      -0.675   9.814  19.747  0.00  0.00    +0.000 A 
ENDBRANCH   3  20
BRANCH   7  26
ATOM     26  C   UNL     1      -6.879  11.557  18.762  0.00  0.00    +0.000 C 
ATOM     27  F   UNL     1      -6.635  10.230  18.874  0.00  0.00    +0.000 F 
ATOM     28  F   UNL     1      -7.736  11.886  19.751  0.00  0.00    +0.000 F 
ATOM     29  F   UNL     1      -7.553  11.717  17.589  0.00  0.00    +0.000 F 
ENDBRANCH   7  26
BRANCH   7  30
ATOM     30  O   UNL     1      -5.784  13.739  18.193  0.00  0.00    +0.000 OA
ATOM     31  H   UNL     1      -4.956  14.018  17.767  0.00  0.00    +0.000 HD
ENDBRANCH   7  30
TORSDOF 4
ENDMDL
MODEL 2
REMARK VINA RESULT:      -7.3      3.646      5.944
REMARK  Name = 
REMARK  6 active torsions:
REMARK  status: ('A' for Active; 'I' for Inactive)
REMARK    1  A    between atoms: C_1  and  N_2
REMARK    2  A    between atoms: C_4  and  C_5
REMARK    3  A    between atoms: C_7  and  C_8
REMARK    4  A    between atoms: N_11  and  C_12
REMARK    5  A    between atoms: C_17  and  O_18
REMARK    6  A    between atoms: C_17  and  C_19
REMARK                            x       y       z     vdW  Elec       q    Type
REMARK                         _______ _______ _______ _____ _____    ______ ____
ROOT
ATOM      1  C   UNL     1      -0.545  13.042  19.074  0.00  0.00    +0.000 A 
ATOM      2  C   UNL     1      -1.125  13.441  20.297  0.00  0.00    +0.000 A 
ATOM      3  C   UNL     1      -2.472  13.164  20.638  0.00  0.00    +0.000 A 
ATOM      4  C   UNL     1      -3.255  12.471  19.707  0.00  0.00    +0.000 A 
ATOM      5  C   UNL     1      -2.653  12.046  18.486  0.00  0.00    +0.000 A 
ATOM      6  C   UNL     1      -1.327  12.341  18.156  0.00  0.00    +0.000 A 
ATOM      7  C   UNL     1      -3.634  11.241  17.639  0.00  0.00    +0.000 C 
ATOM      8  C   UNL     1      -4.867  11.211  18.542  0.00  0.00    +0.000 A 
ATOM      9  C   UNL     1      -6.071  10.569  18.314  0.00  0.00    +0.000 A 
ATOM     10  C   UNL     1      -7.079  10.661  19.262  0.00  0.00    +0.000 A 
ATOM     11  C   UNL     1      -6.898  11.481  20.389  0.00  0.00    +0.000 A 
ATOM     12  C   UNL     1      -5.703  12.180  20.572  0.00  0.00    +0.000 A 
ATOM     13  C   UNL     1      -4.637  11.993  19.697  0.00  0.00    +0.000 A 
ENDROOT
BRANCH   1  17
ATOM     14  C   UNL     1       3.797  15.343  18.313  0.00  0.00    +0.000 C 
ATOM     15  N   UNL     1       2.769  14.340  18.459  0.00  0.00    +0.000 N 
ATOM     16  C   UNL     1       1.453  14.547  18.753  0.00  0.00    +0.000 A 
ATOM     17  C   UNL     1       0.859  13.303  18.791  0.00  0.00    +0.000 A 
ATOM     18  C   UNL     1       1.923  12.415  18.500  0.00  0.00    +0.000 A 
ATOM     19  N   UNL     1       3.085  13.042  18.295  0.00  0.00    +0.000 NA
ENDBRANCH   1  17
BRANCH   3  20
ATOM     20  C   UNL     1      -2.933  13.573  21.961  0.00  0.00    +0.000 A 
ATOM     21  C   UNL     1      -3.032  12.868  23.182  0.00  0.00    +0.000 A 
ATOM     22  N   UNL     1      -3.529  13.606  24.176  0.00  0.00    +0.000 NA
ATOM     23  N   UNL     1      -3.659  14.822  23.624  0.00  0.00    +0.000 N 
ATOM     24  C   UNL     1      -4.088  15.936  24.436  0.00  0.00    +0.000 C 
ATOM     25  C   UNL     1      -3.281  14.866  22.311  0.00  0.00    +0.000 A 
ENDBRANCH   3  20
BRANCH   7  26
ATOM     26  C   UNL     1      -3.122   9.827  17.213  0.00  0.00    +0.000 C 
ATOM     27  F   UNL     1      -3.467   9.498  15.946  0.00  0.00    +0.000 F 
ATOM     28  F   UNL     1      -1.785   9.668  17.312  0.00  0.00    +0.000 F 
ATOM     29  F   UNL     1      -3.690   8.883  18.014  0.00  0.00    +0.000 F 
ENDBRANCH   7  26
BRANCH   7  30
ATOM     30  O   UNL     1      -3.971  12.081  16.518  0.00  0.00    +0.000 OA
ATOM     31  H   UNL     1      -4.716  11.664  16.053  0.00  0.00    +0.000 HD
ENDBRANCH   7  30
TORSDOF 4
ENDMDL
MODEL 3
REMARK VINA RESULT:      -7.0      0.738      1.297
REMARK  Name = 
REMARK  6 active torsions:
REMARK  status: ('A' for Active; 'I' for Inactive)
REMARK    1  A    between atoms: C_1  and  N_2
REMARK    2  A    between atoms: C_4  and  C_5
REMARK    3  A    between atoms: C_7  and  C_8
REMARK    4  A    between atoms: N_11  and  C_12
REMARK    5  A    between atoms: C_17  and  O_18
REMARK    6  A    between atoms: C_17  and  C_19
REMARK                            x       y       z     vdW  Elec       q    Type
REMARK                         _______ _______ _______ _____ _____    ______ ____
ROOT
ATOM      1  C   UNL     1      -3.426  10.931  15.991  0.00  0.00    +0.000 A 
ATOM      2  C   UNL     1      -2.193  11.048  16.666  0.00  0.00    +0.000 A 
ATOM      3  C   UNL     1      -2.081  11.538  17.990  0.00  0.00    +0.000 A 
ATOM      4  C   UNL     1      -3.256  11.930  18.645  0.00  0.00    +0.000 A 
ATOM      5  C   UNL     1      -4.501  11.782  17.966  0.00  0.00    +0.000 A 
ATOM      6  C   UNL     1      -4.594  11.311  16.653  0.00  0.00    +0.000 A 
ATOM      7  C   UNL     1      -5.668  12.182  18.863  0.00  0.00    +0.000 C 
ATOM      8  C   UNL     1      -4.948  12.539  20.164  0.00  0.00    +0.000 A 
ATOM      9  C   UNL     1      -5.510  12.930  21.366  0.00  0.00    +0.000 A 
ATOM     10  C   UNL     1      -4.681  13.213  22.442  0.00  0.00    +0.000 A 
ATOM     11  C   UNL     1      -3.287  13.192  22.267  0.00  0.00    +0.000 A 
ATOM     12  C   UNL     1      -2.733  12.863  21.028  0.00  0.00    +0.000 A 
ATOM     13  C   UNL     1      -3.549  12.451  19.979  0.00  0.00    +0.000 A 
ENDROOT
BRANCH   1  17
ATOM     14  C   UNL     1      -5.071   9.511  11.518  0.00  0.00    +0.000 C 
ATOM     15  N   UNL     1      -4.243   9.752  12.675  0.00  0.00    +0.000 N 
ATOM     16  C   UNL     1      -4.612  10.366  13.837  0.00  0.00    +0.000 A 
ATOM     17  C   UNL     1      -3.496  10.371  14.649  0.00  0.00    +0.000 A 
ATOM     18  C   UNL     1      -2.508   9.726  13.865  0.00  0.00    +0.000 A 
ATOM     19  N   UNL     1      -2.960   9.346  12.666  0.00  0.00    +0.000 NA
ENDBRANCH   1  17
BRANCH   3  20
ATOM     20  C   UNL     1      -0.755  11.548  18.599  0.00  0.00    +0.000 A 
ATOM     21  C   UNL     1       0.030  10.515  19.160  0.00  0.00    +0.000 A 
ATOM     22  N   UNL     1       1.200  10.944  19.638  0.00  0.00    +0.000 NA
ATOM     23  N   UNL     1       1.216  12.242  19.296  0.00  0.00    +0.000 N 
ATOM     24  C   UNL     1       2.390  13.039  19.564  0.00  0.00    +0.000 C 
ATOM     25  C   UNL     1       0.087  12.645  18.639  0.00  0.00    +0.000 A 
ENDBRANCH   3  20
BRANCH   7  26
ATOM     26  C   UNL     1      -6.774  11.090  19.026  0.00  0.00    +0.000 C 
ATOM     27  F   UNL     1      -7.228  10.615  17.843  0.00  0.00    +0.000 F 
ATOM     28  F   UNL     1      -6.395  10.022  19.761  0.00  0.00    +0.000 F 
ATOM     29  F   UNL     1      -7.855  11.634  19.652  0.00  0.00    +0.000 F 
ENDBRANCH   7  26
BRANCH   7  30
ATOM     30  O   UNL     1      -6.173  13.421  18.326  0.00  0.00    +0.000 OA
ATOM     31  H   UNL     1      -7.062  13.559  18.693  0.00  0.00    +0.000 HD
ENDBRANCH   7  30
TORSDOF 4
ENDMDL
MODEL 4
REMARK VINA RESULT:      -6.9      3.911      6.387
REMARK  Name = 
REMARK  6 active torsions:
REMARK  status: ('A' for Active; 'I' for Inactive)
REMARK    1  A    between atoms: C_1  and  N_2
REMARK    2  A    between atoms: C_4  and  C_5
REMARK    3  A    between atoms: C_7  and  C_8
REMARK    4  A    between atoms: N_11  and  C_12
REMARK    5  A    between atoms: C_17  and  O_18
REMARK    6  A    between atoms: C_17  and  C_19
REMARK                            x       y       z     vdW  Elec       q    Type
REMARK                         _______ _______ _______ _____ _____    ______ ____
ROOT
ATOM      1  C   UNL     1      -0.506  13.266  19.795  0.00  0.00    +0.000 A 
ATOM      2  C   UNL     1      -1.298  13.731  20.866  0.00  0.00    +0.000 A 
ATOM      3  C   UNL     1      -2.683  13.454  20.978  0.00  0.00    +0.000 A 
ATOM      4  C   UNL     1      -3.282  12.690  19.969  0.00  0.00    +0.000 A 
ATOM      5  C   UNL     1      -2.468  12.199  18.905  0.00  0.00    +0.000 A 
ATOM      6  C   UNL     1      -1.106  12.495  18.800  0.00  0.00    +0.000 A 
ATOM      7  C   UNL     1      -3.277  11.325  17.952  0.00  0.00    +0.000 C 
ATOM      8  C   UNL     1      -4.652  11.332  18.619  0.00  0.00    +0.000 A 
ATOM      9  C   UNL     1      -5.792  10.656  18.221  0.00  0.00    +0.000 A 
ATOM     10  C   UNL     1      -6.954  10.791  18.966  0.00  0.00    +0.000 A 
ATOM     11  C   UNL     1      -6.983  11.683  20.051  0.00  0.00    +0.000 A 
ATOM     12  C   UNL     1      -5.844  12.413  20.399  0.00  0.00    +0.000 A 
ATOM     13  C   UNL     1      -4.637  12.189  19.743  0.00  0.00    +0.000 A 
ENDROOT
BRANCH   1  17
ATOM     14  C   UNL     1       4.059  14.440  18.210  0.00  0.00    +0.000 C 
ATOM     15  N   UNL     1       2.935  14.055  19.030  0.00  0.00    +0.000 N 
ATOM     16  C   UNL     1       1.639  13.906  18.632  0.00  0.00    +0.000 A 
ATOM     17  C   UNL     1       0.925  13.532  19.752  0.00  0.00    +0.000 A 
ATOM     18  C   UNL     1       1.905  13.484  20.773  0.00  0.00    +0.000 A 
ATOM     19  N   UNL     1       3.128  13.799  20.338  0.00  0.00    +0.000 NA
ENDBRANCH   1  17
BRANCH   3  20
ATOM     20  C   UNL     1      -3.376  13.938  22.168  0.00  0.00    +0.000 A 
ATOM     21  C   UNL     1      -3.539  13.376  23.455  0.00  0.00    +0.000 A 
ATOM     22  N   UNL     1      -4.271  14.138  24.271  0.00  0.00    +0.000 NA
ATOM     23  N   UNL     1      -4.498  15.242  23.543  0.00  0.00    +0.000 N 
ATOM     24  C   UNL     1      -5.192  16.361  24.136  0.00  0.00    +0.000 C 
ATOM     25  C   UNL     1      -3.953  15.189  22.290  0.00  0.00    +0.000 A 
ENDBRANCH   3  20
BRANCH   7  26
ATOM     26  C   UNL     1      -2.689   9.896  17.717  0.00  0.00    +0.000 C 
ATOM     27  F   UNL     1      -1.630   9.621  18.513  0.00  0.00    +0.000 F 
ATOM     28  F   UNL     1      -3.580   8.895  17.883  0.00  0.00    +0.000 F 
ATOM     29  F   UNL     1      -2.230   9.804  16.437  0.00  0.00    +0.000 F 
ENDBRANCH   7  26
BRANCH   7  30
ATOM     30  O   UNL     1      -3.412  12.087  16.735  0.00  0.00    +0.000 OA
ATOM     31  H   UNL     1      -2.561  12.044  16.267  0.00  0.00    +0.000 HD
ENDBRANCH   7  30
TORSDOF 4
ENDMDL
MODEL 5
REMARK VINA RESULT:      -6.7      3.138      6.605
REMARK  Name = 
REMARK  6 active torsions:
REMARK  status: ('A' for Active; 'I' for Inactive)
REMARK    1  A    between atoms: C_1  and  N_2
REMARK    2  A    between atoms: C_4  and  C_5
REMARK    3  A    between atoms: C_7  and  C_8
REMARK    4  A    between atoms: N_11  and  C_12
REMARK    5  A    between atoms: C_17  and  O_18
REMARK    6  A    between atoms: C_17  and  C_19
REMARK                            x       y       z     vdW  Elec       q    Type
REMARK                         _______ _______ _______ _____ _____    ______ ____
ROOT
ATOM      1  C   UNL     1      -4.411  13.831  21.653  0.00  0.00    +0.000 A 
ATOM      2  C   UNL     1      -3.023  13.580  21.640  0.00  0.00    +0.000 A 
ATOM      3  C   UNL     1      -2.395  12.768  20.664  0.00  0.00    +0.000 A 
ATOM      4  C   UNL     1      -3.202  12.187  19.677  0.00  0.00    +0.000 A 
ATOM      5  C   UNL     1      -4.599  12.469  19.680  0.00  0.00    +0.000 A 
ATOM      6  C   UNL     1      -5.207  13.260  20.660  0.00  0.00    +0.000 A 
ATOM      7  C   UNL     1      -5.296  11.817  18.490  0.00  0.00    +0.000 C 
ATOM      8  C   UNL     1      -4.120  11.158  17.769  0.00  0.00    +0.000 A 
ATOM      9  C   UNL     1      -4.141  10.453  16.579  0.00  0.00    +0.000 A 
ATOM     10  C   UNL     1      -2.958   9.926  16.081  0.00  0.00    +0.000 A 
ATOM     11  C   UNL     1      -1.780  10.032  16.840  0.00  0.00    +0.000 A 
ATOM     12  C   UNL     1      -1.787  10.685  18.074  0.00  0.00    +0.000 A 
ATOM     13  C   UNL     1      -2.936  11.331  18.522  0.00  0.00    +0.000 A 
ENDROOT
BRANCH   1  17
ATOM     14  C   UNL     1      -5.037  17.397  25.061  0.00  0.00    +0.000 C 
ATOM     15  N   UNL     1      -5.257  16.300  24.150  0.00  0.00    +0.000 N 
ATOM     16  C   UNL     1      -4.339  15.717  23.326  0.00  0.00    +0.000 A 
ATOM     17  C   UNL     1      -5.002  14.717  22.645  0.00  0.00    +0.000 A 
ATOM     18  C   UNL     1      -6.325  14.789  23.148  0.00  0.00    +0.000 A 
ATOM     19  N   UNL     1      -6.483  15.749  24.064  0.00  0.00    +0.000 NA
ENDBRANCH   1  17
BRANCH   3  20
ATOM     20  C   UNL     1      -0.942  12.640  20.722  0.00  0.00    +0.000 A 
ATOM     21  C   UNL     1      -0.106  11.683  21.341  0.00  0.00    +0.000 A 
ATOM     22  N   UNL     1       1.194  11.934  21.173  0.00  0.00    +0.000 NA
ATOM     23  N   UNL     1       1.200  13.001  20.359  0.00  0.00    +0.000 N 
ATOM     24  C   UNL     1       2.455  13.517  19.865  0.00  0.00    +0.000 C 
ATOM     25  C   UNL     1      -0.052  13.440  20.028  0.00  0.00    +0.000 A 
ENDBRANCH   3  20
BRANCH   7  26
ATOM     26  C   UNL     1      -6.122  12.799  17.597  0.00  0.00    +0.000 C 
ATOM     27  F   UNL     1      -6.355  13.990  18.194  0.00  0.00    +0.000 F 
ATOM     28  F   UNL     1      -5.563  13.060  16.396  0.00  0.00    +0.000 F 
ATOM     29  F   UNL     1      -7.347  12.257  17.349  0.00  0.00    +0.000 F 
ENDBRANCH   7  26
BRANCH   7  30
ATOM     30  O   UNL     1      -6.090  10.745  19.035  0.00  0.00    +0.000 OA
ATOM     31  H   UNL     1      -6.386  11.020  19.919  0.00  0.00    +0.000 HD
ENDBRANCH   7  30
TORSDOF 4
ENDMDL
MODEL 6
REMARK VINA RESULT:      -6.7      1.293      1.650
REMARK  Name = 
REMARK  6 active torsions:
REMARK  status: ('A' for Active; 'I' for Inactive)
REMARK    1  A    between atoms: C_1  and  N_2
REMARK    2  A    between atoms: C_4  and  C_5
REMARK    3  A    between atoms: C_7  and  C_8
REMARK    4  A    between atoms: N_11  and  C_12
REMARK    5  A    between atoms: C_17  and  O_18
REMARK    6  A    between atoms: C_17  and  C_19
REMARK                            x       y       z     vdW  Elec       q    Type
REMARK                         _______ _______ _______ _____ _____    ______ ____
ROOT
ATOM      1  C   UNL     1      -3.345  11.269  17.124  0.00  0.00    +0.000 A 
ATOM      2  C   UNL     1      -2.183  11.412  17.911  0.00  0.00    +0.000 A 
ATOM      3  C   UNL     1      -2.203  11.927  19.231  0.00  0.00    +0.000 A 
ATOM      4  C   UNL     1      -3.438  12.316  19.763  0.00  0.00    +0.000 A 
ATOM      5  C   UNL     1      -4.612  12.142  18.972  0.00  0.00    +0.000 A 
ATOM      6  C   UNL     1      -4.574  11.647  17.666  0.00  0.00    +0.000 A 
ATOM      7  C   UNL     1      -5.863  12.544  19.747  0.00  0.00    +0.000 C 
ATOM      8  C   UNL     1      -5.274  12.932  21.102  0.00  0.00    +0.000 A 
ATOM      9  C   UNL     1      -5.952  13.338  22.238  0.00  0.00    +0.000 A 
ATOM     10  C   UNL     1      -5.233  13.649  23.383  0.00  0.00    +0.000 A 
ATOM     11  C   UNL     1      -3.828  13.641  23.342  0.00  0.00    +0.000 A 
ATOM     12  C   UNL     1      -3.155  13.298  22.168  0.00  0.00    +0.000 A 
ATOM     13  C   UNL     1      -3.863  12.857  21.054  0.00  0.00    +0.000 A 
ENDROOT
BRANCH   1  17
ATOM     14  C   UNL     1      -4.467   9.923  12.470  0.00  0.00    +0.000 C 
ATOM     15  N   UNL     1      -3.796  10.101  13.736  0.00  0.00    +0.000 N 
ATOM     16  C   UNL     1      -4.258  10.783  14.824  0.00  0.00    +0.000 A 
ATOM     17  C   UNL     1      -3.280  10.685  15.793  0.00  0.00    +0.000 A 
ATOM     18  C   UNL     1      -2.269   9.912  15.171  0.00  0.00    +0.000 A 
ATOM     19  N   UNL     1      -2.580   9.554  13.921  0.00  0.00    +0.000 NA
ENDBRANCH   1  17
BRANCH   3  20
ATOM     20  C   UNL     1      -0.941  11.963  19.963  0.00  0.00    +0.000 A 
ATOM     21  C   UNL     1      -0.353  11.051  20.869  0.00  0.00    +0.000 A 
ATOM     22  N   UNL     1       0.823  11.467  21.344  0.00  0.00    +0.000 NA
ATOM     23  N   UNL     1       1.045  12.606  20.668  0.00  0.00    +0.000 N 
ATOM     24  C   UNL     1       2.291  13.312  20.845  0.00  0.00    +0.000 C 
ATOM     25  C   UNL     1       0.038  12.928  19.801  0.00  0.00    +0.000 A 
ENDBRANCH   3  20
BRANCH   7  26
ATOM     26  C   UNL     1      -6.968  11.442  19.823  0.00  0.00    +0.000 C 
ATOM     27  F   UNL     1      -6.468  10.204  20.046  0.00  0.00    +0.000 F 
ATOM     28  F   UNL     1      -7.909  11.664  20.765  0.00  0.00    +0.000 F 
ATOM     29  F   UNL     1      -7.619  11.374  18.628  0.00  0.00    +0.000 F 
ENDBRANCH   7  26
BRANCH   7  30
ATOM     30  O   UNL     1      -6.327  13.767  19.141  0.00  0.00    +0.000 OA
ATOM     31  H   UNL     1      -7.260  13.641  18.903  0.00  0.00    +0.000 HD
ENDBRANCH   7  30
TORSDOF 4
ENDMDL
MODEL 7
REMARK VINA RESULT:      -6.6      4.532      7.554
REMARK  Name = 
REMARK  6 active torsions:
REMARK  status: ('A' for Active; 'I' for Inactive)
REMARK    1  A    between atoms: C_1  and  N_2
REMARK    2  A    between atoms: C_4  and  C_5
REMARK    3  A    between atoms: C_7  and  C_8
REMARK    4  A    between atoms: N_11  and  C_12
REMARK    5  A    between atoms: C_17  and  O_18
REMARK    6  A    between atoms: C_17  and  C_19
REMARK                            x       y       z     vdW  Elec       q    Type
REMARK                         _______ _______ _______ _____ _____    ______ ____
ROOT
ATOM      1  C   UNL     1      -0.087  13.936  21.013  0.00  0.00    +0.000 A 
ATOM      2  C   UNL     1      -1.260  14.224  21.741  0.00  0.00    +0.000 A 
ATOM      3  C   UNL     1      -2.540  13.752  21.360  0.00  0.00    +0.000 A 
ATOM      4  C   UNL     1      -2.632  12.972  20.200  0.00  0.00    +0.000 A 
ATOM      5  C   UNL     1      -1.437  12.662  19.486  0.00  0.00    +0.000 A 
ATOM      6  C   UNL     1      -0.183  13.148  19.866  0.00  0.00    +0.000 A 
ATOM      7  C   UNL     1      -1.726  11.741  18.304  0.00  0.00    +0.000 C 
ATOM      8  C   UNL     1      -3.231  11.519  18.447  0.00  0.00    +0.000 A 
ATOM      9  C   UNL     1      -4.049  10.716  17.672  0.00  0.00    +0.000 A 
ATOM     10  C   UNL     1      -5.403  10.645  17.963  0.00  0.00    +0.000 A 
ATOM     11  C   UNL     1      -5.938  11.460  18.975  0.00  0.00    +0.000 A 
ATOM     12  C   UNL     1      -5.112  12.319  19.704  0.00  0.00    +0.000 A 
ATOM     13  C   UNL     1      -3.734  12.303  19.511  0.00  0.00    +0.000 A 
ENDROOT
BRANCH   1  17
ATOM     14  C   UNL     1       4.815  14.402  21.710  0.00  0.00    +0.000 C 
ATOM     15  N   UNL     1       3.385  14.589  21.769  0.00  0.00    +0.000 N 
ATOM     16  C   UNL     1       2.432  13.859  21.120  0.00  0.00    +0.000 A 
ATOM     17  C   UNL     1       1.214  14.400  21.475  0.00  0.00    +0.000 A 
ATOM     18  C   UNL     1       1.560  15.458  22.351  0.00  0.00    +0.000 A 
ATOM     19  N   UNL     1       2.878  15.574  22.534  0.00  0.00    +0.000 NA
ENDBRANCH   1  17
BRANCH   3  20
ATOM     20  C   UNL     1      -3.666  14.065  22.234  0.00  0.00    +0.000 A 
ATOM     21  C   UNL     1      -4.358  13.289  23.191  0.00  0.00    +0.000 A 
ATOM     22  N   UNL     1      -5.360  13.948  23.778  0.00  0.00    +0.000 NA
ATOM     23  N   UNL     1      -5.254  15.186  23.271  0.00  0.00    +0.000 N 
ATOM     24  C   UNL     1      -6.125  16.233  23.750  0.00  0.00    +0.000 C 
ATOM     25  C   UNL     1      -4.233  15.320  22.371  0.00  0.00    +0.000 A 
ENDBRANCH   3  20
BRANCH   7  26
ATOM     26  C   UNL     1      -0.885  10.423  18.282  0.00  0.00    +0.000 C 
ATOM     27  F   UNL     1      -1.196   9.614  17.243  0.00  0.00    +0.000 F 
ATOM     28  F   UNL     1       0.450  10.618  18.246  0.00  0.00    +0.000 F 
ATOM     29  F   UNL     1      -1.147   9.705  19.409  0.00  0.00    +0.000 F 
ENDBRANCH   7  26
BRANCH   7  30
ATOM     30  O   UNL     1      -1.545  12.546  17.122  0.00  0.00    +0.000 OA
ATOM     31  H   UNL     1      -0.724  12.254  16.692  0.00  0.00    +0.000 HD
ENDBRANCH   7  30
TORSDOF 4
ENDMDL
MODEL 8
REMARK VINA RESULT:      -6.6      3.948      7.557
REMARK  Name = 
REMARK  6 active torsions:
REMARK  status: ('A' for Active; 'I' for Inactive)
REMARK    1  A    between atoms: C_1  and  N_2
REMARK    2  A    between atoms: C_4  and  C_5
REMARK    3  A    between atoms: C_7  and  C_8
REMARK    4  A    between atoms: N_11  and  C_12
REMARK    5  A    between atoms: C_17  and  O_18
REMARK    6  A    between atoms: C_17  and  C_19
REMARK                            x       y       z     vdW  Elec       q    Type
REMARK                         _______ _______ _______ _____ _____    ______ ____
ROOT
ATOM      1  C   UNL     1      -3.201  12.726  21.382  0.00  0.00    +0.000 A 
ATOM      2  C   UNL     1      -3.542  12.451  20.040  0.00  0.00    +0.000 A 
ATOM      3  C   UNL     1      -2.726  11.676  19.181  0.00  0.00    +0.000 A 
ATOM      4  C   UNL     1      -1.524  11.172  19.695  0.00  0.00    +0.000 A 
ATOM      5  C   UNL     1      -1.201  11.431  21.060  0.00  0.00    +0.000 A 
ATOM      6  C   UNL     1      -2.009  12.211  21.891  0.00  0.00    +0.000 A 
ATOM      7  C   UNL     1       0.098  10.738  21.459  0.00  0.00    +0.000 C 
ATOM      8  C   UNL     1       0.466  10.008  20.168  0.00  0.00    +0.000 A 
ATOM      9  C   UNL     1       1.540   9.164  19.946  0.00  0.00    +0.000 A 
ATOM     10  C   UNL     1       1.705   8.591  18.693  0.00  0.00    +0.000 A 
ATOM     11  C   UNL     1       0.839   8.951  17.647  0.00  0.00    +0.000 A 
ATOM     12  C   UNL     1      -0.199   9.859  17.866  0.00  0.00    +0.000 A 
ATOM     13  C   UNL     1      -0.455  10.339  19.148  0.00  0.00    +0.000 A 
ENDROOT
BRANCH   1  17
ATOM     14  C   UNL     1      -7.220  14.245  23.885  0.00  0.00    +0.000 C 
ATOM     15  N   UNL     1      -5.888  14.137  23.341  0.00  0.00    +0.000 N 
ATOM     16  C   UNL     1      -5.424  13.183  22.484  0.00  0.00    +0.000 A 
ATOM     17  C   UNL     1      -4.099  13.483  22.242  0.00  0.00    +0.000 A 
ATOM     18  C   UNL     1      -3.874  14.651  23.012  0.00  0.00    +0.000 A 
ATOM     19  N   UNL     1      -4.960  15.052  23.679  0.00  0.00    +0.000 NA
ENDBRANCH   1  17
BRANCH   3  20
ATOM     20  C   UNL     1      -3.222  11.408  17.834  0.00  0.00    +0.000 A 
ATOM     21  C   UNL     1      -4.443  11.733  17.200  0.00  0.00    +0.000 A 
ATOM     22  N   UNL     1      -4.519  11.285  15.945  0.00  0.00    +0.000 NA
ATOM     23  N   UNL     1      -3.305  10.754  15.733  0.00  0.00    +0.000 N 
ATOM     24  C   UNL     1      -2.966  10.241  14.426  0.00  0.00    +0.000 C 
ATOM     25  C   UNL     1      -2.478  10.835  16.819  0.00  0.00    +0.000 A 
ENDBRANCH   3  20
BRANCH   7  26
ATOM     26  C   UNL     1      -0.014   9.807  22.709  0.00  0.00    +0.000 C 
ATOM     27  F   UNL     1       1.187   9.373  23.156  0.00  0.00    +0.000 F 
ATOM     28  F   UNL     1      -0.650  10.365  23.761  0.00  0.00    +0.000 F 
ATOM     29  F   UNL     1      -0.717   8.689  22.374  0.00  0.00    +0.000 F 
ENDBRANCH   7  26
BRANCH   7  30
ATOM     30  O   UNL     1       1.072  11.789  21.623  0.00  0.00    +0.000 OA
ATOM     31  H   UNL     1       1.943  11.417  21.403  0.00  0.00    +0.000 HD
ENDBRANCH   7  30
TORSDOF 4
ENDMDL
MODEL 9
REMARK VINA RESULT:      -6.6      3.922      6.254
REMARK  Name = 
REMARK  6 active torsions:
REMARK  status: ('A' for Active; 'I' for Inactive)
REMARK    1  A    between atoms: C_1  and  N_2
REMARK    2  A    between atoms: C_4  and  C_5
REMARK    3  A    between atoms: C_7  and  C_8
REMARK    4  A    between atoms: N_11  and  C_12
REMARK    5  A    between atoms: C_17  and  O_18
REMARK    6  A    between atoms: C_17  and  C_19
REMARK                            x       y       z     vdW  Elec       q    Type
REMARK                         _______ _______ _______ _____ _____    ______ ____
ROOT
ATOM      1  C   UNL     1      -0.130  13.408  19.267  0.00  0.00    +0.000 A 
ATOM      2  C   UNL     1      -0.797  13.990  20.365  0.00  0.00    +0.000 A 
ATOM      3  C   UNL     1      -2.164  13.754  20.650  0.00  0.00    +0.000 A 
ATOM      4  C   UNL     1      -2.877  12.910  19.790  0.00  0.00    +0.000 A 
ATOM      5  C   UNL     1      -2.188  12.303  18.698  0.00  0.00    +0.000 A 
ATOM      6  C   UNL     1      -0.842  12.558  18.420  0.00  0.00    +0.000 A 
ATOM      7  C   UNL     1      -3.104  11.359  17.925  0.00  0.00    +0.000 C 
ATOM      8  C   UNL     1      -4.399  11.459  18.731  0.00  0.00    +0.000 A 
ATOM      9  C   UNL     1      -5.582  10.772  18.525  0.00  0.00    +0.000 A 
ATOM     10  C   UNL     1      -6.656  11.002  19.373  0.00  0.00    +0.000 A 
ATOM     11  C   UNL     1      -6.558  11.993  20.363  0.00  0.00    +0.000 A 
ATOM     12  C   UNL     1      -5.380  12.729  20.515  0.00  0.00    +0.000 A 
ATOM     13  C   UNL     1      -4.254  12.418  19.759  0.00  0.00    +0.000 A 
ENDROOT
BRANCH   1  17
ATOM     14  C   UNL     1       4.532  15.083  19.701  0.00  0.00    +0.000 C 
ATOM     15  N   UNL     1       3.346  14.392  19.256  0.00  0.00    +0.000 N 
ATOM     16  C   UNL     1       2.096  14.470  19.797  0.00  0.00    +0.000 A 
ATOM     17  C   UNL     1       1.290  13.639  19.045  0.00  0.00    +0.000 A 
ATOM     18  C   UNL     1       2.171  13.111  18.070  0.00  0.00    +0.000 A 
ATOM     19  N   UNL     1       3.421  13.568  18.193  0.00  0.00    +0.000 NA
ENDBRANCH   1  17
BRANCH   3  20
ATOM     20  C   UNL     1      -2.720  14.363  21.855  0.00  0.00    +0.000 A 
ATOM     21  C   UNL     1      -3.733  15.332  22.038  0.00  0.00    +0.000 A 
ATOM     22  N   UNL     1      -3.937  15.642  23.320  0.00  0.00    +0.000 NA
ATOM     23  N   UNL     1      -3.125  14.799  23.976  0.00  0.00    +0.000 N 
ATOM     24  C   UNL     1      -3.140  14.768  25.419  0.00  0.00    +0.000 C 
ATOM     25  C   UNL     1      -2.402  13.986  23.148  0.00  0.00    +0.000 A 
ENDBRANCH   3  20
BRANCH   7  26
ATOM     26  C   UNL     1      -2.560   9.902  17.769  0.00  0.00    +0.000 C 
ATOM     27  F   UNL     1      -3.538   8.967  17.779  0.00  0.00    +0.000 F 
ATOM     28  F   UNL     1      -1.831   9.700  16.651  0.00  0.00    +0.000 F 
ATOM     29  F   UNL     1      -1.749   9.610  18.824  0.00  0.00    +0.000 F 
ENDBRANCH   7  26
BRANCH   7  30
ATOM     30  O   UNL     1      -3.361  12.005  16.662  0.00  0.00    +0.000 OA
ATOM     31  H   UNL     1      -2.716  12.724  16.564  0.00  0.00    +0.000 HD
ENDBRANCH   7  30
TORSDOF 4
ENDMDL
