MODEL 1
REMARK VINA RESULT:      -8.0      0.000      0.000
REMARK  Name = 
REMARK  7 active torsions:
REMARK  status: ('A' for Active; 'I' for Inactive)
REMARK    1  A    between atoms: C_1  and  C_2
REMARK    2  A    between atoms: C_5  and  C_6
REMARK    3  A    between atoms: C_7  and  C_8
REMARK    4  A    between atoms: C_7  and  C_15
REMARK    5  A    between atoms: C_15  and  C_16
REMARK    6  A    between atoms: C_15  and  C_17
REMARK    7  A    between atoms: C_15  and  C_18
REMARK                            x       y       z     vdW  Elec       q    Type
REMARK                         _______ _______ _______ _____ _____    ______ ____
ROOT
ATOM      1  C   UNL     1       3.114   7.024  18.115  0.00  0.00    +0.000 C 
ATOM      2  C   UNL     1       3.140   5.686  17.926  0.00  0.00    +0.000 C 
ENDROOT
BRANCH   1   7
ATOM      3  C   UNL     1      -0.186  11.211  20.240  0.00  0.00    +0.000 C 
ATOM      4  C   UNL     1       0.485   9.992  19.680  0.00  0.00    +0.000 A 
ATOM      5  C   UNL     1       1.009   9.007  20.529  0.00  0.00    +0.000 A 
ATOM      6  C   UNL     1       1.813   7.983  20.019  0.00  0.00    +0.000 A 
ATOM      7  C   UNL     1       2.118   7.953  18.656  0.00  0.00    +0.000 A 
ATOM      8  C   UNL     1       1.565   8.916  17.803  0.00  0.00    +0.000 A 
ATOM      9  C   UNL     1       0.726   9.908  18.306  0.00  0.00    +0.000 A 
ENDBRANCH   1   7
BRANCH   2  10
ATOM     10  C   UNL     1       2.010   4.724  18.273  0.00  0.00    +0.000 C 
ATOM     11  O   UNL     1       1.206   4.353  17.420  0.00  0.00    +0.000 OA
ATOM     12  N   UNL     1       1.871   4.136  19.534  0.00  0.00    +0.000 N 
ATOM     13  C   UNL     1       2.202   4.559  20.804  0.00  0.00    +0.000 A 
ATOM     14  C   UNL     1       2.120   3.437  21.597  0.00  0.00    +0.000 A 
ATOM     15  N   UNL     1       1.481   2.429  20.936  0.00  0.00    +0.000 NA
ATOM     16  C   UNL     1       1.262   2.912  19.735  0.00  0.00    +0.000 A 
ENDBRANCH   2  10
BRANCH   2  17
ATOM     17  C   UNL     1       4.511   4.989  17.562  0.00  0.00    +0.000 C 
ATOM     18  C   UNL     1       5.160   5.769  16.391  0.00  0.00    +0.000 C 
ATOM     19  C   UNL     1       5.500   4.923  18.748  0.00  0.00    +0.000 C 
ATOM     20  C   UNL     1       4.391   3.516  17.071  0.00  0.00    +0.000 C 
ENDBRANCH   2  17
TORSDOF 3
ENDMDL
MODEL 2
REMARK VINA RESULT:      -8.0      0.346      1.134
REMARK  Name = 
REMARK  7 active torsions:
REMARK  status: ('A' for Active; 'I' for Inactive)
REMARK    1  A    between atoms: C_1  and  C_2
REMARK    2  A    between atoms: C_5  and  C_6
REMARK    3  A    between atoms: C_7  and  C_8
REMARK    4  A    between atoms: C_7  and  C_15
REMARK    5  A    between atoms: C_15  and  C_16
REMARK    6  A    between atoms: C_15  and  C_17
REMARK    7  A    between atoms: C_15  and  C_18
REMARK                            x       y       z     vdW  Elec       q    Type
REMARK                         _______ _______ _______ _____ _____    ______ ____
ROOT
ATOM      1  C   UNL     1       3.312   6.872  18.009  0.00  0.00    +0.000 C 
ATOM      2  C   UNL     1       3.194   5.532  17.879  0.00  0.00    +0.000 C 
ENDROOT
BRANCH   1   7
ATOM      3  C   UNL     1      -0.735  10.433  19.977  0.00  0.00    +0.000 C 
ATOM      4  C   UNL     1       0.468   9.673  19.500  0.00  0.00    +0.000 A 
ATOM      5  C   UNL     1       0.871   9.737  18.159  0.00  0.00    +0.000 A 
ATOM      6  C   UNL     1       1.856   8.873  17.672  0.00  0.00    +0.000 A 
ATOM      7  C   UNL     1       2.430   7.923  18.522  0.00  0.00    +0.000 A 
ATOM      8  C   UNL     1       2.052   7.886  19.870  0.00  0.00    +0.000 A 
ATOM      9  C   UNL     1       1.103   8.778  20.363  0.00  0.00    +0.000 A 
ENDBRANCH   1   7
BRANCH   2  10
ATOM     10  C   UNL     1       1.976   4.710  18.285  0.00  0.00    +0.000 C 
ATOM     11  O   UNL     1       1.104   4.421  17.468  0.00  0.00    +0.000 OA
ATOM     12  N   UNL     1       1.820   4.160  19.561  0.00  0.00    +0.000 N 
ATOM     13  C   UNL     1       2.245   4.561  20.810  0.00  0.00    +0.000 A 
ATOM     14  C   UNL     1       2.067   3.468  21.626  0.00  0.00    +0.000 A 
ATOM     15  N   UNL     1       1.293   2.530  21.008  0.00  0.00    +0.000 NA
ATOM     16  C   UNL     1       1.084   3.017  19.806  0.00  0.00    +0.000 A 
ENDBRANCH   2  10
BRANCH   2  17
ATOM     17  C   UNL     1       4.478   4.680  17.527  0.00  0.00    +0.000 C 
ATOM     18  C   UNL     1       5.145   5.296  16.271  0.00  0.00    +0.000 C 
ATOM     19  C   UNL     1       5.507   4.615  18.678  0.00  0.00    +0.000 C 
ATOM     20  C   UNL     1       4.200   3.190  17.168  0.00  0.00    +0.000 C 
ENDBRANCH   2  17
TORSDOF 3
ENDMDL
MODEL 3
REMARK VINA RESULT:      -7.4      2.508      4.174
REMARK  Name = 
REMARK  7 active torsions:
REMARK  status: ('A' for Active; 'I' for Inactive)
REMARK    1  A    between atoms: C_1  and  C_2
REMARK    2  A    between atoms: C_5  and  C_6
REMARK    3  A    between atoms: C_7  and  C_8
REMARK    4  A    between atoms: C_7  and  C_15
REMARK    5  A    between atoms: C_15  and  C_16
REMARK    6  A    between atoms: C_15  and  C_17
REMARK    7  A    between atoms: C_15  and  C_18
REMARK                            x       y       z     vdW  Elec       q    Type
REMARK                         _______ _______ _______ _____ _____    ______ ____
ROOT
ATOM      1  C   UNL     1       2.610   5.236  19.390  0.00  0.00    +0.000 C 
ATOM      2  C   UNL     1       3.710   4.455  19.304  0.00  0.00    +0.000 C 
ENDROOT
BRANCH   1   7
ATOM      3  C   UNL     1       0.880  10.654  18.626  0.00  0.00    +0.000 C 
ATOM      4  C   UNL     1       1.540   9.327  18.858  0.00  0.00    +0.000 A 
ATOM      5  C   UNL     1       2.101   8.609  17.792  0.00  0.00    +0.000 A 
ATOM      6  C   UNL     1       2.525   7.289  17.971  0.00  0.00    +0.000 A 
ATOM      7  C   UNL     1       2.369   6.670  19.214  0.00  0.00    +0.000 A 
ATOM      8  C   UNL     1       1.841   7.400  20.286  0.00  0.00    +0.000 A 
ATOM      9  C   UNL     1       1.462   8.730  20.118  0.00  0.00    +0.000 A 
ENDBRANCH   1   7
BRANCH   2  10
ATOM     10  C   UNL     1       5.113   4.942  18.963  0.00  0.00    +0.000 C 
ATOM     11  O   UNL     1       5.893   5.299  19.844  0.00  0.00    +0.000 OA
ATOM     12  N   UNL     1       5.630   4.924  17.664  0.00  0.00    +0.000 N 
ATOM     13  C   UNL     1       5.043   5.048  16.423  0.00  0.00    +0.000 A 
ATOM     14  C   UNL     1       5.998   4.635  15.522  0.00  0.00    +0.000 A 
ATOM     15  N   UNL     1       7.219   4.545  16.126  0.00  0.00    +0.000 NA
ATOM     16  C   UNL     1       6.980   4.815  17.389  0.00  0.00    +0.000 A 
ENDBRANCH   2  10
BRANCH   2  17
ATOM     17  C   UNL     1       3.535   2.884  19.295  0.00  0.00    +0.000 C 
ATOM     18  C   UNL     1       2.199   2.536  19.997  0.00  0.00    +0.000 C 
ATOM     19  C   UNL     1       3.546   2.274  17.875  0.00  0.00    +0.000 C 
ATOM     20  C   UNL     1       4.634   2.095  20.067  0.00  0.00    +0.000 C 
ENDBRANCH   2  17
TORSDOF 3
ENDMDL
MODEL 4
REMARK VINA RESULT:      -7.3      1.739      2.213
REMARK  Name = 
REMARK  7 active torsions:
REMARK  status: ('A' for Active; 'I' for Inactive)
REMARK    1  A    between atoms: C_1  and  C_2
REMARK    2  A    between atoms: C_5  and  C_6
REMARK    3  A    between atoms: C_7  and  C_8
REMARK    4  A    between atoms: C_7  and  C_15
REMARK    5  A    between atoms: C_15  and  C_16
REMARK    6  A    between atoms: C_15  and  C_17
REMARK    7  A    between atoms: C_15  and  C_18
REMARK                            x       y       z     vdW  Elec       q    Type
REMARK                         _______ _______ _______ _____ _____    ______ ____
ROOT
ATOM      1  C   UNL     1       3.829   6.478  17.510  0.00  0.00    +0.000 C 
ATOM      2  C   UNL     1       4.520   5.317  17.470  0.00  0.00    +0.000 C 
ENDROOT
BRANCH   1   7
ATOM      3  C   UNL     1       0.668   9.209  21.446  0.00  0.00    +0.000 C 
ATOM      4  C   UNL     1       1.301   8.388  20.361  0.00  0.00    +0.000 A 
ATOM      5  C   UNL     1       1.824   7.117  20.635  0.00  0.00    +0.000 A 
ATOM      6  C   UNL     1       2.595   6.445  19.682  0.00  0.00    +0.000 A 
ATOM      7  C   UNL     1       2.865   7.053  18.453  0.00  0.00    +0.000 A 
ATOM      8  C   UNL     1       2.312   8.307  18.167  0.00  0.00    +0.000 A 
ATOM      9  C   UNL     1       1.506   8.954  19.100  0.00  0.00    +0.000 A 
ENDBRANCH   1   7
BRANCH   2  10
ATOM     10  C   UNL     1       4.450   4.213  18.518  0.00  0.00    +0.000 C 
ATOM     11  O   UNL     1       5.337   4.078  19.360  0.00  0.00    +0.000 OA
ATOM     12  N   UNL     1       3.351   3.359  18.652  0.00  0.00    +0.000 N 
ATOM     13  C   UNL     1       2.436   2.865  17.747  0.00  0.00    +0.000 A 
ATOM     14  C   UNL     1       1.415   2.340  18.506  0.00  0.00    +0.000 A 
ATOM     15  N   UNL     1       1.797   2.231  19.812  0.00  0.00    +0.000 NA
ATOM     16  C   UNL     1       2.997   2.763  19.848  0.00  0.00    +0.000 A 
ENDBRANCH   2  10
BRANCH   2  17
ATOM     17  C   UNL     1       5.688   5.156  16.419  0.00  0.00    +0.000 C 
ATOM     18  C   UNL     1       5.367   6.045  15.190  0.00  0.00    +0.000 C 
ATOM     19  C   UNL     1       7.076   5.536  16.981  0.00  0.00    +0.000 C 
ATOM     20  C   UNL     1       5.875   3.715  15.858  0.00  0.00    +0.000 C 
ENDBRANCH   2  17
TORSDOF 3
ENDMDL
MODEL 5
REMARK VINA RESULT:      -7.2      1.429      1.928
REMARK  Name = 
REMARK  7 active torsions:
REMARK  status: ('A' for Active; 'I' for Inactive)
REMARK    1  A    between atoms: C_1  and  C_2
REMARK    2  A    between atoms: C_5  and  C_6
REMARK    3  A    between atoms: C_7  and  C_8
REMARK    4  A    between atoms: C_7  and  C_15
REMARK    5  A    between atoms: C_15  and  C_16
REMARK    6  A    between atoms: C_15  and  C_17
REMARK    7  A    between atoms: C_15  and  C_18
REMARK                            x       y       z     vdW  Elec       q    Type
REMARK                         _______ _______ _______ _____ _____    ______ ____
ROOT
ATOM      1  C   UNL     1       3.504   7.185  17.587  0.00  0.00    +0.000 C 
ATOM      2  C   UNL     1       4.181   6.026  17.735  0.00  0.00    +0.000 C 
ENDROOT
BRANCH   1   7
ATOM      3  C   UNL     1       0.043  10.426  20.822  0.00  0.00    +0.000 C 
ATOM      4  C   UNL     1       0.765   9.447  19.943  0.00  0.00    +0.000 A 
ATOM      5  C   UNL     1       1.383   8.313  20.490  0.00  0.00    +0.000 A 
ATOM      6  C   UNL     1       2.228   7.519  19.708  0.00  0.00    +0.000 A 
ATOM      7  C   UNL     1       2.476   7.868  18.378  0.00  0.00    +0.000 A 
ATOM      8  C   UNL     1       1.829   8.979  17.824  0.00  0.00    +0.000 A 
ATOM      9  C   UNL     1       0.953   9.743  18.591  0.00  0.00    +0.000 A 
ENDBRANCH   1   7
BRANCH   2  10
ATOM     10  C   UNL     1       4.015   5.048  18.893  0.00  0.00    +0.000 C 
ATOM     11  O   UNL     1       4.751   5.099  19.877  0.00  0.00    +0.000 OA
ATOM     12  N   UNL     1       2.978   4.113  18.957  0.00  0.00    +0.000 N 
ATOM     13  C   UNL     1       2.273   3.432  17.987  0.00  0.00    +0.000 A 
ATOM     14  C   UNL     1       1.179   2.903  18.633  0.00  0.00    +0.000 A 
ATOM     15  N   UNL     1       1.337   2.983  19.986  0.00  0.00    +0.000 NA
ATOM     16  C   UNL     1       2.469   3.629  20.147  0.00  0.00    +0.000 A 
ENDBRANCH   2  10
BRANCH   2  17
ATOM     17  C   UNL     1       5.427   5.742  16.806  0.00  0.00    +0.000 C 
ATOM     18  C   UNL     1       6.654   6.489  17.389  0.00  0.00    +0.000 C 
ATOM     19  C   UNL     1       5.758   4.239  16.664  0.00  0.00    +0.000 C 
ATOM     20  C   UNL     1       5.284   6.250  15.340  0.00  0.00    +0.000 C 
ENDBRANCH   2  17
TORSDOF 3
ENDMDL
MODEL 6
REMARK VINA RESULT:      -7.2      2.004      3.826
REMARK  Name = 
REMARK  7 active torsions:
REMARK  status: ('A' for Active; 'I' for Inactive)
REMARK    1  A    between atoms: C_1  and  C_2
REMARK    2  A    between atoms: C_5  and  C_6
REMARK    3  A    between atoms: C_7  and  C_8
REMARK    4  A    between atoms: C_7  and  C_15
REMARK    5  A    between atoms: C_15  and  C_16
REMARK    6  A    between atoms: C_15  and  C_17
REMARK    7  A    between atoms: C_15  and  C_18
REMARK                            x       y       z     vdW  Elec       q    Type
REMARK                         _______ _______ _______ _____ _____    ______ ____
ROOT
ATOM      1  C   UNL     1       2.475   5.462  20.058  0.00  0.00    +0.000 C 
ATOM      2  C   UNL     1       3.109   4.438  19.445  0.00  0.00    +0.000 C 
ENDROOT
BRANCH   1   7
ATOM      3  C   UNL     1       0.671  10.695  18.541  0.00  0.00    +0.000 C 
ATOM      4  C   UNL     1       1.346   9.425  18.970  0.00  0.00    +0.000 A 
ATOM      5  C   UNL     1       1.983   8.600  18.033  0.00  0.00    +0.000 A 
ATOM      6  C   UNL     1       2.426   7.324  18.394  0.00  0.00    +0.000 A 
ATOM      7  C   UNL     1       2.212   6.857  19.694  0.00  0.00    +0.000 A 
ATOM      8  C   UNL     1       1.607   7.696  20.638  0.00  0.00    +0.000 A 
ATOM      9  C   UNL     1       1.209   8.984  20.288  0.00  0.00    +0.000 A 
ENDBRANCH   1   7
BRANCH   2  10
ATOM     10  C   UNL     1       3.772   4.506  18.074  0.00  0.00    +0.000 C 
ATOM     11  O   UNL     1       3.208   4.068  17.073  0.00  0.00    +0.000 OA
ATOM     12  N   UNL     1       4.996   5.144  17.851  0.00  0.00    +0.000 N 
ATOM     13  C   UNL     1       6.106   5.340  18.646  0.00  0.00    +0.000 A 
ATOM     14  C   UNL     1       6.855   6.297  18.001  0.00  0.00    +0.000 A 
ATOM     15  N   UNL     1       6.405   6.477  16.725  0.00  0.00    +0.000 NA
ATOM     16  C   UNL     1       5.348   5.703  16.637  0.00  0.00    +0.000 A 
ENDBRANCH   2  10
BRANCH   2  17
ATOM     17  C   UNL     1       2.958   2.980  20.033  0.00  0.00    +0.000 C 
ATOM     18  C   UNL     1       4.335   2.274  19.953  0.00  0.00    +0.000 C 
ATOM     19  C   UNL     1       2.451   2.956  21.493  0.00  0.00    +0.000 C 
ATOM     20  C   UNL     1       1.967   2.058  19.262  0.00  0.00    +0.000 C 
ENDBRANCH   2  17
TORSDOF 3
ENDMDL
MODEL 7
REMARK VINA RESULT:      -7.2      1.401      2.024
REMARK  Name = 
REMARK  7 active torsions:
REMARK  status: ('A' for Active; 'I' for Inactive)
REMARK    1  A    between atoms: C_1  and  C_2
REMARK    2  A    between atoms: C_5  and  C_6
REMARK    3  A    between atoms: C_7  and  C_8
REMARK    4  A    between atoms: C_7  and  C_15
REMARK    5  A    between atoms: C_15  and  C_16
REMARK    6  A    between atoms: C_15  and  C_17
REMARK    7  A    between atoms: C_15  and  C_18
REMARK                            x       y       z     vdW  Elec       q    Type
REMARK                         _______ _______ _______ _____ _____    ______ ____
ROOT
ATOM      1  C   UNL     1       3.435   7.025  17.590  0.00  0.00    +0.000 C 
ATOM      2  C   UNL     1       4.090   5.846  17.669  0.00  0.00    +0.000 C 
ENDROOT
BRANCH   1   7
ATOM      3  C   UNL     1       0.208  10.236  21.086  0.00  0.00    +0.000 C 
ATOM      4  C   UNL     1       0.864   9.271  20.142  0.00  0.00    +0.000 A 
ATOM      5  C   UNL     1       1.472   8.102  20.620  0.00  0.00    +0.000 A 
ATOM      6  C   UNL     1       2.260   7.314  19.775  0.00  0.00    +0.000 A 
ATOM      7  C   UNL     1       2.461   7.706  18.448  0.00  0.00    +0.000 A 
ATOM      8  C   UNL     1       1.823   8.854  17.963  0.00  0.00    +0.000 A 
ATOM      9  C   UNL     1       1.002   9.612  18.795  0.00  0.00    +0.000 A 
ENDBRANCH   1   7
BRANCH   2  10
ATOM     10  C   UNL     1       3.952   4.836  18.803  0.00  0.00    +0.000 C 
ATOM     11  O   UNL     1       4.751   4.818  19.738  0.00  0.00    +0.000 OA
ATOM     12  N   UNL     1       2.879   3.946  18.903  0.00  0.00    +0.000 N 
ATOM     13  C   UNL     1       2.082   3.333  17.960  0.00  0.00    +0.000 A 
ATOM     14  C   UNL     1       1.008   2.830  18.657  0.00  0.00    +0.000 A 
ATOM     15  N   UNL     1       1.255   2.853  19.999  0.00  0.00    +0.000 NA
ATOM     16  C   UNL     1       2.424   3.443  20.107  0.00  0.00    +0.000 A 
ENDBRANCH   2  10
BRANCH   2  17
ATOM     17  C   UNL     1       5.285   5.564  16.675  0.00  0.00    +0.000 C 
ATOM     18  C   UNL     1       5.262   4.062  16.296  0.00  0.00    +0.000 C 
ATOM     19  C   UNL     1       5.229   6.421  15.390  0.00  0.00    +0.000 C 
ATOM     20  C   UNL     1       6.704   5.829  17.259  0.00  0.00    +0.000 C 
ENDBRANCH   2  17
TORSDOF 3
ENDMDL
MODEL 8
REMARK VINA RESULT:      -7.2      2.111      3.942
REMARK  Name = 
REMARK  7 active torsions:
REMARK  status: ('A' for Active; 'I' for Inactive)
REMARK    1  A    between atoms: C_1  and  C_2
REMARK    2  A    between atoms: C_5  and  C_6
REMARK    3  A    between atoms: C_7  and  C_8
REMARK    4  A    between atoms: C_7  and  C_15
REMARK    5  A    between atoms: C_15  and  C_16
REMARK    6  A    between atoms: C_15  and  C_17
REMARK    7  A    between atoms: C_15  and  C_18
REMARK                            x       y       z     vdW  Elec       q    Type
REMARK                         _______ _______ _______ _____ _____    ______ ____
ROOT
ATOM      1  C   UNL     1       2.498   5.413  19.996  0.00  0.00    +0.000 C 
ATOM      2  C   UNL     1       3.255   4.435  19.450  0.00  0.00    +0.000 C 
ENDROOT
BRANCH   1   7
ATOM      3  C   UNL     1       0.667  10.646  18.512  0.00  0.00    +0.000 C 
ATOM      4  C   UNL     1       1.350   9.376  18.927  0.00  0.00    +0.000 A 
ATOM      5  C   UNL     1       1.966   8.549  17.977  0.00  0.00    +0.000 A 
ATOM      6  C   UNL     1       2.415   7.273  18.331  0.00  0.00    +0.000 A 
ATOM      7  C   UNL     1       2.229   6.808  19.635  0.00  0.00    +0.000 A 
ATOM      8  C   UNL     1       1.646   7.649  20.592  0.00  0.00    +0.000 A 
ATOM      9  C   UNL     1       1.241   8.936  20.249  0.00  0.00    +0.000 A 
ENDBRANCH   1   7
BRANCH   2  10
ATOM     10  C   UNL     1       4.098   4.573  18.188  0.00  0.00    +0.000 C 
ATOM     11  O   UNL     1       3.642   4.281  17.084  0.00  0.00    +0.000 OA
ATOM     12  N   UNL     1       5.384   5.120  18.188  0.00  0.00    +0.000 N 
ATOM     13  C   UNL     1       6.390   5.144  19.131  0.00  0.00    +0.000 A 
ATOM     14  C   UNL     1       7.287   6.088  18.688  0.00  0.00    +0.000 A 
ATOM     15  N   UNL     1       7.026   6.425  17.391  0.00  0.00    +0.000 NA
ATOM     16  C   UNL     1       5.936   5.757  17.092  0.00  0.00    +0.000 A 
ENDBRANCH   2  10
BRANCH   2  17
ATOM     17  C   UNL     1       3.086   2.954  19.972  0.00  0.00    +0.000 C 
ATOM     18  C   UNL     1       2.494   3.003  21.404  0.00  0.00    +0.000 C 
ATOM     19  C   UNL     1       2.182   2.084  19.070  0.00  0.00    +0.000 C 
ATOM     20  C   UNL     1       4.411   2.143  20.094  0.00  0.00    +0.000 C 
ENDBRANCH   2  17
TORSDOF 3
ENDMDL
MODEL 9
REMARK VINA RESULT:      -7.1      2.588      4.046
REMARK  Name = 
REMARK  7 active torsions:
REMARK  status: ('A' for Active; 'I' for Inactive)
REMARK    1  A    between atoms: C_1  and  C_2
REMARK    2  A    between atoms: C_5  and  C_6
REMARK    3  A    between atoms: C_7  and  C_8
REMARK    4  A    between atoms: C_7  and  C_15
REMARK    5  A    between atoms: C_15  and  C_16
REMARK    6  A    between atoms: C_15  and  C_17
REMARK    7  A    between atoms: C_15  and  C_18
REMARK                            x       y       z     vdW  Elec       q    Type
REMARK                         _______ _______ _______ _____ _____    ______ ____
ROOT
ATOM      1  C   UNL     1       2.729   6.053  18.565  0.00  0.00    +0.000 C 
ATOM      2  C   UNL     1       3.785   5.492  17.936  0.00  0.00    +0.000 C 
ENDROOT
BRANCH   1   7
ATOM      3  C   UNL     1       0.266  11.172  19.385  0.00  0.00    +0.000 C 
ATOM      4  C   UNL     1       1.108   9.944  19.197  0.00  0.00    +0.000 A 
ATOM      5  C   UNL     1       1.573   9.582  17.925  0.00  0.00    +0.000 A 
ATOM      6  C   UNL     1       2.175   8.337  17.717  0.00  0.00    +0.000 A 
ATOM      7  C   UNL     1       2.293   7.436  18.779  0.00  0.00    +0.000 A 
ATOM      8  C   UNL     1       1.860   7.814  20.056  0.00  0.00    +0.000 A 
ATOM      9  C   UNL     1       1.303   9.073  20.270  0.00  0.00    +0.000 A 
ENDBRANCH   1   7
BRANCH   2  10
ATOM     10  C   UNL     1       4.893   6.256  17.220  0.00  0.00    +0.000 C 
ATOM     11  O   UNL     1       4.669   6.872  16.179  0.00  0.00    +0.000 OA
ATOM     12  N   UNL     1       6.185   6.385  17.737  0.00  0.00    +0.000 N 
ATOM     13  C   UNL     1       6.957   5.569  18.536  0.00  0.00    +0.000 A 
ATOM     14  C   UNL     1       7.998   6.358  18.969  0.00  0.00    +0.000 A 
ATOM     15  N   UNL     1       8.055   7.515  18.246  0.00  0.00    +0.000 NA
ATOM     16  C   UNL     1       7.010   7.457  17.453  0.00  0.00    +0.000 A 
ENDBRANCH   2  10
BRANCH   2  17
ATOM     17  C   UNL     1       3.781   3.934  17.673  0.00  0.00    +0.000 C 
ATOM     18  C   UNL     1       2.324   3.488  17.389  0.00  0.00    +0.000 C 
ATOM     19  C   UNL     1       4.690   3.507  16.499  0.00  0.00    +0.000 C 
ATOM     20  C   UNL     1       4.260   3.064  18.873  0.00  0.00    +0.000 C 
ENDBRANCH   2  17
TORSDOF 3
ENDMDL
