MODEL 1
REMARK VINA RESULT:      -7.5      0.000      0.000
REMARK  Name = 
REMARK  5 active torsions:
REMARK  status: ('A' for Active; 'I' for Inactive)
REMARK    1  A    between atoms: C_1  and  O_2
REMARK    2  A    between atoms: O_2  and  C_3
REMARK    3  A    between atoms: C_3  and  C_5
REMARK    4  A    between atoms: N_12  and  C_13
REMARK    5  A    between atoms: C_21  and  C_22
REMARK                            x       y       z     vdW  Elec       q    Type
REMARK                         _______ _______ _______ _____ _____    ______ ____
ROOT
ATOM      1  C   UNL     1       1.863   3.833  18.969  0.00  0.00    +0.000 A 
ATOM      2  S   UNL     1       1.753   5.515  19.229  0.00  0.00    +0.000 S 
ATOM      3  C   UNL     1       3.060   5.839  18.204  0.00  0.00    +0.000 A 
ATOM      4  N   UNL     1       3.442   7.115  18.042  0.00  0.00    +0.000 NA
ATOM      5  C   UNL     1       4.471   7.239  17.217  0.00  0.00    +0.000 A 
ATOM      6  N   UNL     1       5.091   6.254  16.565  0.00  0.00    +0.000 NA
ATOM      7  C   UNL     1       4.688   4.966  16.728  0.00  0.00    +0.000 A 
ATOM      8  N   UNL     1       5.399   3.983  16.023  0.00  0.00    +0.000 N 
ATOM      9  C   UNL     1       3.610   4.705  17.618  0.00  0.00    +0.000 A 
ATOM     10  C   UNL     1       2.897   3.509  18.082  0.00  0.00    +0.000 A 
ATOM     11  C   UNL     1       3.166   2.080  17.706  0.00  0.00    +0.000 C 
ATOM     12  H   UNL     1       5.075   3.045  16.167  0.00  0.00    +0.000 HD
ENDROOT
BRANCH   8  13
ATOM     13  C   UNL     1       5.988   4.106  14.749  0.00  0.00    +0.000 A 
ATOM     14  C   UNL     1       5.369   3.487  13.655  0.00  0.00    +0.000 A 
ATOM     15  C   UNL     1       5.904   3.609  12.373  0.00  0.00    +0.000 A 
ATOM     16  C   UNL     1       7.053   4.369  12.182  0.00  0.00    +0.000 A 
ATOM     17  F   UNL     1       7.563   4.494  10.950  0.00  0.00    +0.000 F 
ATOM     18  C   UNL     1       7.675   5.001  13.248  0.00  0.00    +0.000 A 
ATOM     19  C   UNL     1       7.143   4.868  14.533  0.00  0.00    +0.000 A 
ENDBRANCH   8  13
BRANCH   1  20
ATOM     20  C   UNL     1       0.947   2.910  19.635  0.00  0.00    +0.000 C 
ATOM     21  O   UNL     1       0.185   2.140  19.058  0.00  0.00    +0.000 OA
BRANCH  20  23
ATOM     22  C   UNL     1       2.291   2.610  21.530  0.00  0.00    +0.000 C 
ATOM     23  O   UNL     1       1.028   3.003  20.993  0.00  0.00    +0.000 OA
ENDBRANCH  20  23
ENDBRANCH   1  20
TORSDOF 3
ENDMDL
MODEL 2
REMARK VINA RESULT:      -7.4      4.969      7.795
REMARK  Name = 
REMARK  5 active torsions:
REMARK  status: ('A' for Active; 'I' for Inactive)
REMARK    1  A    between atoms: C_1  and  O_2
REMARK    2  A    between atoms: O_2  and  C_3
REMARK    3  A    between atoms: C_3  and  C_5
REMARK    4  A    between atoms: N_12  and  C_13
REMARK    5  A    between atoms: C_21  and  C_22
REMARK                            x       y       z     vdW  Elec       q    Type
REMARK                         _______ _______ _______ _____ _____    ______ ____
ROOT
ATOM      1  C   UNL     1       4.630   4.372  17.112  0.00  0.00    +0.000 A 
ATOM      2  S   UNL     1       3.686   3.021  17.549  0.00  0.00    +0.000 S 
ATOM      3  C   UNL     1       2.801   3.908  18.686  0.00  0.00    +0.000 A 
ATOM      4  N   UNL     1       1.851   3.274  19.391  0.00  0.00    +0.000 NA
ATOM      5  C   UNL     1       1.229   4.074  20.245  0.00  0.00    +0.000 A 
ATOM      6  N   UNL     1       1.452   5.377  20.421  0.00  0.00    +0.000 NA
ATOM      7  C   UNL     1       2.410   6.012  19.694  0.00  0.00    +0.000 A 
ATOM      8  N   UNL     1       2.599   7.379  19.946  0.00  0.00    +0.000 N 
ATOM      9  C   UNL     1       3.168   5.247  18.765  0.00  0.00    +0.000 A 
ATOM     10  C   UNL     1       4.264   5.518  17.828  0.00  0.00    +0.000 A 
ATOM     11  C   UNL     1       4.965   6.826  17.593  0.00  0.00    +0.000 C 
ATOM     12  H   UNL     1       3.313   7.814  19.392  0.00  0.00    +0.000 HD
ENDROOT
BRANCH   8  13
ATOM     13  C   UNL     1       1.616   8.322  20.305  0.00  0.00    +0.000 A 
ATOM     14  C   UNL     1       1.116   9.187  19.322  0.00  0.00    +0.000 A 
ATOM     15  C   UNL     1       0.123  10.116  19.631  0.00  0.00    +0.000 A 
ATOM     16  C   UNL     1      -0.386  10.167  20.925  0.00  0.00    +0.000 A 
ATOM     17  F   UNL     1      -1.346  11.053  21.221  0.00  0.00    +0.000 F 
ATOM     18  C   UNL     1       0.086   9.313  21.911  0.00  0.00    +0.000 A 
ATOM     19  C   UNL     1       1.088   8.391  21.601  0.00  0.00    +0.000 A 
ENDBRANCH   8  13
BRANCH   1  20
ATOM     20  C   UNL     1       5.679   4.257  16.100  0.00  0.00    +0.000 C 
ATOM     21  O   UNL     1       6.873   4.112  16.343  0.00  0.00    +0.000 OA
BRANCH  20  23
ATOM     22  C   UNL     1       6.073   3.878  13.823  0.00  0.00    +0.000 C 
ATOM     23  O   UNL     1       5.177   4.336  14.835  0.00  0.00    +0.000 OA
ENDBRANCH  20  23
ENDBRANCH   1  20
TORSDOF 3
ENDMDL
MODEL 3
REMARK VINA RESULT:      -7.4      4.974      7.801
REMARK  Name = 
REMARK  5 active torsions:
REMARK  status: ('A' for Active; 'I' for Inactive)
REMARK    1  A    between atoms: C_1  and  O_2
REMARK    2  A    between atoms: O_2  and  C_3
REMARK    3  A    between atoms: C_3  and  C_5
REMARK    4  A    between atoms: N_12  and  C_13
REMARK    5  A    between atoms: C_21  and  C_22
REMARK                            x       y       z     vdW  Elec       q    Type
REMARK                         _______ _______ _______ _____ _____    ______ ____
ROOT
ATOM      1  C   UNL     1       4.722   4.351  17.146  0.00  0.00    +0.000 A 
ATOM      2  S   UNL     1       3.865   2.985  17.701  0.00  0.00    +0.000 S 
ATOM      3  C   UNL     1       2.970   3.899  18.809  0.00  0.00    +0.000 A 
ATOM      4  N   UNL     1       2.077   3.265  19.584  0.00  0.00    +0.000 NA
ATOM      5  C   UNL     1       1.439   4.087  20.406  0.00  0.00    +0.000 A 
ATOM      6  N   UNL     1       1.598   5.408  20.490  0.00  0.00    +0.000 NA
ATOM      7  C   UNL     1       2.498   6.042  19.691  0.00  0.00    +0.000 A 
ATOM      8  N   UNL     1       2.621   7.430  19.848  0.00  0.00    +0.000 N 
ATOM      9  C   UNL     1       3.267   5.257  18.789  0.00  0.00    +0.000 A 
ATOM     10  C   UNL     1       4.318   5.522  17.799  0.00  0.00    +0.000 A 
ATOM     11  C   UNL     1       4.941   6.845  17.457  0.00  0.00    +0.000 C 
ATOM     12  H   UNL     1       3.294   7.864  19.244  0.00  0.00    +0.000 HD
ENDROOT
BRANCH   8  13
ATOM     13  C   UNL     1       1.601   8.344  20.180  0.00  0.00    +0.000 A 
ATOM     14  C   UNL     1       1.138   8.390  21.502  0.00  0.00    +0.000 A 
ATOM     15  C   UNL     1       0.150   9.300  21.877  0.00  0.00    +0.000 A 
ATOM     16  C   UNL     1      -0.364  10.180  20.930  0.00  0.00    +0.000 A 
ATOM     17  F   UNL     1      -1.307  11.060  21.291  0.00  0.00    +0.000 F 
ATOM     18  C   UNL     1       0.089  10.160  19.619  0.00  0.00    +0.000 A 
ATOM     19  C   UNL     1       1.071   9.241  19.244  0.00  0.00    +0.000 A 
ENDBRANCH   8  13
BRANCH   1  20
ATOM     20  C   UNL     1       5.744   4.223  16.109  0.00  0.00    +0.000 C 
ATOM     21  O   UNL     1       6.952   4.171  16.318  0.00  0.00    +0.000 OA
BRANCH  20  23
ATOM     22  C   UNL     1       6.147   3.944  13.819  0.00  0.00    +0.000 C 
ATOM     23  O   UNL     1       5.199   4.172  14.860  0.00  0.00    +0.000 OA
ENDBRANCH  20  23
ENDBRANCH   1  20
TORSDOF 3
ENDMDL
MODEL 4
REMARK VINA RESULT:      -7.4      5.105      7.862
REMARK  Name = 
REMARK  5 active torsions:
REMARK  status: ('A' for Active; 'I' for Inactive)
REMARK    1  A    between atoms: C_1  and  O_2
REMARK    2  A    between atoms: O_2  and  C_3
REMARK    3  A    between atoms: C_3  and  C_5
REMARK    4  A    between atoms: N_12  and  C_13
REMARK    5  A    between atoms: C_21  and  C_22
REMARK                            x       y       z     vdW  Elec       q    Type
REMARK                         _______ _______ _______ _____ _____    ______ ____
ROOT
ATOM      1  C   UNL     1       4.366   4.568  16.998  0.00  0.00    +0.000 A 
ATOM      2  S   UNL     1       3.480   3.189  17.468  0.00  0.00    +0.000 S 
ATOM      3  C   UNL     1       2.644   4.038  18.669  0.00  0.00    +0.000 A 
ATOM      4  N   UNL     1       1.752   3.372  19.418  0.00  0.00    +0.000 NA
ATOM      5  C   UNL     1       1.163   4.145  20.320  0.00  0.00    +0.000 A 
ATOM      6  N   UNL     1       1.367   5.450  20.503  0.00  0.00    +0.000 NA
ATOM      7  C   UNL     1       2.266   6.117  19.732  0.00  0.00    +0.000 A 
ATOM      8  N   UNL     1       2.439   7.485  19.994  0.00  0.00    +0.000 N 
ATOM      9  C   UNL     1       2.985   5.384  18.748  0.00  0.00    +0.000 A 
ATOM     10  C   UNL     1       4.018   5.695  17.753  0.00  0.00    +0.000 A 
ATOM     11  C   UNL     1       4.674   7.021  17.499  0.00  0.00    +0.000 C 
ATOM     12  H   UNL     1       3.109   7.944  19.407  0.00  0.00    +0.000 HD
ENDROOT
BRANCH   8  13
ATOM     13  C   UNL     1       1.458   8.399  20.426  0.00  0.00    +0.000 A 
ATOM     14  C   UNL     1       1.188   8.504  21.797  0.00  0.00    +0.000 A 
ATOM     15  C   UNL     1       0.246   9.418  22.268  0.00  0.00    +0.000 A 
ATOM     16  C   UNL     1      -0.417  10.243  21.364  0.00  0.00    +0.000 A 
ATOM     17  F   UNL     1      -1.316  11.127  21.816  0.00  0.00    +0.000 F 
ATOM     18  C   UNL     1      -0.156  10.165  20.004  0.00  0.00    +0.000 A 
ATOM     19  C   UNL     1       0.781   9.242  19.535  0.00  0.00    +0.000 A 
ENDBRANCH   8  13
BRANCH   1  20
ATOM     20  C   UNL     1       5.356   4.492  15.925  0.00  0.00    +0.000 C 
ATOM     21  O   UNL     1       5.208   4.961  14.801  0.00  0.00    +0.000 OA
BRANCH  20  23
ATOM     22  C   UNL     1       7.403   4.626  17.056  0.00  0.00    +0.000 C 
ATOM     23  O   UNL     1       6.481   3.827  16.316  0.00  0.00    +0.000 OA
ENDBRANCH  20  23
ENDBRANCH   1  20
TORSDOF 3
ENDMDL
MODEL 5
REMARK VINA RESULT:      -7.4      0.947      1.375
REMARK  Name = 
REMARK  5 active torsions:
REMARK  status: ('A' for Active; 'I' for Inactive)
REMARK    1  A    between atoms: C_1  and  O_2
REMARK    2  A    between atoms: O_2  and  C_3
REMARK    3  A    between atoms: C_3  and  C_5
REMARK    4  A    between atoms: N_12  and  C_13
REMARK    5  A    between atoms: C_21  and  C_22
REMARK                            x       y       z     vdW  Elec       q    Type
REMARK                         _______ _______ _______ _____ _____    ______ ____
ROOT
ATOM      1  C   UNL     1       2.662   4.066  20.146  0.00  0.00    +0.000 A 
ATOM      2  S   UNL     1       2.070   5.662  20.054  0.00  0.00    +0.000 S 
ATOM      3  C   UNL     1       3.135   6.068  18.803  0.00  0.00    +0.000 A 
ATOM      4  N   UNL     1       3.101   7.319  18.318  0.00  0.00    +0.000 NA
ATOM      5  C   UNL     1       3.978   7.513  17.343  0.00  0.00    +0.000 A 
ATOM      6  N   UNL     1       4.814   6.607  16.834  0.00  0.00    +0.000 NA
ATOM      7  C   UNL     1       4.832   5.339  17.326  0.00  0.00    +0.000 A 
ATOM      8  N   UNL     1       5.749   4.446  16.751  0.00  0.00    +0.000 N 
ATOM      9  C   UNL     1       3.955   5.021  18.399  0.00  0.00    +0.000 A 
ATOM     10  C   UNL     1       3.674   3.829  19.208  0.00  0.00    +0.000 A 
ATOM     11  C   UNL     1       4.331   2.482  19.111  0.00  0.00    +0.000 C 
ATOM     12  H   UNL     1       5.735   3.521  17.139  0.00  0.00    +0.000 HD
ENDROOT
BRANCH   8  13
ATOM     13  C   UNL     1       6.173   4.407  15.409  0.00  0.00    +0.000 A 
ATOM     14  C   UNL     1       5.400   3.703  14.476  0.00  0.00    +0.000 A 
ATOM     15  C   UNL     1       5.769   3.664  13.132  0.00  0.00    +0.000 A 
ATOM     16  C   UNL     1       6.908   4.348  12.716  0.00  0.00    +0.000 A 
ATOM     17  F   UNL     1       7.259   4.318  11.424  0.00  0.00    +0.000 F 
ATOM     18  C   UNL     1       7.681   5.061  13.620  0.00  0.00    +0.000 A 
ATOM     19  C   UNL     1       7.314   5.090  14.967  0.00  0.00    +0.000 A 
ENDBRANCH   8  13
BRANCH   1  20
ATOM     20  C   UNL     1       2.121   3.121  21.122  0.00  0.00    +0.000 C 
ATOM     21  O   UNL     1       2.729   2.700  22.101  0.00  0.00    +0.000 OA
BRANCH  20  23
ATOM     22  C   UNL     1       0.662   2.358  19.457  0.00  0.00    +0.000 C 
ATOM     23  O   UNL     1       0.845   2.749  20.817  0.00  0.00    +0.000 OA
ENDBRANCH  20  23
ENDBRANCH   1  20
TORSDOF 3
ENDMDL
MODEL 6
REMARK VINA RESULT:      -7.4      0.929      1.700
REMARK  Name = 
REMARK  5 active torsions:
REMARK  status: ('A' for Active; 'I' for Inactive)
REMARK    1  A    between atoms: C_1  and  O_2
REMARK    2  A    between atoms: O_2  and  C_3
REMARK    3  A    between atoms: C_3  and  C_5
REMARK    4  A    between atoms: N_12  and  C_13
REMARK    5  A    between atoms: C_21  and  C_22
REMARK                            x       y       z     vdW  Elec       q    Type
REMARK                         _______ _______ _______ _____ _____    ______ ____
ROOT
ATOM      1  C   UNL     1       2.652   4.053  20.132  0.00  0.00    +0.000 A 
ATOM      2  S   UNL     1       2.061   5.650  20.062  0.00  0.00    +0.000 S 
ATOM      3  C   UNL     1       3.104   6.065  18.796  0.00  0.00    +0.000 A 
ATOM      4  N   UNL     1       3.064   7.319  18.321  0.00  0.00    +0.000 NA
ATOM      5  C   UNL     1       3.924   7.518  17.332  0.00  0.00    +0.000 A 
ATOM      6  N   UNL     1       4.750   6.615  16.803  0.00  0.00    +0.000 NA
ATOM      7  C   UNL     1       4.775   5.344  17.285  0.00  0.00    +0.000 A 
ATOM      8  N   UNL     1       5.681   4.455  16.688  0.00  0.00    +0.000 N 
ATOM      9  C   UNL     1       3.916   5.019  18.371  0.00  0.00    +0.000 A 
ATOM     10  C   UNL     1       3.647   3.821  19.175  0.00  0.00    +0.000 A 
ATOM     11  C   UNL     1       4.301   2.474  19.058  0.00  0.00    +0.000 C 
ATOM     12  H   UNL     1       5.672   3.527  17.069  0.00  0.00    +0.000 HD
ENDROOT
BRANCH   8  13
ATOM     13  C   UNL     1       6.082   4.425  15.338  0.00  0.00    +0.000 A 
ATOM     14  C   UNL     1       7.259   5.088  14.967  0.00  0.00    +0.000 A 
ATOM     15  C   UNL     1       7.706   5.058  13.646  0.00  0.00    +0.000 A 
ATOM     16  C   UNL     1       6.980   4.347  12.696  0.00  0.00    +0.000 A 
ATOM     17  F   UNL     1       7.412   4.311  11.429  0.00  0.00    +0.000 F 
ATOM     18  C   UNL     1       5.818   3.673  13.043  0.00  0.00    +0.000 A 
ATOM     19  C   UNL     1       5.369   3.714  14.365  0.00  0.00    +0.000 A 
ENDBRANCH   8  13
BRANCH   1  20
ATOM     20  C   UNL     1       2.126   3.102  21.110  0.00  0.00    +0.000 C 
ATOM     21  O   UNL     1       2.757   2.656  22.064  0.00  0.00    +0.000 OA
BRANCH  20  23
ATOM     22  C   UNL     1       0.614   2.343  19.491  0.00  0.00    +0.000 C 
ATOM     23  O   UNL     1       0.836   2.753  20.839  0.00  0.00    +0.000 OA
ENDBRANCH  20  23
ENDBRANCH   1  20
TORSDOF 3
ENDMDL
MODEL 7
REMARK VINA RESULT:      -7.3      0.132      1.038
REMARK  Name = 
REMARK  5 active torsions:
REMARK  status: ('A' for Active; 'I' for Inactive)
REMARK    1  A    between atoms: C_1  and  O_2
REMARK    2  A    between atoms: O_2  and  C_3
REMARK    3  A    between atoms: C_3  and  C_5
REMARK    4  A    between atoms: N_12  and  C_13
REMARK    5  A    between atoms: C_21  and  C_22
REMARK                            x       y       z     vdW  Elec       q    Type
REMARK                         _______ _______ _______ _____ _____    ______ ____
ROOT
ATOM      1  C   UNL     1       1.843   3.962  18.992  0.00  0.00    +0.000 A 
ATOM      2  S   UNL     1       1.758   5.647  19.238  0.00  0.00    +0.000 S 
ATOM      3  C   UNL     1       3.043   5.947  18.180  0.00  0.00    +0.000 A 
ATOM      4  N   UNL     1       3.435   7.217  17.996  0.00  0.00    +0.000 NA
ATOM      5  C   UNL     1       4.446   7.321  17.145  0.00  0.00    +0.000 A 
ATOM      6  N   UNL     1       5.039   6.323  16.489  0.00  0.00    +0.000 NA
ATOM      7  C   UNL     1       4.626   5.041  16.674  0.00  0.00    +0.000 A 
ATOM      8  N   UNL     1       5.309   4.043  15.962  0.00  0.00    +0.000 N 
ATOM      9  C   UNL     1       3.567   4.801  17.592  0.00  0.00    +0.000 A 
ATOM     10  C   UNL     1       2.852   3.618  18.084  0.00  0.00    +0.000 A 
ATOM     11  C   UNL     1       3.096   2.182  17.717  0.00  0.00    +0.000 C 
ATOM     12  H   UNL     1       4.978   3.110  16.123  0.00  0.00    +0.000 HD
ENDROOT
BRANCH   8  13
ATOM     13  C   UNL     1       5.868   4.148  14.674  0.00  0.00    +0.000 A 
ATOM     14  C   UNL     1       7.041   4.896  14.504  0.00  0.00    +0.000 A 
ATOM     15  C   UNL     1       7.642   5.000  13.250  0.00  0.00    +0.000 A 
ATOM     16  C   UNL     1       7.078   4.338  12.164  0.00  0.00    +0.000 A 
ATOM     17  F   UNL     1       7.659   4.430  10.961  0.00  0.00    +0.000 F 
ATOM     18  C   UNL     1       5.924   3.582  12.312  0.00  0.00    +0.000 A 
ATOM     19  C   UNL     1       5.319   3.488  13.567  0.00  0.00    +0.000 A 
ENDBRANCH   8  13
BRANCH   1  20
ATOM     20  C   UNL     1       0.932   3.056  19.690  0.00  0.00    +0.000 C 
ATOM     21  O   UNL     1       0.185   2.253  19.139  0.00  0.00    +0.000 OA
BRANCH  20  23
ATOM     22  C   UNL     1       2.077   2.493  21.654  0.00  0.00    +0.000 C 
ATOM     23  O   UNL     1       1.002   3.206  21.043  0.00  0.00    +0.000 OA
ENDBRANCH  20  23
ENDBRANCH   1  20
TORSDOF 3
ENDMDL
MODEL 8
REMARK VINA RESULT:      -7.3      4.855      7.524
REMARK  Name = 
REMARK  5 active torsions:
REMARK  status: ('A' for Active; 'I' for Inactive)
REMARK    1  A    between atoms: C_1  and  O_2
REMARK    2  A    between atoms: O_2  and  C_3
REMARK    3  A    between atoms: C_3  and  C_5
REMARK    4  A    between atoms: N_12  and  C_13
REMARK    5  A    between atoms: C_21  and  C_22
REMARK                            x       y       z     vdW  Elec       q    Type
REMARK                         _______ _______ _______ _____ _____    ______ ____
ROOT
ATOM      1  C   UNL     1       5.287   4.555  17.617  0.00  0.00    +0.000 A 
ATOM      2  S   UNL     1       4.602   3.326  18.579  0.00  0.00    +0.000 S 
ATOM      3  C   UNL     1       3.516   4.396  19.313  0.00  0.00    +0.000 A 
ATOM      4  N   UNL     1       2.677   3.915  20.243  0.00  0.00    +0.000 NA
ATOM      5  C   UNL     1       1.877   4.847  20.741  0.00  0.00    +0.000 A 
ATOM      6  N   UNL     1       1.838   6.132  20.387  0.00  0.00    +0.000 NA
ATOM      7  C   UNL     1       2.685   6.607  19.436  0.00  0.00    +0.000 A 
ATOM      8  N   UNL     1       2.597   7.973  19.128  0.00  0.00    +0.000 N 
ATOM      9  C   UNL     1       3.615   5.703  18.851  0.00  0.00    +0.000 A 
ATOM     10  C   UNL     1       4.677   5.795  17.843  0.00  0.00    +0.000 A 
ATOM     11  C   UNL     1       5.123   7.018  17.092  0.00  0.00    +0.000 C 
ATOM     12  H   UNL     1       3.236   8.288  18.423  0.00  0.00    +0.000 HD
ENDROOT
BRANCH   8  13
ATOM     13  C   UNL     1       1.437   8.772  19.128  0.00  0.00    +0.000 A 
ATOM     14  C   UNL     1       0.889   9.170  20.355  0.00  0.00    +0.000 A 
ATOM     15  C   UNL     1      -0.241   9.985  20.398  0.00  0.00    +0.000 A 
ATOM     16  C   UNL     1      -0.816  10.419  19.208  0.00  0.00    +0.000 A 
ATOM     17  F   UNL     1      -1.897  11.209  19.248  0.00  0.00    +0.000 F 
ATOM     18  C   UNL     1      -0.284  10.048  17.982  0.00  0.00    +0.000 A 
ATOM     19  C   UNL     1       0.843   9.223  17.943  0.00  0.00    +0.000 A 
ENDBRANCH   8  13
BRANCH   1  20
ATOM     20  C   UNL     1       6.380   4.261  16.692  0.00  0.00    +0.000 C 
ATOM     21  O   UNL     1       7.555   4.564  16.877  0.00  0.00    +0.000 OA
BRANCH  20  23
ATOM     22  C   UNL     1       6.062   4.362  14.374  0.00  0.00    +0.000 C 
ATOM     23  O   UNL     1       5.943   3.607  15.578  0.00  0.00    +0.000 OA
ENDBRANCH  20  23
ENDBRANCH   1  20
TORSDOF 3
ENDMDL
MODEL 9
REMARK VINA RESULT:      -7.3      4.830      7.472
REMARK  Name = 
REMARK  5 active torsions:
REMARK  status: ('A' for Active; 'I' for Inactive)
REMARK    1  A    between atoms: C_1  and  O_2
REMARK    2  A    between atoms: O_2  and  C_3
REMARK    3  A    between atoms: C_3  and  C_5
REMARK    4  A    between atoms: N_12  and  C_13
REMARK    5  A    between atoms: C_21  and  C_22
REMARK                            x       y       z     vdW  Elec       q    Type
REMARK                         _______ _______ _______ _____ _____    ______ ____
ROOT
ATOM      1  C   UNL     1       5.262   4.549  17.617  0.00  0.00    +0.000 A 
ATOM      2  S   UNL     1       4.554   3.314  18.557  0.00  0.00    +0.000 S 
ATOM      3  C   UNL     1       3.480   4.388  19.302  0.00  0.00    +0.000 A 
ATOM      4  N   UNL     1       2.628   3.905  20.219  0.00  0.00    +0.000 NA
ATOM      5  C   UNL     1       1.839   4.841  20.727  0.00  0.00    +0.000 A 
ATOM      6  N   UNL     1       1.821   6.132  20.394  0.00  0.00    +0.000 NA
ATOM      7  C   UNL     1       2.680   6.609  19.455  0.00  0.00    +0.000 A 
ATOM      8  N   UNL     1       2.613   7.981  19.168  0.00  0.00    +0.000 N 
ATOM      9  C   UNL     1       3.600   5.702  18.861  0.00  0.00    +0.000 A 
ATOM     10  C   UNL     1       4.669   5.794  17.860  0.00  0.00    +0.000 A 
ATOM     11  C   UNL     1       5.137   7.021  17.131  0.00  0.00    +0.000 C 
ATOM     12  H   UNL     1       3.262   8.297  18.472  0.00  0.00    +0.000 HD
ENDROOT
BRANCH   8  13
ATOM     13  C   UNL     1       1.465   8.797  19.175  0.00  0.00    +0.000 A 
ATOM     14  C   UNL     1       0.909   9.191  17.950  0.00  0.00    +0.000 A 
ATOM     15  C   UNL     1      -0.244   9.975  17.913  0.00  0.00    +0.000 A 
ATOM     16  C   UNL     1      -0.853  10.352  19.106  0.00  0.00    +0.000 A 
ATOM     17  F   UNL     1      -1.964  11.098  19.071  0.00  0.00    +0.000 F 
ATOM     18  C   UNL     1      -0.326   9.963  20.329  0.00  0.00    +0.000 A 
ATOM     19  C   UNL     1       0.834   9.187  20.363  0.00  0.00    +0.000 A 
ENDBRANCH   8  13
BRANCH   1  20
ATOM     20  C   UNL     1       6.356   4.254  16.694  0.00  0.00    +0.000 C 
ATOM     21  O   UNL     1       7.530   4.559  16.879  0.00  0.00    +0.000 OA
BRANCH  20  23
ATOM     22  C   UNL     1       5.868   4.403  14.408  0.00  0.00    +0.000 C 
ATOM     23  O   UNL     1       5.920   3.594  15.582  0.00  0.00    +0.000 OA
ENDBRANCH  20  23
ENDBRANCH   1  20
TORSDOF 3
ENDMDL
