MODEL 1
REMARK VINA RESULT:      -8.9      0.000      0.000
REMARK  Name = 
REMARK  4 active torsions:
REMARK  status: ('A' for Active; 'I' for Inactive)
REMARK    1  A    between atoms: C_8  and  C_9
REMARK    2  A    between atoms: C_9  and  C_10
REMARK    3  A    between atoms: C_10  and  N_11
REMARK    4  A    between atoms: N_14  and  C_15
REMARK                            x       y       z     vdW  Elec       q    Type
REMARK                         _______ _______ _______ _____ _____    ______ ____
ROOT
ATOM      1  N   UNL     1       7.792   6.592  17.152  0.00  0.00    +0.000 NA
ATOM      2  C   UNL     1       7.798   5.680  18.315  0.00  0.00    +0.000 C 
ATOM      3  C   UNL     1       6.448   5.475  19.049  0.00  0.00    +0.000 C 
ATOM      4  N   UNL     1       5.309   5.308  18.142  0.00  0.00    +0.000 N 
ATOM      5  C   UNL     1       5.304   6.117  16.918  0.00  0.00    +0.000 C 
ATOM      6  C   UNL     1       6.700   6.123  16.257  0.00  0.00    +0.000 C 
ENDROOT
BRANCH   4   7
ATOM      7  C   UNL     1       4.359   4.309  18.261  0.00  0.00    +0.000 A 
ATOM      8  N   UNL     1       4.591   3.197  17.513  0.00  0.00    +0.000 NA
ATOM      9  C   UNL     1       3.707   2.183  17.539  0.00  0.00    +0.000 A 
ATOM     10  C   UNL     1       2.553   2.192  18.288  0.00  0.00    +0.000 A 
ATOM     11  C   UNL     1       2.282   3.316  19.065  0.00  0.00    +0.000 A 
ATOM     12  C   UNL     1       1.101   3.355  19.830  0.00  0.00    +0.000 A 
ATOM     13  C   UNL     1       0.783   4.466  20.605  0.00  0.00    +0.000 A 
ATOM     14  C   UNL     1       1.624   5.565  20.600  0.00  0.00    +0.000 A 
ATOM     15  C   UNL     1       2.786   5.548  19.823  0.00  0.00    +0.000 A 
ATOM     16  C   UNL     1       3.179   4.415  19.058  0.00  0.00    +0.000 A 
ENDBRANCH   4   7
BRANCH   1  17
ATOM     17  C   UNL     1       7.598   8.014  17.502  0.00  0.00    +0.000 C 
BRANCH  17  18
ATOM     18  C   UNL     1       8.588   8.576  18.540  0.00  0.00    +0.000 C 
BRANCH  18  26
ATOM     19  O   UNL     1      12.332  14.624  19.796  0.00  0.00    +0.000 OA
ATOM     20  C   UNL     1      11.419  14.043  19.212  0.00  0.00    +0.000 C 
ATOM     21  C   UNL     1      10.635  14.653  18.056  0.00  0.00    +0.000 C 
ATOM     22  O   UNL     1       9.318  14.175  17.812  0.00  0.00    +0.000 OA
ATOM     23  C   UNL     1       9.191  12.826  18.019  0.00  0.00    +0.000 A 
ATOM     24  C   UNL     1       8.112  12.195  17.407  0.00  0.00    +0.000 A 
ATOM     25  C   UNL     1       7.921  10.823  17.579  0.00  0.00    +0.000 A 
ATOM     26  C   UNL     1       8.789  10.071  18.386  0.00  0.00    +0.000 A 
ATOM     27  C   UNL     1       9.845  10.728  19.040  0.00  0.00    +0.000 A 
ATOM     28  C   UNL     1      10.048  12.096  18.844  0.00  0.00    +0.000 A 
ATOM     29  N   UNL     1      11.104  12.741  19.494  0.00  0.00    +0.000 N 
ATOM     30  H   UNL     1      11.668  12.263  20.184  0.00  0.00    +0.000 HD
ENDBRANCH  18  26
ENDBRANCH  17  18
ENDBRANCH   1  17
TORSDOF 4
ENDMDL
MODEL 2
REMARK VINA RESULT:      -8.8      0.979      1.502
REMARK  Name = 
REMARK  4 active torsions:
REMARK  status: ('A' for Active; 'I' for Inactive)
REMARK    1  A    between atoms: C_8  and  C_9
REMARK    2  A    between atoms: C_9  and  C_10
REMARK    3  A    between atoms: C_10  and  N_11
REMARK    4  A    between atoms: N_14  and  C_15
REMARK                            x       y       z     vdW  Elec       q    Type
REMARK                         _______ _______ _______ _____ _____    ______ ____
ROOT
ATOM      1  N   UNL     1       7.931   6.583  17.738  0.00  0.00    +0.000 NA
ATOM      2  C   UNL     1       7.865   5.402  18.623  0.00  0.00    +0.000 C 
ATOM      3  C   UNL     1       6.501   5.109  19.298  0.00  0.00    +0.000 C 
ATOM      4  N   UNL     1       5.357   5.265  18.394  0.00  0.00    +0.000 N 
ATOM      5  C   UNL     1       5.417   6.363  17.424  0.00  0.00    +0.000 C 
ATOM      6  C   UNL     1       6.813   6.443  16.767  0.00  0.00    +0.000 C 
ENDROOT
BRANCH   4   7
ATOM      7  C   UNL     1       4.337   4.340  18.263  0.00  0.00    +0.000 A 
ATOM      8  N   UNL     1       4.505   3.431  17.264  0.00  0.00    +0.000 NA
ATOM      9  C   UNL     1       3.551   2.509  17.039  0.00  0.00    +0.000 A 
ATOM     10  C   UNL     1       2.387   2.418  17.766  0.00  0.00    +0.000 A 
ATOM     11  C   UNL     1       2.181   3.334  18.795  0.00  0.00    +0.000 A 
ATOM     12  C   UNL     1       0.991   3.269  19.545  0.00  0.00    +0.000 A 
ATOM     13  C   UNL     1       0.738   4.176  20.569  0.00  0.00    +0.000 A 
ATOM     14  C   UNL     1       1.653   5.179  20.836  0.00  0.00    +0.000 A 
ATOM     15  C   UNL     1       2.826   5.268  20.080  0.00  0.00    +0.000 A 
ATOM     16  C   UNL     1       3.153   4.332  19.061  0.00  0.00    +0.000 A 
ENDBRANCH   4   7
BRANCH   1  17
ATOM     17  C   UNL     1       7.838   7.875  18.448  0.00  0.00    +0.000 C 
BRANCH  17  18
ATOM     18  C   UNL     1       7.928   9.126  17.553  0.00  0.00    +0.000 C 
BRANCH  18  26
ATOM     19  O   UNL     1      10.007  16.036  17.867  0.00  0.00    +0.000 OA
ATOM     20  C   UNL     1       9.932  14.926  18.389  0.00  0.00    +0.000 C 
ATOM     21  C   UNL     1      10.259  14.660  19.854  0.00  0.00    +0.000 C 
ATOM     22  O   UNL     1      10.659  13.346  20.225  0.00  0.00    +0.000 OA
ATOM     23  C   UNL     1       9.985  12.368  19.540  0.00  0.00    +0.000 A 
ATOM     24  C   UNL     1       9.969  11.100  20.112  0.00  0.00    +0.000 A 
ATOM     25  C   UNL     1       9.305  10.055  19.466  0.00  0.00    +0.000 A 
ATOM     26  C   UNL     1       8.673  10.260  18.229  0.00  0.00    +0.000 A 
ATOM     27  C   UNL     1       8.739  11.533  17.637  0.00  0.00    +0.000 A 
ATOM     28  C   UNL     1       9.383  12.581  18.300  0.00  0.00    +0.000 A 
ATOM     29  N   UNL     1       9.440  13.846  17.707  0.00  0.00    +0.000 N 
ATOM     30  H   UNL     1       9.114  13.999  16.763  0.00  0.00    +0.000 HD
ENDBRANCH  18  26
ENDBRANCH  17  18
ENDBRANCH   1  17
TORSDOF 4
ENDMDL
MODEL 3
REMARK VINA RESULT:      -8.4      5.443      8.080
REMARK  Name = 
REMARK  4 active torsions:
REMARK  status: ('A' for Active; 'I' for Inactive)
REMARK    1  A    between atoms: C_8  and  C_9
REMARK    2  A    between atoms: C_9  and  C_10
REMARK    3  A    between atoms: C_10  and  N_11
REMARK    4  A    between atoms: N_14  and  C_15
REMARK                            x       y       z     vdW  Elec       q    Type
REMARK                         _______ _______ _______ _____ _____    ______ ____
ROOT
ATOM      1  N   UNL     1       2.374   5.019  19.301  0.00  0.00    +0.000 NA
ATOM      2  C   UNL     1       1.568   5.439  20.466  0.00  0.00    +0.000 C 
ATOM      3  C   UNL     1       1.776   6.889  20.974  0.00  0.00    +0.000 C 
ATOM      4  N   UNL     1       1.862   7.879  19.896  0.00  0.00    +0.000 N 
ATOM      5  C   UNL     1       2.565   7.476  18.673  0.00  0.00    +0.000 C 
ATOM      6  C   UNL     1       2.158   6.048  18.249  0.00  0.00    +0.000 C 
ENDROOT
BRANCH   4   7
ATOM      7  C   UNL     1       1.162   9.072  19.877  0.00  0.00    +0.000 A 
ATOM      8  N   UNL     1       1.247   9.776  18.716  0.00  0.00    +0.000 NA
ATOM      9  C   UNL     1       0.624  10.963  18.612  0.00  0.00    +0.000 A 
ATOM     10  C   UNL     1      -0.114  11.532  19.625  0.00  0.00    +0.000 A 
ATOM     11  C   UNL     1      -0.221  10.841  20.829  0.00  0.00    +0.000 A 
ATOM     12  C   UNL     1      -0.959  11.409  21.884  0.00  0.00    +0.000 A 
ATOM     13  C   UNL     1      -1.076  10.759  23.110  0.00  0.00    +0.000 A 
ATOM     14  C   UNL     1      -0.431   9.551  23.307  0.00  0.00    +0.000 A 
ATOM     15  C   UNL     1       0.326   8.991  22.274  0.00  0.00    +0.000 A 
ATOM     16  C   UNL     1       0.430   9.590  20.989  0.00  0.00    +0.000 A 
ENDBRANCH   4   7
BRANCH   1  17
ATOM     17  C   UNL     1       3.816   4.869  19.587  0.00  0.00    +0.000 C 
BRANCH  17  18
ATOM     18  C   UNL     1       4.504   3.682  18.886  0.00  0.00    +0.000 C 
BRANCH  18  26
ATOM     19  O   UNL     1       6.607   3.351  11.984  0.00  0.00    +0.000 OA
ATOM     20  C   UNL     1       6.664   3.894  13.086  0.00  0.00    +0.000 C 
ATOM     21  C   UNL     1       7.346   5.235  13.330  0.00  0.00    +0.000 C 
ATOM     22  O   UNL     1       7.824   5.516  14.640  0.00  0.00    +0.000 OA
ATOM     23  C   UNL     1       6.999   5.038  15.625  0.00  0.00    +0.000 A 
ATOM     24  C   UNL     1       7.124   5.617  16.884  0.00  0.00    +0.000 A 
ATOM     25  C   UNL     1       6.317   5.175  17.935  0.00  0.00    +0.000 A 
ATOM     26  C   UNL     1       5.396   4.132  17.745  0.00  0.00    +0.000 A 
ATOM     27  C   UNL     1       5.315   3.521  16.483  0.00  0.00    +0.000 A 
ATOM     28  C   UNL     1       6.106   3.984  15.428  0.00  0.00    +0.000 A 
ATOM     29  N   UNL     1       6.015   3.375  14.173  0.00  0.00    +0.000 N 
ATOM     30  H   UNL     1       5.463   2.539  14.033  0.00  0.00    +0.000 HD
ENDBRANCH  18  26
ENDBRANCH  17  18
ENDBRANCH   1  17
TORSDOF 4
ENDMDL
MODEL 4
REMARK VINA RESULT:      -8.4      1.202      1.739
REMARK  Name = 
REMARK  4 active torsions:
REMARK  status: ('A' for Active; 'I' for Inactive)
REMARK    1  A    between atoms: C_8  and  C_9
REMARK    2  A    between atoms: C_9  and  C_10
REMARK    3  A    between atoms: C_10  and  N_11
REMARK    4  A    between atoms: N_14  and  C_15
REMARK                            x       y       z     vdW  Elec       q    Type
REMARK                         _______ _______ _______ _____ _____    ______ ____
ROOT
ATOM      1  N   UNL     1       7.780   7.190  17.158  0.00  0.00    +0.000 NA
ATOM      2  C   UNL     1       7.853   6.143  18.199  0.00  0.00    +0.000 C 
ATOM      3  C   UNL     1       6.538   5.812  18.950  0.00  0.00    +0.000 C 
ATOM      4  N   UNL     1       5.369   5.724  18.069  0.00  0.00    +0.000 N 
ATOM      5  C   UNL     1       5.298   6.676  16.955  0.00  0.00    +0.000 C 
ATOM      6  C   UNL     1       6.666   6.803  16.251  0.00  0.00    +0.000 C 
ENDROOT
BRANCH   4   7
ATOM      7  C   UNL     1       4.448   4.692  18.098  0.00  0.00    +0.000 A 
ATOM      8  N   UNL     1       4.685   3.680  17.221  0.00  0.00    +0.000 NA
ATOM      9  C   UNL     1       3.828   2.644  17.154  0.00  0.00    +0.000 A 
ATOM     10  C   UNL     1       2.697   2.535  17.930  0.00  0.00    +0.000 A 
ATOM     11  C   UNL     1       2.422   3.555  18.838  0.00  0.00    +0.000 A 
ATOM     12  C   UNL     1       1.264   3.472  19.634  0.00  0.00    +0.000 A 
ATOM     13  C   UNL     1       0.942   4.478  20.540  0.00  0.00    +0.000 A 
ATOM     14  C   UNL     1       1.753   5.594  20.639  0.00  0.00    +0.000 A 
ATOM     15  C   UNL     1       2.892   5.699  19.835  0.00  0.00    +0.000 A 
ATOM     16  C   UNL     1       3.291   4.672  18.934  0.00  0.00    +0.000 A 
ENDBRANCH   4   7
BRANCH   1  17
ATOM     17  C   UNL     1       7.566   8.552  17.687  0.00  0.00    +0.000 C 
BRANCH  17  18
ATOM     18  C   UNL     1       8.659   9.065  18.644  0.00  0.00    +0.000 C 
BRANCH  18  26
ATOM     19  O   UNL     1       7.392  16.138  17.906  0.00  0.00    +0.000 OA
ATOM     20  C   UNL     1       8.184  15.197  17.918  0.00  0.00    +0.000 C 
ATOM     21  C   UNL     1       9.698  15.370  17.920  0.00  0.00    +0.000 C 
ATOM     22  O   UNL     1      10.496  14.310  17.406  0.00  0.00    +0.000 OA
ATOM     23  C   UNL     1      10.001  13.070  17.716  0.00  0.00    +0.000 A 
ATOM     24  C   UNL     1      10.894  12.005  17.657  0.00  0.00    +0.000 A 
ATOM     25  C   UNL     1      10.457  10.713  17.956  0.00  0.00    +0.000 A 
ATOM     26  C   UNL     1       9.115  10.467  18.291  0.00  0.00    +0.000 A 
ATOM     27  C   UNL     1       8.211  11.543  18.298  0.00  0.00    +0.000 A 
ATOM     28  C   UNL     1       8.660  12.837  18.023  0.00  0.00    +0.000 A 
ATOM     29  N   UNL     1       7.755  13.903  18.038  0.00  0.00    +0.000 N 
ATOM     30  H   UNL     1       6.762  13.748  18.143  0.00  0.00    +0.000 HD
ENDBRANCH  18  26
ENDBRANCH  17  18
ENDBRANCH   1  17
TORSDOF 4
ENDMDL
MODEL 5
REMARK VINA RESULT:      -8.2      1.280      2.515
REMARK  Name = 
REMARK  4 active torsions:
REMARK  status: ('A' for Active; 'I' for Inactive)
REMARK    1  A    between atoms: C_8  and  C_9
REMARK    2  A    between atoms: C_9  and  C_10
REMARK    3  A    between atoms: C_10  and  N_11
REMARK    4  A    between atoms: N_14  and  C_15
REMARK                            x       y       z     vdW  Elec       q    Type
REMARK                         _______ _______ _______ _____ _____    ______ ____
ROOT
ATOM      1  N   UNL     1       7.331   6.241  17.424  0.00  0.00    +0.000 NA
ATOM      2  C   UNL     1       7.188   5.081  18.329  0.00  0.00    +0.000 C 
ATOM      3  C   UNL     1       6.167   5.220  19.487  0.00  0.00    +0.000 C 
ATOM      4  N   UNL     1       4.903   5.842  19.080  0.00  0.00    +0.000 N 
ATOM      5  C   UNL     1       4.980   6.933  18.102  0.00  0.00    +0.000 C 
ATOM      6  C   UNL     1       5.959   6.583  16.961  0.00  0.00    +0.000 C 
ENDROOT
BRANCH   4   7
ATOM      7  C   UNL     1       3.653   5.343  19.396  0.00  0.00    +0.000 A 
ATOM      8  N   UNL     1       2.887   6.150  20.178  0.00  0.00    +0.000 NA
ATOM      9  C   UNL     1       1.665   5.738  20.563  0.00  0.00    +0.000 A 
ATOM     10  C   UNL     1       1.121   4.524  20.213  0.00  0.00    +0.000 A 
ATOM     11  C   UNL     1       1.878   3.670  19.414  0.00  0.00    +0.000 A 
ATOM     12  C   UNL     1       1.349   2.416  19.054  0.00  0.00    +0.000 A 
ATOM     13  C   UNL     1       2.079   1.526  18.272  0.00  0.00    +0.000 A 
ATOM     14  C   UNL     1       3.359   1.862  17.869  0.00  0.00    +0.000 A 
ATOM     15  C   UNL     1       3.905   3.093  18.244  0.00  0.00    +0.000 A 
ATOM     16  C   UNL     1       3.177   4.057  18.995  0.00  0.00    +0.000 A 
ENDBRANCH   4   7
BRANCH   1  17
ATOM     17  C   UNL     1       7.973   7.416  18.046  0.00  0.00    +0.000 C 
BRANCH  17  18
ATOM     18  C   UNL     1       7.582   8.777  17.439  0.00  0.00    +0.000 C 
BRANCH  18  26
ATOM     19  O   UNL     1       9.462  15.747  17.684  0.00  0.00    +0.000 OA
ATOM     20  C   UNL     1       9.483  14.624  18.184  0.00  0.00    +0.000 C 
ATOM     21  C   UNL     1       9.985  14.339  19.595  0.00  0.00    +0.000 C 
ATOM     22  O   UNL     1      10.466  13.032  19.885  0.00  0.00    +0.000 OA
ATOM     23  C   UNL     1       9.750  12.046  19.258  0.00  0.00    +0.000 A 
ATOM     24  C   UNL     1       9.840  10.766  19.796  0.00  0.00    +0.000 A 
ATOM     25  C   UNL     1       9.139   9.713  19.204  0.00  0.00    +0.000 A 
ATOM     26  C   UNL     1       8.363   9.922  18.053  0.00  0.00    +0.000 A 
ATOM     27  C   UNL     1       8.320  11.208  17.489  0.00  0.00    +0.000 A 
ATOM     28  C   UNL     1       9.002  12.264  18.100  0.00  0.00    +0.000 A 
ATOM     29  N   UNL     1       8.950  13.542  17.536  0.00  0.00    +0.000 N 
ATOM     30  H   UNL     1       8.513  13.704  16.639  0.00  0.00    +0.000 HD
ENDBRANCH  18  26
ENDBRANCH  17  18
ENDBRANCH   1  17
TORSDOF 4
ENDMDL
MODEL 6
REMARK VINA RESULT:      -8.0      7.389     10.594
REMARK  Name = 
REMARK  4 active torsions:
REMARK  status: ('A' for Active; 'I' for Inactive)
REMARK    1  A    between atoms: C_8  and  C_9
REMARK    2  A    between atoms: C_9  and  C_10
REMARK    3  A    between atoms: C_10  and  N_11
REMARK    4  A    between atoms: N_14  and  C_15
REMARK                            x       y       z     vdW  Elec       q    Type
REMARK                         _______ _______ _______ _____ _____    ______ ____
ROOT
ATOM      1  N   UNL     1       0.659  10.485  18.504  0.00  0.00    +0.000 NA
ATOM      2  C   UNL     1      -0.698  10.607  19.076  0.00  0.00    +0.000 C 
ATOM      3  C   UNL     1      -0.793  10.950  20.584  0.00  0.00    +0.000 C 
ATOM      4  N   UNL     1       0.148  11.992  21.007  0.00  0.00    +0.000 N 
ATOM      5  C   UNL     1       1.480  11.979  20.391  0.00  0.00    +0.000 C 
ATOM      6  C   UNL     1       1.382  11.733  18.870  0.00  0.00    +0.000 C 
ENDROOT
BRANCH   4   7
ATOM      7  C   UNL     1      -0.197  13.086  21.779  0.00  0.00    +0.000 A 
ATOM      8  N   UNL     1       0.657  14.143  21.701  0.00  0.00    +0.000 NA
ATOM      9  C   UNL     1       0.421  15.243  22.439  0.00  0.00    +0.000 A 
ATOM     10  C   UNL     1      -0.651  15.378  23.291  0.00  0.00    +0.000 A 
ATOM     11  C   UNL     1      -1.544  14.315  23.398  0.00  0.00    +0.000 A 
ATOM     12  C   UNL     1      -2.641  14.424  24.273  0.00  0.00    +0.000 A 
ATOM     13  C   UNL     1      -3.547  13.378  24.423  0.00  0.00    +0.000 A 
ATOM     14  C   UNL     1      -3.351  12.199  23.727  0.00  0.00    +0.000 A 
ATOM     15  C   UNL     1      -2.250  12.070  22.875  0.00  0.00    +0.000 A 
ATOM     16  C   UNL     1      -1.329  13.130  22.648  0.00  0.00    +0.000 A 
ENDBRANCH   4   7
BRANCH   1  17
ATOM     17  C   UNL     1       1.407   9.300  18.971  0.00  0.00    +0.000 C 
BRANCH  17  18
ATOM     18  C   UNL     1       2.288   8.617  17.908  0.00  0.00    +0.000 C 
BRANCH  18  26
ATOM     19  O   UNL     1       1.959   2.868  22.269  0.00  0.00    +0.000 OA
ATOM     20  C   UNL     1       2.441   3.429  21.286  0.00  0.00    +0.000 C 
ATOM     21  C   UNL     1       3.333   2.727  20.268  0.00  0.00    +0.000 C 
ATOM     22  O   UNL     1       4.245   3.518  19.516  0.00  0.00    +0.000 OA
ATOM     23  C   UNL     1       3.733   4.742  19.170  0.00  0.00    +0.000 A 
ATOM     24  C   UNL     1       4.335   5.395  18.100  0.00  0.00    +0.000 A 
ATOM     25  C   UNL     1       3.867   6.647  17.696  0.00  0.00    +0.000 A 
ATOM     26  C   UNL     1       2.808   7.272  18.375  0.00  0.00    +0.000 A 
ATOM     27  C   UNL     1       2.241   6.626  19.486  0.00  0.00    +0.000 A 
ATOM     28  C   UNL     1       2.696   5.362  19.870  0.00  0.00    +0.000 A 
ATOM     29  N   UNL     1       2.122   4.722  20.973  0.00  0.00    +0.000 N 
ATOM     30  H   UNL     1       1.453   5.195  21.565  0.00  0.00    +0.000 HD
ENDBRANCH  18  26
ENDBRANCH  17  18
ENDBRANCH   1  17
TORSDOF 4
ENDMDL
MODEL 7
REMARK VINA RESULT:      -7.9      5.348      7.620
REMARK  Name = 
REMARK  4 active torsions:
REMARK  status: ('A' for Active; 'I' for Inactive)
REMARK    1  A    between atoms: C_8  and  C_9
REMARK    2  A    between atoms: C_9  and  C_10
REMARK    3  A    between atoms: C_10  and  N_11
REMARK    4  A    between atoms: N_14  and  C_15
REMARK                            x       y       z     vdW  Elec       q    Type
REMARK                         _______ _______ _______ _____ _____    ______ ____
ROOT
ATOM      1  N   UNL     1       2.252   3.546  19.385  0.00  0.00    +0.000 NA
ATOM      2  C   UNL     1       2.526   4.468  20.506  0.00  0.00    +0.000 C 
ATOM      3  C   UNL     1       3.130   5.849  20.144  0.00  0.00    +0.000 C 
ATOM      4  N   UNL     1       2.503   6.472  18.974  0.00  0.00    +0.000 N 
ATOM      5  C   UNL     1       2.116   5.585  17.871  0.00  0.00    +0.000 C 
ATOM      6  C   UNL     1       1.431   4.308  18.405  0.00  0.00    +0.000 C 
ENDROOT
BRANCH   4   7
ATOM      7  C   UNL     1       2.075   7.786  18.927  0.00  0.00    +0.000 A 
ATOM      8  N   UNL     1       2.441   8.476  17.813  0.00  0.00    +0.000 NA
ATOM      9  C   UNL     1       2.096   9.770  17.690  0.00  0.00    +0.000 A 
ATOM     10  C   UNL     1       1.383  10.466  18.639  0.00  0.00    +0.000 A 
ATOM     11  C   UNL     1       0.994   9.793  19.794  0.00  0.00    +0.000 A 
ATOM     12  C   UNL     1       0.274  10.487  20.785  0.00  0.00    +0.000 A 
ATOM     13  C   UNL     1      -0.118   9.856  21.962  0.00  0.00    +0.000 A 
ATOM     14  C   UNL     1       0.232   8.535  22.179  0.00  0.00    +0.000 A 
ATOM     15  C   UNL     1       0.970   7.845  21.213  0.00  0.00    +0.000 A 
ATOM     16  C   UNL     1       1.345   8.430  19.972  0.00  0.00    +0.000 A 
ENDBRANCH   4   7
BRANCH   1  17
ATOM     17  C   UNL     1       3.464   3.009  18.734  0.00  0.00    +0.000 C 
BRANCH  17  18
ATOM     18  C   UNL     1       4.786   3.685  19.147  0.00  0.00    +0.000 C 
BRANCH  18  26
ATOM     19  O   UNL     1       6.411   3.322  12.118  0.00  0.00    +0.000 OA
ATOM     20  C   UNL     1       6.546   3.867  13.212  0.00  0.00    +0.000 C 
ATOM     21  C   UNL     1       7.253   5.204  13.405  0.00  0.00    +0.000 C 
ATOM     22  O   UNL     1       7.821   5.485  14.679  0.00  0.00    +0.000 OA
ATOM     23  C   UNL     1       7.061   5.015  15.719  0.00  0.00    +0.000 A 
ATOM     24  C   UNL     1       7.276   5.596  16.965  0.00  0.00    +0.000 A 
ATOM     25  C   UNL     1       6.540   5.163  18.070  0.00  0.00    +0.000 A 
ATOM     26  C   UNL     1       5.601   4.126  17.946  0.00  0.00    +0.000 A 
ATOM     27  C   UNL     1       5.430   3.512  16.694  0.00  0.00    +0.000 A 
ATOM     28  C   UNL     1       6.150   3.967  15.586  0.00  0.00    +0.000 A 
ATOM     29  N   UNL     1       5.969   3.355  14.342  0.00  0.00    +0.000 N 
ATOM     30  H   UNL     1       5.404   2.523  14.243  0.00  0.00    +0.000 HD
ENDBRANCH  18  26
ENDBRANCH  17  18
ENDBRANCH   1  17
TORSDOF 4
ENDMDL
MODEL 8
REMARK VINA RESULT:      -7.8      6.470     10.421
REMARK  Name = 
REMARK  4 active torsions:
REMARK  status: ('A' for Active; 'I' for Inactive)
REMARK    1  A    between atoms: C_8  and  C_9
REMARK    2  A    between atoms: C_9  and  C_10
REMARK    3  A    between atoms: C_10  and  N_11
REMARK    4  A    between atoms: N_14  and  C_15
REMARK                            x       y       z     vdW  Elec       q    Type
REMARK                         _______ _______ _______ _____ _____    ______ ____
ROOT
ATOM      1  N   UNL     1       0.097   9.759  20.291  0.00  0.00    +0.000 NA
ATOM      2  C   UNL     1       0.565  10.723  21.309  0.00  0.00    +0.000 C 
ATOM      3  C   UNL     1       1.338  11.963  20.794  0.00  0.00    +0.000 C 
ATOM      4  N   UNL     1       0.740  12.571  19.600  0.00  0.00    +0.000 N 
ATOM      5  C   UNL     1       0.167  11.660  18.603  0.00  0.00    +0.000 C 
ATOM      6  C   UNL     1      -0.661  10.549  19.283  0.00  0.00    +0.000 C 
ENDROOT
BRANCH   4   7
ATOM      7  C   UNL     1       0.503  13.925  19.452  0.00  0.00    +0.000 A 
ATOM      8  N   UNL     1      -0.687  14.363  19.944  0.00  0.00    +0.000 NA
ATOM      9  C   UNL     1      -1.021  15.660  19.820  0.00  0.00    +0.000 A 
ATOM     10  C   UNL     1      -0.222  16.602  19.213  0.00  0.00    +0.000 A 
ATOM     11  C   UNL     1       1.004  16.189  18.695  0.00  0.00    +0.000 A 
ATOM     12  C   UNL     1       1.833  17.131  18.058  0.00  0.00    +0.000 A 
ATOM     13  C   UNL     1       3.057  16.757  17.511  0.00  0.00    +0.000 A 
ATOM     14  C   UNL     1       3.453  15.432  17.565  0.00  0.00    +0.000 A 
ATOM     15  C   UNL     1       2.625  14.483  18.172  0.00  0.00    +0.000 A 
ATOM     16  C   UNL     1       1.392  14.827  18.792  0.00  0.00    +0.000 A 
ENDBRANCH   4   7
BRANCH   1  17
ATOM     17  C   UNL     1       1.181   8.996  19.639  0.00  0.00    +0.000 C 
BRANCH  17  18
ATOM     18  C   UNL     1       1.722   7.802  20.449  0.00  0.00    +0.000 C 
BRANCH  18  26
ATOM     19  O   UNL     1       6.035   5.867  14.986  0.00  0.00    +0.000 OA
ATOM     20  C   UNL     1       5.329   5.554  15.944  0.00  0.00    +0.000 C 
ATOM     21  C   UNL     1       5.280   4.148  16.531  0.00  0.00    +0.000 C 
ATOM     22  O   UNL     1       4.108   3.755  17.234  0.00  0.00    +0.000 OA
ATOM     23  C   UNL     1       3.563   4.769  17.977  0.00  0.00    +0.000 A 
ATOM     24  C   UNL     1       2.712   4.400  19.014  0.00  0.00    +0.000 A 
ATOM     25  C   UNL     1       2.118   5.383  19.809  0.00  0.00    +0.000 A 
ATOM     26  C   UNL     1       2.348   6.746  19.559  0.00  0.00    +0.000 A 
ATOM     27  C   UNL     1       3.169   7.107  18.478  0.00  0.00    +0.000 A 
ATOM     28  C   UNL     1       3.781   6.120  17.701  0.00  0.00    +0.000 A 
ATOM     29  N   UNL     1       4.601   6.488  16.631  0.00  0.00    +0.000 N 
ATOM     30  H   UNL     1       4.684   7.452  16.339  0.00  0.00    +0.000 HD
ENDBRANCH  18  26
ENDBRANCH  17  18
ENDBRANCH   1  17
TORSDOF 4
ENDMDL
MODEL 9
REMARK VINA RESULT:      -7.8      7.778     10.767
REMARK  Name = 
REMARK  4 active torsions:
REMARK  status: ('A' for Active; 'I' for Inactive)
REMARK    1  A    between atoms: C_8  and  C_9
REMARK    2  A    between atoms: C_9  and  C_10
REMARK    3  A    between atoms: C_10  and  N_11
REMARK    4  A    between atoms: N_14  and  C_15
REMARK                            x       y       z     vdW  Elec       q    Type
REMARK                         _______ _______ _______ _____ _____    ______ ____
ROOT
ATOM      1  N   UNL     1       1.176  11.063  19.498  0.00  0.00    +0.000 NA
ATOM      2  C   UNL     1       0.476  11.993  18.589  0.00  0.00    +0.000 C 
ATOM      3  C   UNL     1      -1.073  11.940  18.591  0.00  0.00    +0.000 C 
ATOM      4  N   UNL     1      -1.652  11.841  19.935  0.00  0.00    +0.000 N 
ATOM      5  C   UNL     1      -0.938  11.010  20.910  0.00  0.00    +0.000 C 
ATOM      6  C   UNL     1       0.583  11.269  20.847  0.00  0.00    +0.000 C 
ENDROOT
BRANCH   4   7
ATOM      7  C   UNL     1      -2.694  12.626  20.393  0.00  0.00    +0.000 A 
ATOM      8  N   UNL     1      -2.401  13.410  21.466  0.00  0.00    +0.000 NA
ATOM      9  C   UNL     1      -3.359  14.187  22.002  0.00  0.00    +0.000 A 
ATOM     10  C   UNL     1      -4.650  14.247  21.530  0.00  0.00    +0.000 A 
ATOM     11  C   UNL     1      -4.987  13.456  20.434  0.00  0.00    +0.000 A 
ATOM     12  C   UNL     1      -6.305  13.490  19.941  0.00  0.00    +0.000 A 
ATOM     13  C   UNL     1      -6.687  12.703  18.859  0.00  0.00    +0.000 A 
ATOM     14  C   UNL     1      -5.768  11.847  18.278  0.00  0.00    +0.000 A 
ATOM     15  C   UNL     1      -4.464  11.786  18.776  0.00  0.00    +0.000 A 
ATOM     16  C   UNL     1      -4.012  12.611  19.844  0.00  0.00    +0.000 A 
ENDBRANCH   4   7
BRANCH   1  17
ATOM     17  C   UNL     1       1.078   9.644  19.103  0.00  0.00    +0.000 C 
BRANCH  17  18
ATOM     18  C   UNL     1       2.140   9.168  18.093  0.00  0.00    +0.000 C 
BRANCH  18  26
ATOM     19  O   UNL     1       2.170   3.223  22.196  0.00  0.00    +0.000 OA
ATOM     20  C   UNL     1       2.521   3.808  21.173  0.00  0.00    +0.000 C 
ATOM     21  C   UNL     1       3.193   3.115  19.993  0.00  0.00    +0.000 C 
ATOM     22  O   UNL     1       4.018   3.896  19.137  0.00  0.00    +0.000 OA
ATOM     23  C   UNL     1       3.532   5.161  18.933  0.00  0.00    +0.000 A 
ATOM     24  C   UNL     1       3.993   5.837  17.807  0.00  0.00    +0.000 A 
ATOM     25  C   UNL     1       3.542   7.131  17.540  0.00  0.00    +0.000 A 
ATOM     26  C   UNL     1       2.646   7.774  18.410  0.00  0.00    +0.000 A 
ATOM     27  C   UNL     1       2.227   7.101  19.570  0.00  0.00    +0.000 A 
ATOM     28  C   UNL     1       2.661   5.797  19.819  0.00  0.00    +0.000 A 
ATOM     29  N   UNL     1       2.234   5.132  20.972  0.00  0.00    +0.000 N 
ATOM     30  H   UNL     1       1.699   5.607  21.685  0.00  0.00    +0.000 HD
ENDBRANCH  18  26
ENDBRANCH  17  18
ENDBRANCH   1  17
TORSDOF 4
ENDMDL
