MODEL 1
REMARK VINA RESULT:      -7.7      0.000      0.000
REMARK  Name = 
REMARK  2 active torsions:
REMARK  status: ('A' for Active; 'I' for Inactive)
REMARK    1  A    between atoms: O_1  and  C_2
REMARK    2  A    between atoms: C_10  and  C_11
REMARK                            x       y       z     vdW  Elec       q    Type
REMARK                         _______ _______ _______ _____ _____    ______ ____
ROOT
ATOM      1  C   UNL     1       5.548   4.812  18.674  0.00  0.00    +0.000 C 
ATOM      2  C   UNL     1       6.730   5.288  17.809  0.00  0.00    +0.000 C 
ATOM      3  C   UNL     1       6.818   4.441  16.534  0.00  0.00    +0.000 C 
ATOM      4  N   UNL     1       5.586   4.581  15.743  0.00  0.00    +0.000 NA
ATOM      5  C   UNL     1       5.371   5.988  15.392  0.00  0.00    +0.000 C 
ATOM      6  N   UNL     1       5.247   6.833  16.586  0.00  0.00    +0.000 NA
ATOM      7  C   UNL     1       6.480   6.738  17.384  0.00  0.00    +0.000 C 
ATOM      8  C   UNL     1       4.085   6.385  17.383  0.00  0.00    +0.000 C 
ATOM      9  C   UNL     1       4.231   4.905  17.843  0.00  0.00    +0.000 C 
ATOM     10  C   UNL     1       4.438   4.088  16.535  0.00  0.00    +0.000 C 
ENDROOT
BRANCH   9  11
ATOM     11  C   UNL     1       3.003   4.480  18.669  0.00  0.00    +0.000 A 
ATOM     12  C   UNL     1       2.662   5.102  19.885  0.00  0.00    +0.000 A 
ATOM     13  C   UNL     1       1.543   4.700  20.620  0.00  0.00    +0.000 A 
ATOM     14  C   UNL     1       0.735   3.670  20.156  0.00  0.00    +0.000 A 
ATOM     15  C   UNL     1       1.045   3.039  18.957  0.00  0.00    +0.000 A 
ATOM     16  C   UNL     1       2.167   3.439  18.223  0.00  0.00    +0.000 A 
ENDBRANCH   9  11
BRANCH   1  17
ATOM     17  O   UNL     1       5.794   3.475  19.121  0.00  0.00    +0.000 OA
ATOM     18  H   UNL     1       6.076   3.521  20.051  0.00  0.00    +0.000 HD
ENDBRANCH   1  17
TORSDOF 2
ENDMDL
MODEL 2
REMARK VINA RESULT:      -7.7      0.253      1.191
REMARK  Name = 
REMARK  2 active torsions:
REMARK  status: ('A' for Active; 'I' for Inactive)
REMARK    1  A    between atoms: O_1  and  C_2
REMARK    2  A    between atoms: C_10  and  C_11
REMARK                            x       y       z     vdW  Elec       q    Type
REMARK                         _______ _______ _______ _____ _____    ______ ____
ROOT
ATOM      1  C   UNL     1       5.688   4.925  18.597  0.00  0.00    +0.000 C 
ATOM      2  C   UNL     1       6.874   5.323  17.699  0.00  0.00    +0.000 C 
ATOM      3  C   UNL     1       6.929   4.407  16.471  0.00  0.00    +0.000 C 
ATOM      4  N   UNL     1       5.694   4.535  15.683  0.00  0.00    +0.000 NA
ATOM      5  C   UNL     1       5.511   5.926  15.257  0.00  0.00    +0.000 C 
ATOM      6  N   UNL     1       5.420   6.837  16.404  0.00  0.00    +0.000 NA
ATOM      7  C   UNL     1       6.657   6.754  17.197  0.00  0.00    +0.000 C 
ATOM      8  C   UNL     1       4.254   6.463  17.234  0.00  0.00    +0.000 C 
ATOM      9  C   UNL     1       4.366   5.007  17.773  0.00  0.00    +0.000 C 
ATOM     10  C   UNL     1       4.541   4.115  16.510  0.00  0.00    +0.000 C 
ENDROOT
BRANCH   9  11
ATOM     11  C   UNL     1       3.136   4.659  18.630  0.00  0.00    +0.000 A 
ATOM     12  C   UNL     1       2.227   3.650  18.266  0.00  0.00    +0.000 A 
ATOM     13  C   UNL     1       1.115   3.350  19.059  0.00  0.00    +0.000 A 
ATOM     14  C   UNL     1       0.888   4.049  20.238  0.00  0.00    +0.000 A 
ATOM     15  C   UNL     1       1.771   5.049  20.625  0.00  0.00    +0.000 A 
ATOM     16  C   UNL     1       2.882   5.351  19.830  0.00  0.00    +0.000 A 
ENDBRANCH   9  11
BRANCH   1  17
ATOM     17  O   UNL     1       5.904   3.609  19.115  0.00  0.00    +0.000 OA
ATOM     18  H   UNL     1       6.552   3.677  19.837  0.00  0.00    +0.000 HD
ENDBRANCH   1  17
TORSDOF 2
ENDMDL
MODEL 3
REMARK VINA RESULT:      -7.4      2.181      4.916
REMARK  Name = 
REMARK  2 active torsions:
REMARK  status: ('A' for Active; 'I' for Inactive)
REMARK    1  A    between atoms: O_1  and  C_2
REMARK    2  A    between atoms: C_10  and  C_11
REMARK                            x       y       z     vdW  Elec       q    Type
REMARK                         _______ _______ _______ _____ _____    ______ ____
ROOT
ATOM      1  C   UNL     1       3.935   3.914  17.183  0.00  0.00    +0.000 C 
ATOM      2  C   UNL     1       2.663   3.070  17.389  0.00  0.00    +0.000 C 
ATOM      3  C   UNL     1       2.907   2.015  18.475  0.00  0.00    +0.000 C 
ATOM      4  N   UNL     1       3.238   2.666  19.752  0.00  0.00    +0.000 NA
ATOM      5  C   UNL     1       2.147   3.556  20.160  0.00  0.00    +0.000 C 
ATOM      6  N   UNL     1       1.899   4.604  19.163  0.00  0.00    +0.000 NA
ATOM      7  C   UNL     1       1.536   3.984  17.878  0.00  0.00    +0.000 C 
ATOM      8  C   UNL     1       3.118   5.427  19.007  0.00  0.00    +0.000 C 
ATOM      9  C   UNL     1       4.336   4.580  18.535  0.00  0.00    +0.000 C 
ATOM     10  C   UNL     1       4.483   3.449  19.594  0.00  0.00    +0.000 C 
ENDROOT
BRANCH   9  11
ATOM     11  C   UNL     1       5.581   5.473  18.384  0.00  0.00    +0.000 A 
ATOM     12  C   UNL     1       5.661   6.495  17.421  0.00  0.00    +0.000 A 
ATOM     13  C   UNL     1       6.801   7.295  17.300  0.00  0.00    +0.000 A 
ATOM     14  C   UNL     1       7.888   7.096  18.143  0.00  0.00    +0.000 A 
ATOM     15  C   UNL     1       7.836   6.096  19.107  0.00  0.00    +0.000 A 
ATOM     16  C   UNL     1       6.696   5.294  19.226  0.00  0.00    +0.000 A 
ENDBRANCH   9  11
BRANCH   1  17
ATOM     17  O   UNL     1       4.982   3.081  16.676  0.00  0.00    +0.000 OA
ATOM     18  H   UNL     1       4.866   3.013  15.712  0.00  0.00    +0.000 HD
ENDBRANCH   1  17
TORSDOF 2
ENDMDL
MODEL 4
REMARK VINA RESULT:      -7.4      2.189      4.888
REMARK  Name = 
REMARK  2 active torsions:
REMARK  status: ('A' for Active; 'I' for Inactive)
REMARK    1  A    between atoms: O_1  and  C_2
REMARK    2  A    between atoms: C_10  and  C_11
REMARK                            x       y       z     vdW  Elec       q    Type
REMARK                         _______ _______ _______ _____ _____    ______ ____
ROOT
ATOM      1  C   UNL     1       3.876   3.912  17.218  0.00  0.00    +0.000 C 
ATOM      2  C   UNL     1       2.602   3.076  17.442  0.00  0.00    +0.000 C 
ATOM      3  C   UNL     1       2.854   2.023  18.527  0.00  0.00    +0.000 C 
ATOM      4  N   UNL     1       3.204   2.674  19.798  0.00  0.00    +0.000 NA
ATOM      5  C   UNL     1       2.124   3.572  20.218  0.00  0.00    +0.000 C 
ATOM      6  N   UNL     1       1.870   4.619  19.221  0.00  0.00    +0.000 NA
ATOM      7  C   UNL     1       1.487   3.998  17.943  0.00  0.00    +0.000 C 
ATOM      8  C   UNL     1       3.092   5.435  19.048  0.00  0.00    +0.000 C 
ATOM      9  C   UNL     1       4.299   4.579  18.564  0.00  0.00    +0.000 C 
ATOM     10  C   UNL     1       4.451   3.449  19.623  0.00  0.00    +0.000 C 
ENDROOT
BRANCH   9  11
ATOM     11  C   UNL     1       5.547   5.464  18.395  0.00  0.00    +0.000 A 
ATOM     12  C   UNL     1       6.701   5.294  19.181  0.00  0.00    +0.000 A 
ATOM     13  C   UNL     1       7.825   6.109  19.012  0.00  0.00    +0.000 A 
ATOM     14  C   UNL     1       7.823   7.112  18.050  0.00  0.00    +0.000 A 
ATOM     15  C   UNL     1       6.698   7.301  17.257  0.00  0.00    +0.000 A 
ATOM     16  C   UNL     1       5.573   6.487  17.428  0.00  0.00    +0.000 A 
ENDBRANCH   9  11
BRANCH   1  17
ATOM     17  O   UNL     1       4.912   3.072  16.700  0.00  0.00    +0.000 OA
ATOM     18  H   UNL     1       4.528   2.537  15.983  0.00  0.00    +0.000 HD
ENDBRANCH   1  17
TORSDOF 2
ENDMDL
MODEL 5
REMARK VINA RESULT:      -7.3      2.292      4.987
REMARK  Name = 
REMARK  2 active torsions:
REMARK  status: ('A' for Active; 'I' for Inactive)
REMARK    1  A    between atoms: O_1  and  C_2
REMARK    2  A    between atoms: C_10  and  C_11
REMARK                            x       y       z     vdW  Elec       q    Type
REMARK                         _______ _______ _______ _____ _____    ______ ____
ROOT
ATOM      1  C   UNL     1       3.774   2.731  18.913  0.00  0.00    +0.000 C 
ATOM      2  C   UNL     1       2.869   2.151  20.016  0.00  0.00    +0.000 C 
ATOM      3  C   UNL     1       2.825   3.109  21.212  0.00  0.00    +0.000 C 
ATOM      4  N   UNL     1       2.273   4.410  20.803  0.00  0.00    +0.000 NA
ATOM      5  C   UNL     1       0.924   4.235  20.257  0.00  0.00    +0.000 C 
ATOM      6  N   UNL     1       0.923   3.349  19.087  0.00  0.00    +0.000 NA
ATOM      7  C   UNL     1       1.443   2.026  19.471  0.00  0.00    +0.000 C 
ATOM      8  C   UNL     1       1.766   3.941  18.025  0.00  0.00    +0.000 C 
ATOM      9  C   UNL     1       3.239   4.134  18.492  0.00  0.00    +0.000 C 
ATOM     10  C   UNL     1       3.150   5.011  19.775  0.00  0.00    +0.000 C 
ENDROOT
BRANCH   9  11
ATOM     11  C   UNL     1       4.080   4.750  17.360  0.00  0.00    +0.000 A 
ATOM     12  C   UNL     1       4.335   6.132  17.277  0.00  0.00    +0.000 A 
ATOM     13  C   UNL     1       5.102   6.671  16.241  0.00  0.00    +0.000 A 
ATOM     14  C   UNL     1       5.637   5.842  15.262  0.00  0.00    +0.000 A 
ATOM     15  C   UNL     1       5.405   4.473  15.319  0.00  0.00    +0.000 A 
ATOM     16  C   UNL     1       4.636   3.934  16.356  0.00  0.00    +0.000 A 
ENDBRANCH   9  11
BRANCH   1  17
ATOM     17  O   UNL     1       5.120   2.804  19.392  0.00  0.00    +0.000 OA
ATOM     18  H   UNL     1       5.712   2.774  18.620  0.00  0.00    +0.000 HD
ENDBRANCH   1  17
TORSDOF 2
ENDMDL
MODEL 6
REMARK VINA RESULT:      -7.3      2.290      5.105
REMARK  Name = 
REMARK  2 active torsions:
REMARK  status: ('A' for Active; 'I' for Inactive)
REMARK    1  A    between atoms: O_1  and  C_2
REMARK    2  A    between atoms: C_10  and  C_11
REMARK                            x       y       z     vdW  Elec       q    Type
REMARK                         _______ _______ _______ _____ _____    ______ ____
ROOT
ATOM      1  C   UNL     1       3.767   2.723  18.921  0.00  0.00    +0.000 C 
ATOM      2  C   UNL     1       2.857   2.150  20.024  0.00  0.00    +0.000 C 
ATOM      3  C   UNL     1       2.818   3.111  21.219  0.00  0.00    +0.000 C 
ATOM      4  N   UNL     1       2.275   4.414  20.806  0.00  0.00    +0.000 NA
ATOM      5  C   UNL     1       0.926   4.247  20.259  0.00  0.00    +0.000 C 
ATOM      6  N   UNL     1       0.920   3.359  19.090  0.00  0.00    +0.000 NA
ATOM      7  C   UNL     1       1.431   2.034  19.478  0.00  0.00    +0.000 C 
ATOM      8  C   UNL     1       1.768   3.943  18.029  0.00  0.00    +0.000 C 
ATOM      9  C   UNL     1       3.241   4.128  18.496  0.00  0.00    +0.000 C 
ATOM     10  C   UNL     1       3.157   5.008  19.778  0.00  0.00    +0.000 C 
ENDROOT
BRANCH   9  11
ATOM     11  C   UNL     1       4.089   4.737  17.364  0.00  0.00    +0.000 A 
ATOM     12  C   UNL     1       4.653   3.952  16.342  0.00  0.00    +0.000 A 
ATOM     13  C   UNL     1       5.420   4.524  15.323  0.00  0.00    +0.000 A 
ATOM     14  C   UNL     1       5.638   5.897  15.298  0.00  0.00    +0.000 A 
ATOM     15  C   UNL     1       5.090   6.697  16.293  0.00  0.00    +0.000 A 
ATOM     16  C   UNL     1       4.325   6.124  17.314  0.00  0.00    +0.000 A 
ENDBRANCH   9  11
BRANCH   1  17
ATOM     17  O   UNL     1       5.113   2.787  19.401  0.00  0.00    +0.000 OA
ATOM     18  H   UNL     1       5.705   2.775  18.629  0.00  0.00    +0.000 HD
ENDBRANCH   1  17
TORSDOF 2
ENDMDL
MODEL 7
REMARK VINA RESULT:      -7.3      2.199      5.031
REMARK  Name = 
REMARK  2 active torsions:
REMARK  status: ('A' for Active; 'I' for Inactive)
REMARK    1  A    between atoms: O_1  and  C_2
REMARK    2  A    between atoms: C_10  and  C_11
REMARK                            x       y       z     vdW  Elec       q    Type
REMARK                         _______ _______ _______ _____ _____    ______ ____
ROOT
ATOM      1  C   UNL     1       3.747   2.363  18.929  0.00  0.00    +0.000 C 
ATOM      2  C   UNL     1       2.519   2.117  19.826  0.00  0.00    +0.000 C 
ATOM      3  C   UNL     1       2.576   3.037  21.052  0.00  0.00    +0.000 C 
ATOM      4  N   UNL     1       2.563   4.446  20.632  0.00  0.00    +0.000 NA
ATOM      5  C   UNL     1       1.353   4.729  19.855  0.00  0.00    +0.000 C 
ATOM      6  N   UNL     1       1.273   3.892  18.651  0.00  0.00    +0.000 NA
ATOM      7  C   UNL     1       1.253   2.473  19.040  0.00  0.00    +0.000 C 
ATOM      8  C   UNL     1       2.440   4.170  17.786  0.00  0.00    +0.000 C 
ATOM      9  C   UNL     1       3.785   3.864  18.506  0.00  0.00    +0.000 C 
ATOM     10  C   UNL     1       3.758   4.721  19.805  0.00  0.00    +0.000 C 
ENDROOT
BRANCH   9  11
ATOM     11  C   UNL     1       4.971   4.164  17.573  0.00  0.00    +0.000 A 
ATOM     12  C   UNL     1       6.207   4.633  18.054  0.00  0.00    +0.000 A 
ATOM     13  C   UNL     1       7.272   4.900  17.188  0.00  0.00    +0.000 A 
ATOM     14  C   UNL     1       7.129   4.701  15.820  0.00  0.00    +0.000 A 
ATOM     15  C   UNL     1       5.920   4.236  15.317  0.00  0.00    +0.000 A 
ATOM     16  C   UNL     1       4.854   3.971  16.183  0.00  0.00    +0.000 A 
ENDBRANCH   9  11
BRANCH   1  17
ATOM     17  O   UNL     1       4.934   1.985  19.634  0.00  0.00    +0.000 OA
ATOM     18  H   UNL     1       5.604   1.737  18.974  0.00  0.00    +0.000 HD
ENDBRANCH   1  17
TORSDOF 2
ENDMDL
MODEL 8
REMARK VINA RESULT:      -7.2      2.259      5.041
REMARK  Name = 
REMARK  2 active torsions:
REMARK  status: ('A' for Active; 'I' for Inactive)
REMARK    1  A    between atoms: O_1  and  C_2
REMARK    2  A    between atoms: C_10  and  C_11
REMARK                            x       y       z     vdW  Elec       q    Type
REMARK                         _______ _______ _______ _____ _____    ______ ____
ROOT
ATOM      1  C   UNL     1       3.404   5.077  20.115  0.00  0.00    +0.000 C 
ATOM      2  C   UNL     1       2.214   4.154  20.436  0.00  0.00    +0.000 C 
ATOM      3  C   UNL     1       1.276   4.070  19.226  0.00  0.00    +0.000 C 
ATOM      4  N   UNL     1       1.990   3.511  18.067  0.00  0.00    +0.000 NA
ATOM      5  C   UNL     1       2.507   2.178  18.389  0.00  0.00    +0.000 C 
ATOM      6  N   UNL     1       3.436   2.215  19.525  0.00  0.00    +0.000 NA
ATOM      7  C   UNL     1       2.742   2.743  20.711  0.00  0.00    +0.000 C 
ATOM      8  C   UNL     1       4.590   3.075  19.183  0.00  0.00    +0.000 C 
ATOM      9  C   UNL     1       4.153   4.534  18.859  0.00  0.00    +0.000 C 
ATOM     10  C   UNL     1       3.113   4.404  17.708  0.00  0.00    +0.000 C 
ENDROOT
BRANCH   9  11
ATOM     11  C   UNL     1       5.381   5.394  18.511  0.00  0.00    +0.000 A 
ATOM     12  C   UNL     1       6.591   5.302  19.223  0.00  0.00    +0.000 A 
ATOM     13  C   UNL     1       7.695   6.092  18.890  0.00  0.00    +0.000 A 
ATOM     14  C   UNL     1       7.618   6.992  17.834  0.00  0.00    +0.000 A 
ATOM     15  C   UNL     1       6.437   7.103  17.111  0.00  0.00    +0.000 A 
ATOM     16  C   UNL     1       5.331   6.313  17.445  0.00  0.00    +0.000 A 
ENDBRANCH   9  11
BRANCH   1  17
ATOM     17  O   UNL     1       2.929   6.411  19.908  0.00  0.00    +0.000 OA
ATOM     18  H   UNL     1       2.191   6.368  19.276  0.00  0.00    +0.000 HD
ENDBRANCH   1  17
TORSDOF 2
ENDMDL
MODEL 9
REMARK VINA RESULT:      -7.2      1.346      2.244
REMARK  Name = 
REMARK  2 active torsions:
REMARK  status: ('A' for Active; 'I' for Inactive)
REMARK    1  A    between atoms: O_1  and  C_2
REMARK    2  A    between atoms: C_10  and  C_11
REMARK                            x       y       z     vdW  Elec       q    Type
REMARK                         _______ _______ _______ _____ _____    ______ ____
ROOT
ATOM      1  C   UNL     1       3.993   6.139  17.159  0.00  0.00    +0.000 C 
ATOM      2  C   UNL     1       5.240   6.581  16.372  0.00  0.00    +0.000 C 
ATOM      3  C   UNL     1       6.397   6.858  17.339  0.00  0.00    +0.000 C 
ATOM      4  N   UNL     1       6.736   5.640  18.090  0.00  0.00    +0.000 NA
ATOM      5  C   UNL     1       7.109   4.566  17.164  0.00  0.00    +0.000 C 
ATOM      6  N   UNL     1       6.016   4.244  16.238  0.00  0.00    +0.000 NA
ATOM      7  C   UNL     1       5.673   5.438  15.449  0.00  0.00    +0.000 C 
ATOM      8  C   UNL     1       4.841   3.786  17.010  0.00  0.00    +0.000 C 
ATOM      9  C   UNL     1       4.337   4.873  18.003  0.00  0.00    +0.000 C 
ATOM     10  C   UNL     1       5.567   5.218  18.892  0.00  0.00    +0.000 C 
ENDROOT
BRANCH   9  11
ATOM     11  C   UNL     1       3.115   4.358  18.784  0.00  0.00    +0.000 A 
ATOM     12  C   UNL     1       2.912   4.652  20.145  0.00  0.00    +0.000 A 
ATOM     13  C   UNL     1       1.795   4.173  20.835  0.00  0.00    +0.000 A 
ATOM     14  C   UNL     1       0.850   3.392  20.182  0.00  0.00    +0.000 A 
ATOM     15  C   UNL     1       1.022   3.087  18.837  0.00  0.00    +0.000 A 
ATOM     16  C   UNL     1       2.142   3.564  18.146  0.00  0.00    +0.000 A 
ENDBRANCH   9  11
BRANCH   1  17
ATOM     17  O   UNL     1       3.546   7.218  17.987  0.00  0.00    +0.000 OA
ATOM     18  H   UNL     1       2.607   7.376  17.786  0.00  0.00    +0.000 HD
ENDBRANCH   1  17
TORSDOF 2
ENDMDL
