MODEL 1
REMARK VINA RESULT:      -6.7      0.000      0.000
REMARK  Name = 
REMARK  4 active torsions:
REMARK  status: ('A' for Active; 'I' for Inactive)
REMARK    1  A    between atoms: C_2  and  C_3
REMARK    2  A    between atoms: C_3  and  N_4
REMARK    3  A    between atoms: C_5  and  C_7
REMARK    4  A    between atoms: C_11  and  C_12
REMARK                            x       y       z     vdW  Elec       q    Type
REMARK                         _______ _______ _______ _____ _____    ______ ____
ROOT
ATOM      1  C   UNL     1       3.428   4.867  17.505  0.00  0.00    +0.000 A 
ATOM      2  C   UNL     1       3.408   6.247  17.734  0.00  0.00    +0.000 A 
ATOM      3  C   UNL     1       4.417   7.058  17.211  0.00  0.00    +0.000 A 
ATOM      4  C   UNL     1       5.440   6.496  16.443  0.00  0.00    +0.000 A 
ATOM      5  C   UNL     1       5.462   5.119  16.182  0.00  0.00    +0.000 A 
ATOM      6  C   UNL     1       4.447   4.308  16.721  0.00  0.00    +0.000 A 
ENDROOT
BRANCH   1   8
ATOM      7  N   UNL     1       1.887   4.388  19.324  0.00  0.00    +0.000 N 
ATOM      8  C   UNL     1       2.336   4.029  18.075  0.00  0.00    +0.000 C 
ATOM      9  O   UNL     1       1.864   3.094  17.441  0.00  0.00    +0.000 OA
ATOM     10  H   UNL     1       2.149   5.286  19.714  0.00  0.00    +0.000 HD
BRANCH   7  11
ATOM     11  C   UNL     1       0.811   3.647  19.959  0.00  0.00    +0.000 C 
BRANCH  11  13
ATOM     12  N   UNL     1       1.719   2.362  22.251  0.00  0.00    +0.000 NA
ATOM     13  C   UNL     1       1.308   2.945  21.211  0.00  0.00    +0.000 C 
ENDBRANCH  11  13
ENDBRANCH   7  11
ENDBRANCH   1   8
BRANCH   5  14
ATOM     14  C   UNL     1       6.544   4.498  15.333  0.00  0.00    +0.000 C 
ATOM     15  F   UNL     1       6.937   5.277  14.288  0.00  0.00    +0.000 F 
ATOM     16  F   UNL     1       7.671   4.235  16.051  0.00  0.00    +0.000 F 
ATOM     17  F   UNL     1       6.159   3.309  14.794  0.00  0.00    +0.000 F 
ENDBRANCH   5  14
TORSDOF 4
ENDMDL
MODEL 2
REMARK VINA RESULT:      -6.6      4.392      6.260
REMARK  Name = 
REMARK  4 active torsions:
REMARK  status: ('A' for Active; 'I' for Inactive)
REMARK    1  A    between atoms: C_2  and  C_3
REMARK    2  A    between atoms: C_3  and  N_4
REMARK    3  A    between atoms: C_5  and  C_7
REMARK    4  A    between atoms: C_11  and  C_12
REMARK                            x       y       z     vdW  Elec       q    Type
REMARK                         _______ _______ _______ _____ _____    ______ ____
ROOT
ATOM      1  C   UNL     1       3.655   3.886  18.115  0.00  0.00    +0.000 A 
ATOM      2  C   UNL     1       2.498   3.957  17.332  0.00  0.00    +0.000 A 
ATOM      3  C   UNL     1       1.250   3.699  17.901  0.00  0.00    +0.000 A 
ATOM      4  C   UNL     1       1.151   3.386  19.259  0.00  0.00    +0.000 A 
ATOM      5  C   UNL     1       2.296   3.334  20.065  0.00  0.00    +0.000 A 
ATOM      6  C   UNL     1       3.552   3.586  19.480  0.00  0.00    +0.000 A 
ENDROOT
BRANCH   1   8
ATOM      7  N   UNL     1       5.966   4.614  18.319  0.00  0.00    +0.000 N 
ATOM      8  C   UNL     1       4.972   4.169  17.479  0.00  0.00    +0.000 C 
ATOM      9  O   UNL     1       5.144   3.987  16.280  0.00  0.00    +0.000 OA
ATOM     10  H   UNL     1       5.847   4.543  19.321  0.00  0.00    +0.000 HD
BRANCH   7  11
ATOM     11  C   UNL     1       7.292   4.898  17.800  0.00  0.00    +0.000 C 
BRANCH  11  13
ATOM     12  N   UNL     1       7.539   7.592  17.153  0.00  0.00    +0.000 NA
ATOM     13  C   UNL     1       7.428   6.370  17.446  0.00  0.00    +0.000 C 
ENDBRANCH  11  13
ENDBRANCH   7  11
ENDBRANCH   1   8
BRANCH   5  14
ATOM     14  C   UNL     1       2.207   3.023  21.539  0.00  0.00    +0.000 C 
ATOM     15  F   UNL     1       3.114   2.099  21.961  0.00  0.00    +0.000 F 
ATOM     16  F   UNL     1       2.409   4.127  22.309  0.00  0.00    +0.000 F 
ATOM     17  F   UNL     1       0.984   2.540  21.892  0.00  0.00    +0.000 F 
ENDBRANCH   5  14
TORSDOF 4
ENDMDL
MODEL 3
REMARK VINA RESULT:      -6.6      4.560      6.288
REMARK  Name = 
REMARK  4 active torsions:
REMARK  status: ('A' for Active; 'I' for Inactive)
REMARK    1  A    between atoms: C_2  and  C_3
REMARK    2  A    between atoms: C_3  and  N_4
REMARK    3  A    between atoms: C_5  and  C_7
REMARK    4  A    between atoms: C_11  and  C_12
REMARK                            x       y       z     vdW  Elec       q    Type
REMARK                         _______ _______ _______ _____ _____    ______ ____
ROOT
ATOM      1  C   UNL     1       4.383   4.167  18.206  0.00  0.00    +0.000 A 
ATOM      2  C   UNL     1       3.727   3.619  17.099  0.00  0.00    +0.000 A 
ATOM      3  C   UNL     1       2.400   3.198  17.209  0.00  0.00    +0.000 A 
ATOM      4  C   UNL     1       1.719   3.338  18.421  0.00  0.00    +0.000 A 
ATOM      5  C   UNL     1       2.353   3.908  19.534  0.00  0.00    +0.000 A 
ATOM      6  C   UNL     1       3.694   4.320  19.416  0.00  0.00    +0.000 A 
ENDROOT
BRANCH   1   8
ATOM      7  N   UNL     1       6.275   5.452  19.032  0.00  0.00    +0.000 N 
ATOM      8  C   UNL     1       5.799   4.609  18.055  0.00  0.00    +0.000 C 
ATOM      9  O   UNL     1       6.485   4.214  17.123  0.00  0.00    +0.000 OA
ATOM     10  H   UNL     1       5.751   5.576  19.889  0.00  0.00    +0.000 HD
BRANCH   7  11
ATOM     11  C   UNL     1       7.648   5.922  18.988  0.00  0.00    +0.000 C 
BRANCH  11  13
ATOM     12  N   UNL     1       7.863   8.184  17.384  0.00  0.00    +0.000 NA
ATOM     13  C   UNL     1       7.765   7.159  18.112  0.00  0.00    +0.000 C 
ENDBRANCH  11  13
ENDBRANCH   7  11
ENDBRANCH   1   8
BRANCH   5  14
ATOM     14  C   UNL     1       1.626   4.092  20.844  0.00  0.00    +0.000 C 
ATOM     15  F   UNL     1       2.433   4.481  21.869  0.00  0.00    +0.000 F 
ATOM     16  F   UNL     1       0.646   5.033  20.758  0.00  0.00    +0.000 F 
ATOM     17  F   UNL     1       1.012   2.950  21.258  0.00  0.00    +0.000 F 
ENDBRANCH   5  14
TORSDOF 4
ENDMDL
MODEL 4
REMARK VINA RESULT:      -6.5      4.484      6.370
REMARK  Name = 
REMARK  4 active torsions:
REMARK  status: ('A' for Active; 'I' for Inactive)
REMARK    1  A    between atoms: C_2  and  C_3
REMARK    2  A    between atoms: C_3  and  N_4
REMARK    3  A    between atoms: C_5  and  C_7
REMARK    4  A    between atoms: C_11  and  C_12
REMARK                            x       y       z     vdW  Elec       q    Type
REMARK                         _______ _______ _______ _____ _____    ______ ____
ROOT
ATOM      1  C   UNL     1       6.239   4.542  15.903  0.00  0.00    +0.000 A 
ATOM      2  C   UNL     1       7.128   4.759  16.961  0.00  0.00    +0.000 A 
ATOM      3  C   UNL     1       6.663   4.760  18.277  0.00  0.00    +0.000 A 
ATOM      4  C   UNL     1       5.311   4.528  18.542  0.00  0.00    +0.000 A 
ATOM      5  C   UNL     1       4.410   4.285  17.497  0.00  0.00    +0.000 A 
ATOM      6  C   UNL     1       4.886   4.295  16.172  0.00  0.00    +0.000 A 
ENDROOT
BRANCH   1   8
ATOM      7  N   UNL     1       6.199   3.637  13.646  0.00  0.00    +0.000 N 
ATOM      8  C   UNL     1       6.767   4.544  14.509  0.00  0.00    +0.000 C 
ATOM      9  O   UNL     1       7.640   5.332  14.168  0.00  0.00    +0.000 OA
ATOM     10  H   UNL     1       5.342   3.163  13.907  0.00  0.00    +0.000 HD
BRANCH   7  11
ATOM     11  C   UNL     1       6.628   3.574  12.261  0.00  0.00    +0.000 C 
BRANCH  11  13
ATOM     12  N   UNL     1       5.944   1.127  11.129  0.00  0.00    +0.000 NA
ATOM     13  C   UNL     1       6.254   2.237  11.642  0.00  0.00    +0.000 C 
ENDBRANCH  11  13
ENDBRANCH   7  11
ENDBRANCH   1   8
BRANCH   5  14
ATOM     14  C   UNL     1       2.951   4.007  17.765  0.00  0.00    +0.000 C 
ATOM     15  F   UNL     1       2.160   5.112  17.696  0.00  0.00    +0.000 F 
ATOM     16  F   UNL     1       2.429   3.114  16.879  0.00  0.00    +0.000 F 
ATOM     17  F   UNL     1       2.746   3.471  18.999  0.00  0.00    +0.000 F 
ENDBRANCH   5  14
TORSDOF 4
ENDMDL
MODEL 5
REMARK VINA RESULT:      -6.5      0.759      1.311
REMARK  Name = 
REMARK  4 active torsions:
REMARK  status: ('A' for Active; 'I' for Inactive)
REMARK    1  A    between atoms: C_2  and  C_3
REMARK    2  A    between atoms: C_3  and  N_4
REMARK    3  A    between atoms: C_5  and  C_7
REMARK    4  A    between atoms: C_11  and  C_12
REMARK                            x       y       z     vdW  Elec       q    Type
REMARK                         _______ _______ _______ _____ _____    ______ ____
ROOT
ATOM      1  C   UNL     1       3.595   4.476  17.511  0.00  0.00    +0.000 A 
ATOM      2  C   UNL     1       3.594   5.828  17.869  0.00  0.00    +0.000 A 
ATOM      3  C   UNL     1       4.390   6.738  17.172  0.00  0.00    +0.000 A 
ATOM      4  C   UNL     1       5.178   6.304  16.104  0.00  0.00    +0.000 A 
ATOM      5  C   UNL     1       5.174   4.958  15.714  0.00  0.00    +0.000 A 
ATOM      6  C   UNL     1       4.375   4.045  16.429  0.00  0.00    +0.000 A 
ENDROOT
BRANCH   1   8
ATOM      7  N   UNL     1       1.708   4.095  18.997  0.00  0.00    +0.000 N 
ATOM      8  C   UNL     1       2.732   3.530  18.273  0.00  0.00    +0.000 C 
ATOM      9  O   UNL     1       2.927   2.322  18.225  0.00  0.00    +0.000 OA
ATOM     10  H   UNL     1       1.452   5.061  18.836  0.00  0.00    +0.000 HD
BRANCH   7  11
ATOM     11  C   UNL     1       0.798   3.257  19.757  0.00  0.00    +0.000 C 
BRANCH  11  13
ATOM     12  N   UNL     1       1.857   2.674  22.262  0.00  0.00    +0.000 NA
ATOM     13  C   UNL     1       1.377   2.938  21.126  0.00  0.00    +0.000 C 
ENDBRANCH  11  13
ENDBRANCH   7  11
ENDBRANCH   1   8
BRANCH   5  14
ATOM     14  C   UNL     1       5.998   4.475  14.546  0.00  0.00    +0.000 C 
ATOM     15  F   UNL     1       6.743   3.368  14.820  0.00  0.00    +0.000 F 
ATOM     16  F   UNL     1       5.225   4.151  13.472  0.00  0.00    +0.000 F 
ATOM     17  F   UNL     1       6.873   5.419  14.105  0.00  0.00    +0.000 F 
ENDBRANCH   5  14
TORSDOF 4
ENDMDL
MODEL 6
REMARK VINA RESULT:      -6.4      4.437      6.317
REMARK  Name = 
REMARK  4 active torsions:
REMARK  status: ('A' for Active; 'I' for Inactive)
REMARK    1  A    between atoms: C_2  and  C_3
REMARK    2  A    between atoms: C_3  and  N_4
REMARK    3  A    between atoms: C_5  and  C_7
REMARK    4  A    between atoms: C_11  and  C_12
REMARK                            x       y       z     vdW  Elec       q    Type
REMARK                         _______ _______ _______ _____ _____    ______ ____
ROOT
ATOM      1  C   UNL     1       4.051   3.483  18.041  0.00  0.00    +0.000 A 
ATOM      2  C   UNL     1       3.434   2.443  17.338  0.00  0.00    +0.000 A 
ATOM      3  C   UNL     1       2.256   1.872  17.823  0.00  0.00    +0.000 A 
ATOM      4  C   UNL     1       1.682   2.347  19.004  0.00  0.00    +0.000 A 
ATOM      5  C   UNL     1       2.274   3.404  19.710  0.00  0.00    +0.000 A 
ATOM      6  C   UNL     1       3.466   3.968  19.218  0.00  0.00    +0.000 A 
ENDROOT
BRANCH   1   8
ATOM      7  N   UNL     1       6.295   4.343  18.411  0.00  0.00    +0.000 N 
ATOM      8  C   UNL     1       5.306   4.073  17.495  0.00  0.00    +0.000 C 
ATOM      9  O   UNL     1       5.436   4.276  16.295  0.00  0.00    +0.000 OA
ATOM     10  H   UNL     1       6.231   3.963  19.348  0.00  0.00    +0.000 HD
BRANCH   7  11
ATOM     11  C   UNL     1       7.564   4.900  17.978  0.00  0.00    +0.000 C 
BRANCH  11  13
ATOM     12  N   UNL     1       7.274   7.573  17.264  0.00  0.00    +0.000 NA
ATOM     13  C   UNL     1       7.405   6.361  17.588  0.00  0.00    +0.000 C 
ENDBRANCH  11  13
ENDBRANCH   7  11
ENDBRANCH   1   8
BRANCH   5  14
ATOM     14  C   UNL     1       1.655   3.949  20.974  0.00  0.00    +0.000 C 
ATOM     15  F   UNL     1       1.077   2.997  21.757  0.00  0.00    +0.000 F 
ATOM     16  F   UNL     1       2.569   4.580  21.762  0.00  0.00    +0.000 F 
ATOM     17  F   UNL     1       0.684   4.869  20.719  0.00  0.00    +0.000 F 
ENDBRANCH   5  14
TORSDOF 4
ENDMDL
MODEL 7
REMARK VINA RESULT:      -6.4      4.394      6.176
REMARK  Name = 
REMARK  4 active torsions:
REMARK  status: ('A' for Active; 'I' for Inactive)
REMARK    1  A    between atoms: C_2  and  C_3
REMARK    2  A    between atoms: C_3  and  N_4
REMARK    3  A    between atoms: C_5  and  C_7
REMARK    4  A    between atoms: C_11  and  C_12
REMARK                            x       y       z     vdW  Elec       q    Type
REMARK                         _______ _______ _______ _____ _____    ______ ____
ROOT
ATOM      1  C   UNL     1       6.365   4.671  16.291  0.00  0.00    +0.000 A 
ATOM      2  C   UNL     1       7.305   5.090  17.237  0.00  0.00    +0.000 A 
ATOM      3  C   UNL     1       6.953   5.175  18.585  0.00  0.00    +0.000 A 
ATOM      4  C   UNL     1       5.663   4.829  18.995  0.00  0.00    +0.000 A 
ATOM      5  C   UNL     1       4.714   4.384  18.064  0.00  0.00    +0.000 A 
ATOM      6  C   UNL     1       5.076   4.310  16.706  0.00  0.00    +0.000 A 
ENDROOT
BRANCH   1   8
ATOM      7  N   UNL     1       6.093   3.674  14.090  0.00  0.00    +0.000 N 
ATOM      8  C   UNL     1       6.773   4.588  14.860  0.00  0.00    +0.000 C 
ATOM      9  O   UNL     1       7.649   5.316  14.412  0.00  0.00    +0.000 OA
ATOM     10  H   UNL     1       5.241   3.255  14.442  0.00  0.00    +0.000 HD
BRANCH   7  11
ATOM     11  C   UNL     1       6.401   3.530  12.678  0.00  0.00    +0.000 C 
BRANCH  11  13
ATOM     12  N   UNL     1       4.091   3.032  11.212  0.00  0.00    +0.000 NA
ATOM     13  C   UNL     1       5.139   3.258  11.877  0.00  0.00    +0.000 C 
ENDBRANCH  11  13
ENDBRANCH   7  11
ENDBRANCH   1   8
BRANCH   5  14
ATOM     14  C   UNL     1       3.324   3.980  18.491  0.00  0.00    +0.000 C 
ATOM     15  F   UNL     1       3.183   2.643  18.707  0.00  0.00    +0.000 F 
ATOM     16  F   UNL     1       2.945   4.590  19.648  0.00  0.00    +0.000 F 
ATOM     17  F   UNL     1       2.382   4.315  17.567  0.00  0.00    +0.000 F 
ENDBRANCH   5  14
TORSDOF 4
ENDMDL
MODEL 8
REMARK VINA RESULT:      -6.4      4.290      6.150
REMARK  Name = 
REMARK  4 active torsions:
REMARK  status: ('A' for Active; 'I' for Inactive)
REMARK    1  A    between atoms: C_2  and  C_3
REMARK    2  A    between atoms: C_3  and  N_4
REMARK    3  A    between atoms: C_5  and  C_7
REMARK    4  A    between atoms: C_11  and  C_12
REMARK                            x       y       z     vdW  Elec       q    Type
REMARK                         _______ _______ _______ _____ _____    ______ ____
ROOT
ATOM      1  C   UNL     1       5.610   4.817  16.833  0.00  0.00    +0.000 A 
ATOM      2  C   UNL     1       6.248   5.197  18.018  0.00  0.00    +0.000 A 
ATOM      3  C   UNL     1       5.544   5.197  19.224  0.00  0.00    +0.000 A 
ATOM      4  C   UNL     1       4.204   4.802  19.252  0.00  0.00    +0.000 A 
ATOM      5  C   UNL     1       3.555   4.395  18.078  0.00  0.00    +0.000 A 
ATOM      6  C   UNL     1       4.270   4.407  16.866  0.00  0.00    +0.000 A 
ENDROOT
BRANCH   1   8
ATOM      7  N   UNL     1       5.908   4.026  14.553  0.00  0.00    +0.000 N 
ATOM      8  C   UNL     1       6.390   4.826  15.563  0.00  0.00    +0.000 C 
ATOM      9  O   UNL     1       7.384   5.529  15.439  0.00  0.00    +0.000 OA
ATOM     10  H   UNL     1       4.975   3.637  14.620  0.00  0.00    +0.000 HD
BRANCH   7  11
ATOM     11  C   UNL     1       6.584   3.980  13.268  0.00  0.00    +0.000 C 
BRANCH  11  13
ATOM     12  N   UNL     1       5.081   2.548  11.417  0.00  0.00    +0.000 NA
ATOM     13  C   UNL     1       5.763   3.198  12.256  0.00  0.00    +0.000 C 
ENDBRANCH  11  13
ENDBRANCH   7  11
ENDBRANCH   1   8
BRANCH   5  14
ATOM     14  C   UNL     1       2.117   3.939  18.094  0.00  0.00    +0.000 C 
ATOM     15  F   UNL     1       1.561   3.916  19.336  0.00  0.00    +0.000 F 
ATOM     16  F   UNL     1       1.317   4.742  17.339  0.00  0.00    +0.000 F 
ATOM     17  F   UNL     1       1.967   2.683  17.590  0.00  0.00    +0.000 F 
ENDBRANCH   5  14
TORSDOF 4
ENDMDL
MODEL 9
REMARK VINA RESULT:      -6.4      4.296      6.105
REMARK  Name = 
REMARK  4 active torsions:
REMARK  status: ('A' for Active; 'I' for Inactive)
REMARK    1  A    between atoms: C_2  and  C_3
REMARK    2  A    between atoms: C_3  and  N_4
REMARK    3  A    between atoms: C_5  and  C_7
REMARK    4  A    between atoms: C_11  and  C_12
REMARK                            x       y       z     vdW  Elec       q    Type
REMARK                         _______ _______ _______ _____ _____    ______ ____
ROOT
ATOM      1  C   UNL     1       5.505   4.583  17.073  0.00  0.00    +0.000 A 
ATOM      2  C   UNL     1       5.965   5.228  18.225  0.00  0.00    +0.000 A 
ATOM      3  C   UNL     1       5.115   5.398  19.320  0.00  0.00    +0.000 A 
ATOM      4  C   UNL     1       3.808   4.909  19.274  0.00  0.00    +0.000 A 
ATOM      5  C   UNL     1       3.336   4.238  18.137  0.00  0.00    +0.000 A 
ATOM      6  C   UNL     1       4.197   4.079  17.034  0.00  0.00    +0.000 A 
ENDROOT
BRANCH   1   8
ATOM      7  N   UNL     1       5.854   4.338  14.679  0.00  0.00    +0.000 N 
ATOM      8  C   UNL     1       6.437   4.415  15.922  0.00  0.00    +0.000 C 
ATOM      9  O   UNL     1       7.648   4.374  16.094  0.00  0.00    +0.000 OA
ATOM     10  H   UNL     1       4.881   4.593  14.563  0.00  0.00    +0.000 HD
BRANCH   7  11
ATOM     11  C   UNL     1       6.677   4.195  13.491  0.00  0.00    +0.000 C 
BRANCH  11  13
ATOM     12  N   UNL     1       5.427   2.563  11.618  0.00  0.00    +0.000 NA
ATOM     13  C   UNL     1       5.994   3.303  12.468  0.00  0.00    +0.000 C 
ENDBRANCH  11  13
ENDBRANCH   7  11
ENDBRANCH   1   8
BRANCH   5  14
ATOM     14  C   UNL     1       1.935   3.679  18.078  0.00  0.00    +0.000 C 
ATOM     15  F   UNL     1       1.079   4.424  17.327  0.00  0.00    +0.000 F 
ATOM     16  F   UNL     1       1.906   2.425  17.549  0.00  0.00    +0.000 F 
ATOM     17  F   UNL     1       1.368   3.578  19.311  0.00  0.00    +0.000 F 
ENDBRANCH   5  14
TORSDOF 4
ENDMDL
