MODEL 1
REMARK VINA RESULT:      -8.2      0.000      0.000
REMARK  Name = 
REMARK  4 active torsions:
REMARK  status: ('A' for Active; 'I' for Inactive)
REMARK    1  A    between atoms: C_1  and  C_2
REMARK    2  A    between atoms: C_6  and  C_7
REMARK    3  A    between atoms: C_7  and  N_8
REMARK    4  A    between atoms: C_13  and  C_14
REMARK                            x       y       z     vdW  Elec       q    Type
REMARK                         _______ _______ _______ _____ _____    ______ ____
ROOT
ATOM      1  C   UNL     1       6.685   4.029  12.423  0.00  0.00    +0.000 C 
ATOM      2  C   UNL     1       6.431   4.231  13.890  0.00  0.00    +0.000 A 
ATOM      3  C   UNL     1       5.569   3.401  14.610  0.00  0.00    +0.000 A 
ATOM      4  C   UNL     1       5.392   3.548  16.002  0.00  0.00    +0.000 A 
ATOM      5  C   UNL     1       6.076   4.538  16.704  0.00  0.00    +0.000 A 
ATOM      6  C   UNL     1       5.990   4.735  18.162  0.00  0.00    +0.000 A 
ATOM      7  C   UNL     1       6.706   5.741  18.691  0.00  0.00    +0.000 A 
ATOM      8  C   UNL     1       7.569   6.635  17.912  0.00  0.00    +0.000 A 
ATOM      9  O   UNL     1       8.192   7.535  18.472  0.00  0.00    +0.000 OA
ATOM     10  O   UNL     1       7.636   6.427  16.554  0.00  0.00    +0.000 OA
ATOM     11  C   UNL     1       6.908   5.382  15.954  0.00  0.00    +0.000 A 
ATOM     12  C   UNL     1       7.091   5.250  14.573  0.00  0.00    +0.000 A 
ENDROOT
BRANCH   6  13
ATOM     13  C   UNL     1       5.075   3.920  19.060  0.00  0.00    +0.000 C 
BRANCH  13  14
ATOM     14  N   UNL     1       3.852   4.590  19.535  0.00  0.00    +0.000 NA
ATOM     15  C   UNL     1       3.108   5.292  18.480  0.00  0.00    +0.000 C 
ATOM     16  C   UNL     1       2.187   4.459  17.583  0.00  0.00    +0.000 C 
ATOM     17  C   UNL     1       1.483   3.280  18.242  0.00  0.00    +0.000 C 
ATOM     18  C   UNL     1       2.240   2.655  19.405  0.00  0.00    +0.000 C 
ATOM     19  C   UNL     1       2.993   3.655  20.294  0.00  0.00    +0.000 C 
ATOM     20  C   UNL     1       2.040   4.391  21.247  0.00  0.00    +0.000 C 
ENDBRANCH  13  14
ENDBRANCH   6  13
TORSDOF 2
ENDMDL
MODEL 2
REMARK VINA RESULT:      -8.2      1.272      2.062
REMARK  Name = 
REMARK  4 active torsions:
REMARK  status: ('A' for Active; 'I' for Inactive)
REMARK    1  A    between atoms: C_1  and  C_2
REMARK    2  A    between atoms: C_6  and  C_7
REMARK    3  A    between atoms: C_7  and  N_8
REMARK    4  A    between atoms: C_13  and  C_14
REMARK                            x       y       z     vdW  Elec       q    Type
REMARK                         _______ _______ _______ _____ _____    ______ ____
ROOT
ATOM      1  C   UNL     1       6.748   4.101  12.950  0.00  0.00    +0.000 C 
ATOM      2  C   UNL     1       6.271   4.363  14.351  0.00  0.00    +0.000 A 
ATOM      3  C   UNL     1       4.922   4.265  14.700  0.00  0.00    +0.000 A 
ATOM      4  C   UNL     1       4.489   4.439  16.031  0.00  0.00    +0.000 A 
ATOM      5  C   UNL     1       5.403   4.718  17.045  0.00  0.00    +0.000 A 
ATOM      6  C   UNL     1       5.048   4.868  18.467  0.00  0.00    +0.000 A 
ATOM      7  C   UNL     1       6.045   5.146  19.324  0.00  0.00    +0.000 A 
ATOM      8  C   UNL     1       7.450   5.294  18.932  0.00  0.00    +0.000 A 
ATOM      9  O   UNL     1       8.304   5.551  19.779  0.00  0.00    +0.000 OA
ATOM     10  O   UNL     1       7.755   5.144  17.600  0.00  0.00    +0.000 OA
ATOM     11  C   UNL     1       6.747   4.847  16.664  0.00  0.00    +0.000 A 
ATOM     12  C   UNL     1       7.191   4.682  15.347  0.00  0.00    +0.000 A 
ENDROOT
BRANCH   6  13
ATOM     13  C   UNL     1       3.620   4.808  18.980  0.00  0.00    +0.000 C 
BRANCH  13  14
ATOM     14  N   UNL     1       2.963   3.489  18.945  0.00  0.00    +0.000 NA
ATOM     15  C   UNL     1       3.530   2.515  19.888  0.00  0.00    +0.000 C 
ATOM     16  C   UNL     1       3.079   2.594  21.350  0.00  0.00    +0.000 C 
ATOM     17  C   UNL     1       1.635   3.015  21.592  0.00  0.00    +0.000 C 
ATOM     18  C   UNL     1       1.053   3.934  20.529  0.00  0.00    +0.000 C 
ATOM     19  C   UNL     1       1.497   3.619  19.094  0.00  0.00    +0.000 C 
ATOM     20  C   UNL     1       0.750   2.405  18.524  0.00  0.00    +0.000 C 
ENDBRANCH  13  14
ENDBRANCH   6  13
TORSDOF 2
ENDMDL
MODEL 3
REMARK VINA RESULT:      -8.0      0.590      1.670
REMARK  Name = 
REMARK  4 active torsions:
REMARK  status: ('A' for Active; 'I' for Inactive)
REMARK    1  A    between atoms: C_1  and  C_2
REMARK    2  A    between atoms: C_6  and  C_7
REMARK    3  A    between atoms: C_7  and  N_8
REMARK    4  A    between atoms: C_13  and  C_14
REMARK                            x       y       z     vdW  Elec       q    Type
REMARK                         _______ _______ _______ _____ _____    ______ ____
ROOT
ATOM      1  C   UNL     1       6.553   3.908  12.538  0.00  0.00    +0.000 C 
ATOM      2  C   UNL     1       6.353   4.166  14.004  0.00  0.00    +0.000 A 
ATOM      3  C   UNL     1       5.545   3.343  14.793  0.00  0.00    +0.000 A 
ATOM      4  C   UNL     1       5.419   3.545  16.183  0.00  0.00    +0.000 A 
ATOM      5  C   UNL     1       6.102   4.581  16.816  0.00  0.00    +0.000 A 
ATOM      6  C   UNL     1       6.069   4.838  18.266  0.00  0.00    +0.000 A 
ATOM      7  C   UNL     1       6.777   5.884  18.723  0.00  0.00    +0.000 A 
ATOM      8  C   UNL     1       7.581   6.768  17.873  0.00  0.00    +0.000 A 
ATOM      9  O   UNL     1       8.199   7.707  18.370  0.00  0.00    +0.000 OA
ATOM     10  O   UNL     1       7.600   6.504  16.524  0.00  0.00    +0.000 OA
ATOM     11  C   UNL     1       6.879   5.415  15.998  0.00  0.00    +0.000 A 
ATOM     12  C   UNL     1       7.009   5.230  14.616  0.00  0.00    +0.000 A 
ENDROOT
BRANCH   6  13
ATOM     13  C   UNL     1       5.215   4.036  19.234  0.00  0.00    +0.000 C 
BRANCH  13  14
ATOM     14  N   UNL     1       3.866   3.667  18.770  0.00  0.00    +0.000 NA
ATOM     15  C   UNL     1       3.284   2.518  19.480  0.00  0.00    +0.000 C 
ATOM     16  C   UNL     1       2.640   2.778  20.845  0.00  0.00    +0.000 C 
ATOM     17  C   UNL     1       1.929   4.114  21.016  0.00  0.00    +0.000 C 
ATOM     18  C   UNL     1       2.495   5.249  20.175  0.00  0.00    +0.000 C 
ATOM     19  C   UNL     1       2.962   4.837  18.772  0.00  0.00    +0.000 C 
ATOM     20  C   UNL     1       1.777   4.653  17.814  0.00  0.00    +0.000 C 
ENDBRANCH  13  14
ENDBRANCH   6  13
TORSDOF 2
ENDMDL
MODEL 4
REMARK VINA RESULT:      -8.0      1.054      1.433
REMARK  Name = 
REMARK  4 active torsions:
REMARK  status: ('A' for Active; 'I' for Inactive)
REMARK    1  A    between atoms: C_1  and  C_2
REMARK    2  A    between atoms: C_6  and  C_7
REMARK    3  A    between atoms: C_7  and  N_8
REMARK    4  A    between atoms: C_13  and  C_14
REMARK                            x       y       z     vdW  Elec       q    Type
REMARK                         _______ _______ _______ _____ _____    ______ ____
ROOT
ATOM      1  C   UNL     1       7.083   3.791  12.155  0.00  0.00    +0.000 C 
ATOM      2  C   UNL     1       6.514   4.273  13.459  0.00  0.00    +0.000 A 
ATOM      3  C   UNL     1       5.226   3.924  13.875  0.00  0.00    +0.000 A 
ATOM      4  C   UNL     1       4.724   4.318  15.133  0.00  0.00    +0.000 A 
ATOM      5  C   UNL     1       5.504   5.076  16.004  0.00  0.00    +0.000 A 
ATOM      6  C   UNL     1       5.081   5.491  17.353  0.00  0.00    +0.000 A 
ATOM      7  C   UNL     1       5.946   6.228  18.070  0.00  0.00    +0.000 A 
ATOM      8  C   UNL     1       7.276   6.627  17.598  0.00  0.00    +0.000 A 
ATOM      9  O   UNL     1       8.008   7.305  18.316  0.00  0.00    +0.000 OA
ATOM     10  O   UNL     1       7.648   6.223  16.337  0.00  0.00    +0.000 OA
ATOM     11  C   UNL     1       6.779   5.444  15.550  0.00  0.00    +0.000 A 
ATOM     12  C   UNL     1       7.289   5.065  14.303  0.00  0.00    +0.000 A 
ENDROOT
BRANCH   6  13
ATOM     13  C   UNL     1       3.702   5.199  17.920  0.00  0.00    +0.000 C 
BRANCH  13  14
ATOM     14  N   UNL     1       3.651   4.340  19.117  0.00  0.00    +0.000 NA
ATOM     15  C   UNL     1       2.410   4.471  19.893  0.00  0.00    +0.000 C 
ATOM     16  C   UNL     1       1.180   3.699  19.404  0.00  0.00    +0.000 C 
ATOM     17  C   UNL     1       1.442   2.343  18.763  0.00  0.00    +0.000 C 
ATOM     18  C   UNL     1       2.789   2.216  18.067  0.00  0.00    +0.000 C 
ATOM     19  C   UNL     1       3.948   2.932  18.775  0.00  0.00    +0.000 C 
ATOM     20  C   UNL     1       4.446   2.137  19.991  0.00  0.00    +0.000 C 
ENDBRANCH  13  14
ENDBRANCH   6  13
TORSDOF 2
ENDMDL
MODEL 5
REMARK VINA RESULT:      -7.9      1.209      1.571
REMARK  Name = 
REMARK  4 active torsions:
REMARK  status: ('A' for Active; 'I' for Inactive)
REMARK    1  A    between atoms: C_1  and  C_2
REMARK    2  A    between atoms: C_6  and  C_7
REMARK    3  A    between atoms: C_7  and  N_8
REMARK    4  A    between atoms: C_13  and  C_14
REMARK                            x       y       z     vdW  Elec       q    Type
REMARK                         _______ _______ _______ _____ _____    ______ ____
ROOT
ATOM      1  C   UNL     1       7.460   4.878  12.575  0.00  0.00    +0.000 C 
ATOM      2  C   UNL     1       6.837   4.733  13.935  0.00  0.00    +0.000 A 
ATOM      3  C   UNL     1       5.578   4.153  14.110  0.00  0.00    +0.000 A 
ATOM      4  C   UNL     1       5.030   3.952  15.394  0.00  0.00    +0.000 A 
ATOM      5  C   UNL     1       5.733   4.332  16.535  0.00  0.00    +0.000 A 
ATOM      6  C   UNL     1       5.261   4.118  17.914  0.00  0.00    +0.000 A 
ATOM      7  C   UNL     1       6.053   4.550  18.910  0.00  0.00    +0.000 A 
ATOM      8  C   UNL     1       7.351   5.202  18.706  0.00  0.00    +0.000 A 
ATOM      9  O   UNL     1       8.015   5.571  19.672  0.00  0.00    +0.000 OA
ATOM     10  O   UNL     1       7.770   5.386  17.409  0.00  0.00    +0.000 OA
ATOM     11  C   UNL     1       6.978   4.945  16.332  0.00  0.00    +0.000 A 
ATOM     12  C   UNL     1       7.533   5.156  15.064  0.00  0.00    +0.000 A 
ENDROOT
BRANCH   6  13
ATOM     13  C   UNL     1       3.905   3.520  18.246  0.00  0.00    +0.000 C 
BRANCH  13  14
ATOM     14  N   UNL     1       2.806   4.473  18.484  0.00  0.00    +0.000 NA
ATOM     15  C   UNL     1       1.480   3.960  18.112  0.00  0.00    +0.000 C 
ATOM     16  C   UNL     1       0.769   3.039  19.109  0.00  0.00    +0.000 C 
ATOM     17  C   UNL     1       0.995   3.336  20.586  0.00  0.00    +0.000 C 
ATOM     18  C   UNL     1       2.338   3.973  20.910  0.00  0.00    +0.000 C 
ATOM     19  C   UNL     1       2.836   4.987  19.870  0.00  0.00    +0.000 C 
ATOM     20  C   UNL     1       2.110   6.334  20.002  0.00  0.00    +0.000 C 
ENDBRANCH  13  14
ENDBRANCH   6  13
TORSDOF 2
ENDMDL
MODEL 6
REMARK VINA RESULT:      -7.7      1.276      1.619
REMARK  Name = 
REMARK  4 active torsions:
REMARK  status: ('A' for Active; 'I' for Inactive)
REMARK    1  A    between atoms: C_1  and  C_2
REMARK    2  A    between atoms: C_6  and  C_7
REMARK    3  A    between atoms: C_7  and  N_8
REMARK    4  A    between atoms: C_13  and  C_14
REMARK                            x       y       z     vdW  Elec       q    Type
REMARK                         _______ _______ _______ _____ _____    ______ ____
ROOT
ATOM      1  C   UNL     1       6.448   3.729  13.042  0.00  0.00    +0.000 C 
ATOM      2  C   UNL     1       6.086   4.155  14.437  0.00  0.00    +0.000 A 
ATOM      3  C   UNL     1       4.757   4.271  14.851  0.00  0.00    +0.000 A 
ATOM      4  C   UNL     1       4.423   4.599  16.181  0.00  0.00    +0.000 A 
ATOM      5  C   UNL     1       5.419   4.820  17.130  0.00  0.00    +0.000 A 
ATOM      6  C   UNL     1       5.165   5.120  18.550  0.00  0.00    +0.000 A 
ATOM      7  C   UNL     1       6.235   5.316  19.339  0.00  0.00    +0.000 A 
ATOM      8  C   UNL     1       7.624   5.238  18.877  0.00  0.00    +0.000 A 
ATOM      9  O   UNL     1       8.548   5.434  19.663  0.00  0.00    +0.000 OA
ATOM     10  O   UNL     1       7.834   4.952  17.548  0.00  0.00    +0.000 OA
ATOM     11  C   UNL     1       6.746   4.733  16.683  0.00  0.00    +0.000 A 
ATOM     12  C   UNL     1       7.092   4.413  15.365  0.00  0.00    +0.000 A 
ENDROOT
BRANCH   6  13
ATOM     13  C   UNL     1       3.771   5.297  19.127  0.00  0.00    +0.000 C 
BRANCH  13  14
ATOM     14  N   UNL     1       3.402   4.407  20.242  0.00  0.00    +0.000 NA
ATOM     15  C   UNL     1       2.109   4.729  20.861  0.00  0.00    +0.000 C 
ATOM     16  C   UNL     1       0.841   4.224  20.165  0.00  0.00    +0.000 C 
ATOM     17  C   UNL     1       0.944   2.874  19.467  0.00  0.00    +0.000 C 
ATOM     18  C   UNL     1       2.330   2.532  18.942  0.00  0.00    +0.000 C 
ATOM     19  C   UNL     1       3.488   2.986  19.841  0.00  0.00    +0.000 C 
ATOM     20  C   UNL     1       3.663   2.055  21.050  0.00  0.00    +0.000 C 
ENDBRANCH  13  14
ENDBRANCH   6  13
TORSDOF 2
ENDMDL
MODEL 7
REMARK VINA RESULT:      -7.7      1.023      1.422
REMARK  Name = 
REMARK  4 active torsions:
REMARK  status: ('A' for Active; 'I' for Inactive)
REMARK    1  A    between atoms: C_1  and  C_2
REMARK    2  A    between atoms: C_6  and  C_7
REMARK    3  A    between atoms: C_7  and  N_8
REMARK    4  A    between atoms: C_13  and  C_14
REMARK                            x       y       z     vdW  Elec       q    Type
REMARK                         _______ _______ _______ _____ _____    ______ ____
ROOT
ATOM      1  C   UNL     1       7.344   4.271  11.883  0.00  0.00    +0.000 C 
ATOM      2  C   UNL     1       6.783   4.474  13.263  0.00  0.00    +0.000 A 
ATOM      3  C   UNL     1       5.641   3.799  13.700  0.00  0.00    +0.000 A 
ATOM      4  C   UNL     1       5.162   3.937  15.020  0.00  0.00    +0.000 A 
ATOM      5  C   UNL     1       5.819   4.759  15.932  0.00  0.00    +0.000 A 
ATOM      6  C   UNL     1       5.420   4.926  17.341  0.00  0.00    +0.000 A 
ATOM      7  C   UNL     1       6.152   5.764  18.094  0.00  0.00    +0.000 A 
ATOM      8  C   UNL     1       7.321   6.503  17.604  0.00  0.00    +0.000 A 
ATOM      9  O   UNL     1       7.937   7.253  18.357  0.00  0.00    +0.000 OA
ATOM     10  O   UNL     1       7.675   6.325  16.287  0.00  0.00    +0.000 OA
ATOM     11  C   UNL     1       6.942   5.454  15.459  0.00  0.00    +0.000 A 
ATOM     12  C   UNL     1       7.426   5.331  14.152  0.00  0.00    +0.000 A 
ENDROOT
BRANCH   6  13
ATOM     13  C   UNL     1       4.187   4.270  17.940  0.00  0.00    +0.000 C 
BRANCH  13  14
ATOM     14  N   UNL     1       3.039   5.153  18.212  0.00  0.00    +0.000 NA
ATOM     15  C   UNL     1       1.742   4.582  17.821  0.00  0.00    +0.000 C 
ATOM     16  C   UNL     1       1.083   3.588  18.782  0.00  0.00    +0.000 C 
ATOM     17  C   UNL     1       1.294   3.841  20.269  0.00  0.00    +0.000 C 
ATOM     18  C   UNL     1       2.602   4.537  20.617  0.00  0.00    +0.000 C 
ATOM     19  C   UNL     1       3.042   5.615  19.617  0.00  0.00    +0.000 C 
ATOM     20  C   UNL     1       2.245   6.914  19.799  0.00  0.00    +0.000 C 
ENDBRANCH  13  14
ENDBRANCH   6  13
TORSDOF 2
ENDMDL
MODEL 8
REMARK VINA RESULT:      -7.7      2.771      5.145
REMARK  Name = 
REMARK  4 active torsions:
REMARK  status: ('A' for Active; 'I' for Inactive)
REMARK    1  A    between atoms: C_1  and  C_2
REMARK    2  A    between atoms: C_6  and  C_7
REMARK    3  A    between atoms: C_7  and  N_8
REMARK    4  A    between atoms: C_13  and  C_14
REMARK                            x       y       z     vdW  Elec       q    Type
REMARK                         _______ _______ _______ _____ _____    ______ ____
ROOT
ATOM      1  C   UNL     1       0.331  10.427  18.951  0.00  0.00    +0.000 C 
ATOM      2  C   UNL     1       1.297   9.277  18.935  0.00  0.00    +0.000 A 
ATOM      3  C   UNL     1       1.371   8.362  19.988  0.00  0.00    +0.000 A 
ATOM      4  C   UNL     1       2.227   7.243  19.935  0.00  0.00    +0.000 A 
ATOM      5  C   UNL     1       3.034   7.016  18.822  0.00  0.00    +0.000 A 
ATOM      6  C   UNL     1       3.921   5.851  18.660  0.00  0.00    +0.000 A 
ATOM      7  C   UNL     1       4.643   5.780  17.529  0.00  0.00    +0.000 A 
ATOM      8  C   UNL     1       4.589   6.776  16.454  0.00  0.00    +0.000 A 
ATOM      9  O   UNL     1       5.285   6.639  15.450  0.00  0.00    +0.000 OA
ATOM     10  O   UNL     1       3.750   7.851  16.628  0.00  0.00    +0.000 OA
ATOM     11  C   UNL     1       2.969   7.968  17.793  0.00  0.00    +0.000 A 
ATOM     12  C   UNL     1       2.128   9.086  17.833  0.00  0.00    +0.000 A 
ENDROOT
BRANCH   6  13
ATOM     13  C   UNL     1       4.113   4.795  19.734  0.00  0.00    +0.000 C 
BRANCH  13  14
ATOM     14  N   UNL     1       3.625   3.440  19.420  0.00  0.00    +0.000 NA
ATOM     15  C   UNL     1       3.678   2.509  20.556  0.00  0.00    +0.000 C 
ATOM     16  C   UNL     1       2.544   2.575  21.584  0.00  0.00    +0.000 C 
ATOM     17  C   UNL     1       1.160   2.914  21.046  0.00  0.00    +0.000 C 
ATOM     18  C   UNL     1       1.157   3.789  19.801  0.00  0.00    +0.000 C 
ATOM     19  C   UNL     1       2.283   3.487  18.802  0.00  0.00    +0.000 C 
ATOM     20  C   UNL     1       1.984   2.227  17.977  0.00  0.00    +0.000 C 
ENDBRANCH  13  14
ENDBRANCH   6  13
TORSDOF 2
ENDMDL
MODEL 9
REMARK VINA RESULT:      -7.3      3.207      6.315
REMARK  Name = 
REMARK  4 active torsions:
REMARK  status: ('A' for Active; 'I' for Inactive)
REMARK    1  A    between atoms: C_1  and  C_2
REMARK    2  A    between atoms: C_6  and  C_7
REMARK    3  A    between atoms: C_7  and  N_8
REMARK    4  A    between atoms: C_13  and  C_14
REMARK                            x       y       z     vdW  Elec       q    Type
REMARK                         _______ _______ _______ _____ _____    ______ ____
ROOT
ATOM      1  C   UNL     1       1.009   9.526  20.591  0.00  0.00    +0.000 C 
ATOM      2  C   UNL     1       1.490   8.199  20.075  0.00  0.00    +0.000 A 
ATOM      3  C   UNL     1       1.994   8.052  18.780  0.00  0.00    +0.000 A 
ATOM      4  C   UNL     1       2.513   6.822  18.325  0.00  0.00    +0.000 A 
ATOM      5  C   UNL     1       2.536   5.707  19.161  0.00  0.00    +0.000 A 
ATOM      6  C   UNL     1       3.101   4.398  18.789  0.00  0.00    +0.000 A 
ATOM      7  C   UNL     1       3.040   3.418  19.705  0.00  0.00    +0.000 A 
ATOM      8  C   UNL     1       2.463   3.577  21.044  0.00  0.00    +0.000 A 
ATOM      9  O   UNL     1       2.443   2.628  21.825  0.00  0.00    +0.000 OA
ATOM     10  O   UNL     1       1.947   4.810  21.368  0.00  0.00    +0.000 OA
ATOM     11  C   UNL     1       1.992   5.871  20.444  0.00  0.00    +0.000 A 
ATOM     12  C   UNL     1       1.469   7.083  20.908  0.00  0.00    +0.000 A 
ENDROOT
BRANCH   6  13
ATOM     13  C   UNL     1       3.659   4.095  17.409  0.00  0.00    +0.000 C 
BRANCH  13  14
ATOM     14  N   UNL     1       5.126   4.034  17.291  0.00  0.00    +0.000 NA
ATOM     15  C   UNL     1       5.600   3.441  16.033  0.00  0.00    +0.000 C 
ATOM     16  C   UNL     1       5.634   4.338  14.791  0.00  0.00    +0.000 C 
ATOM     17  C   UNL     1       5.975   5.804  15.023  0.00  0.00    +0.000 C 
ATOM     18  C   UNL     1       5.567   6.345  16.385  0.00  0.00    +0.000 C 
ATOM     19  C   UNL     1       5.737   5.357  17.547  0.00  0.00    +0.000 C 
ATOM     20  C   UNL     1       7.205   5.240  17.979  0.00  0.00    +0.000 C 
ENDBRANCH  13  14
ENDBRANCH   6  13
TORSDOF 2
ENDMDL
