MODEL 1
REMARK VINA RESULT:      -7.9      0.000      0.000
REMARK  Name = 
REMARK  9 active torsions:
REMARK  status: ('A' for Active; 'I' for Inactive)
REMARK    1  A    between atoms: C_1  and  O_2
REMARK    2  A    between atoms: O_2  and  C_3
REMARK    3  A    between atoms: C_6  and  N_7
REMARK    4  A    between atoms: N_10  and  C_11
REMARK    5  A    between atoms: C_11  and  C_12
REMARK    6  A    between atoms: C_12  and  C_13
REMARK    7  A    between atoms: C_13  and  N_14
REMARK    8  A    between atoms: C_15  and  C_17
REMARK    9  A    between atoms: N_24  and  C_25
REMARK                            x       y       z     vdW  Elec       q    Type
REMARK                         _______ _______ _______ _____ _____    ______ ____
ROOT
ATOM      1  C   UNL     1       1.655   2.934  20.386  0.00  0.00    +0.000 C 
ENDROOT
BRANCH   1   5
ATOM      2  N   UNL     1       4.132   4.028  18.026  0.00  0.00    +0.000 N 
ATOM      3  C   UNL     1       2.704   4.308  17.837  0.00  0.00    +0.000 C 
ATOM      4  C   UNL     1       1.877   3.011  17.930  0.00  0.00    +0.000 C 
ATOM      5  N   UNL     1       2.104   2.229  19.171  0.00  0.00    +0.000 NA
ATOM      6  C   UNL     1       3.557   1.937  19.246  0.00  0.00    +0.000 C 
ATOM      7  C   UNL     1       4.487   3.177  19.176  0.00  0.00    +0.000 C 
BRANCH   2  11
ATOM      8  C   UNL     1       7.009   5.059  15.123  0.00  0.00    +0.000 A 
ATOM      9  C   UNL     1       7.150   5.491  16.441  0.00  0.00    +0.000 A 
ATOM     10  C   UNL     1       6.199   5.133  17.404  0.00  0.00    +0.000 A 
ATOM     11  C   UNL     1       5.079   4.363  17.078  0.00  0.00    +0.000 A 
ATOM     12  C   UNL     1       4.953   3.957  15.743  0.00  0.00    +0.000 A 
ATOM     13  C   UNL     1       5.899   4.303  14.776  0.00  0.00    +0.000 A 
BRANCH   8  15
ATOM     14  C   UNL     1       7.731   5.178  12.886  0.00  0.00    +0.000 C 
ATOM     15  O   UNL     1       7.988   5.463  14.254  0.00  0.00    +0.000 OA
ENDBRANCH   8  15
ENDBRANCH   2  11
ENDBRANCH   1   5
BRANCH   1  16
ATOM     16  C   UNL     1       1.227   4.382  20.138  0.00  0.00    +0.000 C 
BRANCH  16  17
ATOM     17  C   UNL     1       2.120   5.376  20.865  0.00  0.00    +0.000 C 
BRANCH  17  18
ATOM     18  N   UNL     1       1.581   6.714  20.764  0.00  0.00    +0.000 N 
ATOM     19  C   UNL     1       2.018   7.628  19.830  0.00  0.00    +0.000 C 
ATOM     20  O   UNL     1       2.936   7.370  19.054  0.00  0.00    +0.000 OA
ATOM     21  H   UNL     1       0.742   6.912  21.287  0.00  0.00    +0.000 HD
BRANCH  19  22
ATOM     22  C   UNL     1       1.290   8.887  19.835  0.00  0.00    +0.000 A 
ATOM     23  C   UNL     1       0.825   9.626  18.750  0.00  0.00    +0.000 A 
ATOM     24  C   UNL     1       0.219  10.795  19.275  0.00  0.00    +0.000 A 
ATOM     25  S   UNL     1      -0.561  12.230  18.701  0.00  0.00    +0.000 S 
ATOM     26  C   UNL     1      -0.761  12.759  20.325  0.00  0.00    +0.000 A 
ATOM     27  C   UNL     1      -0.285  11.877  21.271  0.00  0.00    +0.000 A 
ATOM     28  C   UNL     1       0.293  10.744  20.631  0.00  0.00    +0.000 A 
ATOM     29  N   UNL     1       0.930   9.573  20.984  0.00  0.00    +0.000 N 
ATOM     30  C   UNL     1       1.180   9.180  22.352  0.00  0.00    +0.000 C 
ENDBRANCH  19  22
ENDBRANCH  17  18
ENDBRANCH  16  17
ENDBRANCH   1  16
TORSDOF 7
ENDMDL
MODEL 2
REMARK VINA RESULT:      -7.8      3.829      6.842
REMARK  Name = 
REMARK  9 active torsions:
REMARK  status: ('A' for Active; 'I' for Inactive)
REMARK    1  A    between atoms: C_1  and  O_2
REMARK    2  A    between atoms: O_2  and  C_3
REMARK    3  A    between atoms: C_6  and  N_7
REMARK    4  A    between atoms: N_10  and  C_11
REMARK    5  A    between atoms: C_11  and  C_12
REMARK    6  A    between atoms: C_12  and  C_13
REMARK    7  A    between atoms: C_13  and  N_14
REMARK    8  A    between atoms: C_15  and  C_17
REMARK    9  A    between atoms: N_24  and  C_25
REMARK                            x       y       z     vdW  Elec       q    Type
REMARK                         _______ _______ _______ _____ _____    ______ ____
ROOT
ATOM      1  C   UNL     1       1.314  11.410  19.089  0.00  0.00    +0.000 C 
ENDROOT
BRANCH   1   5
ATOM      2  N   UNL     1       2.086   7.915  19.387  0.00  0.00    +0.000 N 
ATOM      3  C   UNL     1       2.161   8.618  18.101  0.00  0.00    +0.000 C 
ATOM      4  C   UNL     1       0.841   9.357  17.805  0.00  0.00    +0.000 C 
ATOM      5  N   UNL     1       0.397  10.273  18.886  0.00  0.00    +0.000 NA
ATOM      6  C   UNL     1       0.286   9.465  20.127  0.00  0.00    +0.000 C 
ATOM      7  C   UNL     1       1.568   8.689  20.529  0.00  0.00    +0.000 C 
BRANCH   2  11
ATOM      8  C   UNL     1       2.689   3.755  19.709  0.00  0.00    +0.000 A 
ATOM      9  C   UNL     1       3.133   4.448  18.584  0.00  0.00    +0.000 A 
ATOM     10  C   UNL     1       2.942   5.831  18.489  0.00  0.00    +0.000 A 
ATOM     11  C   UNL     1       2.289   6.553  19.492  0.00  0.00    +0.000 A 
ATOM     12  C   UNL     1       1.837   5.829  20.604  0.00  0.00    +0.000 A 
ATOM     13  C   UNL     1       2.027   4.450  20.712  0.00  0.00    +0.000 A 
BRANCH   8  15
ATOM     14  C   UNL     1       3.416   1.881  18.486  0.00  0.00    +0.000 C 
ATOM     15  O   UNL     1       2.917   2.404  19.708  0.00  0.00    +0.000 OA
ENDBRANCH   8  15
ENDBRANCH   2  11
ENDBRANCH   1   5
BRANCH   1  16
ATOM     16  C   UNL     1       0.655  12.625  19.744  0.00  0.00    +0.000 C 
BRANCH  16  17
ATOM     17  C   UNL     1      -0.405  13.253  18.852  0.00  0.00    +0.000 C 
BRANCH  17  18
ATOM     18  N   UNL     1      -1.690  13.263  19.516  0.00  0.00    +0.000 N 
ATOM     19  C   UNL     1      -2.665  12.321  19.270  0.00  0.00    +0.000 C 
ATOM     20  O   UNL     1      -2.515  11.441  18.425  0.00  0.00    +0.000 OA
ATOM     21  H   UNL     1      -1.795  13.881  20.305  0.00  0.00    +0.000 HD
BRANCH  19  22
ATOM     22  C   UNL     1      -3.851  12.453  20.101  0.00  0.00    +0.000 A 
ATOM     23  C   UNL     1      -3.942  12.873  21.425  0.00  0.00    +0.000 A 
ATOM     24  C   UNL     1      -5.308  12.786  21.794  0.00  0.00    +0.000 A 
ATOM     25  S   UNL     1      -6.304  13.058  23.185  0.00  0.00    +0.000 S 
ATOM     26  C   UNL     1      -7.680  12.558  22.284  0.00  0.00    +0.000 A 
ATOM     27  C   UNL     1      -7.411  12.225  20.974  0.00  0.00    +0.000 A 
ATOM     28  C   UNL     1      -6.016  12.355  20.717  0.00  0.00    +0.000 A 
ATOM     29  N   UNL     1      -5.137  12.166  19.672  0.00  0.00    +0.000 N 
ATOM     30  C   UNL     1      -5.542  11.714  18.360  0.00  0.00    +0.000 C 
ENDBRANCH  19  22
ENDBRANCH  17  18
ENDBRANCH  16  17
ENDBRANCH   1  16
TORSDOF 7
ENDMDL
MODEL 3
REMARK VINA RESULT:      -7.7      7.919     10.589
REMARK  Name = 
REMARK  9 active torsions:
REMARK  status: ('A' for Active; 'I' for Inactive)
REMARK    1  A    between atoms: C_1  and  O_2
REMARK    2  A    between atoms: O_2  and  C_3
REMARK    3  A    between atoms: C_6  and  N_7
REMARK    4  A    between atoms: N_10  and  C_11
REMARK    5  A    between atoms: C_11  and  C_12
REMARK    6  A    between atoms: C_12  and  C_13
REMARK    7  A    between atoms: C_13  and  N_14
REMARK    8  A    between atoms: C_15  and  C_17
REMARK    9  A    between atoms: N_24  and  C_25
REMARK                            x       y       z     vdW  Elec       q    Type
REMARK                         _______ _______ _______ _____ _____    ______ ____
ROOT
ATOM      1  C   UNL     1       9.023  10.008  18.835  0.00  0.00    +0.000 C 
ENDROOT
BRANCH   1   5
ATOM      2  N   UNL     1      10.144  13.148  20.172  0.00  0.00    +0.000 N 
ATOM      3  C   UNL     1       8.914  13.038  19.379  0.00  0.00    +0.000 C 
ATOM      4  C   UNL     1       9.192  12.336  18.035  0.00  0.00    +0.000 C 
ATOM      5  N   UNL     1       9.861  11.017  18.162  0.00  0.00    +0.000 NA
ATOM      6  C   UNL     1      11.122  11.235  18.916  0.00  0.00    +0.000 C 
ATOM      7  C   UNL     1      10.956  11.925  20.296  0.00  0.00    +0.000 C 
BRANCH   2  11
ATOM      8  C   UNL     1      11.638  16.852  21.519  0.00  0.00    +0.000 A 
ATOM      9  C   UNL     1      12.087  16.304  20.319  0.00  0.00    +0.000 A 
ATOM     10  C   UNL     1      11.578  15.081  19.870  0.00  0.00    +0.000 A 
ATOM     11  C   UNL     1      10.631  14.364  20.608  0.00  0.00    +0.000 A 
ATOM     12  C   UNL     1      10.210  14.929  21.820  0.00  0.00    +0.000 A 
ATOM     13  C   UNL     1      10.707  16.152  22.274  0.00  0.00    +0.000 A 
BRANCH   8  15
ATOM     14  C   UNL     1      11.948  18.454  23.215  0.00  0.00    +0.000 C 
ATOM     15  O   UNL     1      12.198  18.050  21.877  0.00  0.00    +0.000 OA
ENDBRANCH   8  15
ENDBRANCH   2  11
ENDBRANCH   1   5
BRANCH   1  16
ATOM     16  C   UNL     1       7.895   9.459  17.960  0.00  0.00    +0.000 C 
BRANCH  16  17
ATOM     17  C   UNL     1       8.117   8.001  17.587  0.00  0.00    +0.000 C 
BRANCH  17  18
ATOM     18  N   UNL     1       6.884   7.253  17.696  0.00  0.00    +0.000 N 
ATOM     19  C   UNL     1       6.829   5.973  18.203  0.00  0.00    +0.000 C 
ATOM     20  O   UNL     1       7.843   5.370  18.546  0.00  0.00    +0.000 OA
ATOM     21  H   UNL     1       6.025   7.760  17.554  0.00  0.00    +0.000 HD
BRANCH  19  22
ATOM     22  C   UNL     1       5.485   5.426  18.310  0.00  0.00    +0.000 A 
ATOM     23  C   UNL     1       4.586   5.531  19.369  0.00  0.00    +0.000 A 
ATOM     24  C   UNL     1       3.432   4.792  19.006  0.00  0.00    +0.000 A 
ATOM     25  S   UNL     1       1.897   4.356  19.679  0.00  0.00    +0.000 S 
ATOM     26  C   UNL     1       1.536   3.467  18.253  0.00  0.00    +0.000 A 
ATOM     27  C   UNL     1       2.520   3.516  17.289  0.00  0.00    +0.000 A 
ATOM     28  C   UNL     1       3.622   4.285  17.759  0.00  0.00    +0.000 A 
ATOM     29  N   UNL     1       4.867   4.683  17.318  0.00  0.00    +0.000 N 
ATOM     30  C   UNL     1       5.404   4.332  16.023  0.00  0.00    +0.000 C 
ENDBRANCH  19  22
ENDBRANCH  17  18
ENDBRANCH  16  17
ENDBRANCH   1  16
TORSDOF 7
ENDMDL
MODEL 4
REMARK VINA RESULT:      -7.7      3.599      6.622
REMARK  Name = 
REMARK  9 active torsions:
REMARK  status: ('A' for Active; 'I' for Inactive)
REMARK    1  A    between atoms: C_1  and  O_2
REMARK    2  A    between atoms: O_2  and  C_3
REMARK    3  A    between atoms: C_6  and  N_7
REMARK    4  A    between atoms: N_10  and  C_11
REMARK    5  A    between atoms: C_11  and  C_12
REMARK    6  A    between atoms: C_12  and  C_13
REMARK    7  A    between atoms: C_13  and  N_14
REMARK    8  A    between atoms: C_15  and  C_17
REMARK    9  A    between atoms: N_24  and  C_25
REMARK                            x       y       z     vdW  Elec       q    Type
REMARK                         _______ _______ _______ _____ _____    ______ ____
ROOT
ATOM      1  C   UNL     1       1.102  11.472  19.744  0.00  0.00    +0.000 C 
ENDROOT
BRANCH   1   5
ATOM      2  N   UNL     1       1.897   7.973  19.564  0.00  0.00    +0.000 N 
ATOM      3  C   UNL     1       1.940   8.841  18.380  0.00  0.00    +0.000 C 
ATOM      4  C   UNL     1       0.610   9.602  18.212  0.00  0.00    +0.000 C 
ATOM      5  N   UNL     1       0.187  10.364  19.414  0.00  0.00    +0.000 NA
ATOM      6  C   UNL     1       0.107   9.400  20.540  0.00  0.00    +0.000 C 
ATOM      7  C   UNL     1       1.401   8.587  20.808  0.00  0.00    +0.000 C 
BRANCH   2  11
ATOM      8  C   UNL     1       2.561   3.818  19.322  0.00  0.00    +0.000 A 
ATOM      9  C   UNL     1       2.053   4.385  20.490  0.00  0.00    +0.000 A 
ATOM     10  C   UNL     1       1.822   5.764  20.559  0.00  0.00    +0.000 A 
ATOM     11  C   UNL     1       2.108   6.612  19.485  0.00  0.00    +0.000 A 
ATOM     12  C   UNL     1       2.635   6.018  18.330  0.00  0.00    +0.000 A 
ATOM     13  C   UNL     1       2.864   4.643  18.248  0.00  0.00    +0.000 A 
BRANCH   8  15
ATOM     14  C   UNL     1       3.298   1.908  18.161  0.00  0.00    +0.000 C 
ATOM     15  O   UNL     1       2.758   2.463  19.352  0.00  0.00    +0.000 OA
ENDBRANCH   8  15
ENDBRANCH   2  11
ENDBRANCH   1   5
BRANCH   1  16
ATOM     16  C   UNL     1       1.336  12.447  18.588  0.00  0.00    +0.000 C 
BRANCH  16  17
ATOM     17  C   UNL     1       0.326  13.585  18.586  0.00  0.00    +0.000 C 
BRANCH  17  18
ATOM     18  N   UNL     1      -0.714  13.345  19.561  0.00  0.00    +0.000 N 
ATOM     19  C   UNL     1      -1.364  14.362  20.226  0.00  0.00    +0.000 C 
ATOM     20  O   UNL     1      -1.057  15.541  20.062  0.00  0.00    +0.000 OA
ATOM     21  H   UNL     1      -1.083  12.409  19.619  0.00  0.00    +0.000 HD
BRANCH  19  22
ATOM     22  C   UNL     1      -2.438  13.918  21.102  0.00  0.00    +0.000 A 
ATOM     23  C   UNL     1      -3.784  13.730  20.800  0.00  0.00    +0.000 A 
ATOM     24  C   UNL     1      -4.426  13.333  21.999  0.00  0.00    +0.000 A 
ATOM     25  S   UNL     1      -6.015  12.934  22.559  0.00  0.00    +0.000 S 
ATOM     26  C   UNL     1      -5.386  12.687  24.139  0.00  0.00    +0.000 A 
ATOM     27  C   UNL     1      -4.023  12.869  24.243  0.00  0.00    +0.000 A 
ATOM     28  C   UNL     1      -3.489  13.258  22.982  0.00  0.00    +0.000 A 
ATOM     29  N   UNL     1      -2.267  13.596  22.439  0.00  0.00    +0.000 N 
ATOM     30  C   UNL     1      -1.036  13.618  23.194  0.00  0.00    +0.000 C 
ENDBRANCH  19  22
ENDBRANCH  17  18
ENDBRANCH  16  17
ENDBRANCH   1  16
TORSDOF 7
ENDMDL
MODEL 5
REMARK VINA RESULT:      -7.6      2.009      2.683
REMARK  Name = 
REMARK  9 active torsions:
REMARK  status: ('A' for Active; 'I' for Inactive)
REMARK    1  A    between atoms: C_1  and  O_2
REMARK    2  A    between atoms: O_2  and  C_3
REMARK    3  A    between atoms: C_6  and  N_7
REMARK    4  A    between atoms: N_10  and  C_11
REMARK    5  A    between atoms: C_11  and  C_12
REMARK    6  A    between atoms: C_12  and  C_13
REMARK    7  A    between atoms: C_13  and  N_14
REMARK    8  A    between atoms: C_15  and  C_17
REMARK    9  A    between atoms: N_24  and  C_25
REMARK                            x       y       z     vdW  Elec       q    Type
REMARK                         _______ _______ _______ _____ _____    ______ ____
ROOT
ATOM      1  C   UNL     1       1.777   1.917  18.966  0.00  0.00    +0.000 C 
ENDROOT
BRANCH   1   5
ATOM      2  N   UNL     1       4.328   4.402  18.498  0.00  0.00    +0.000 N 
ATOM      3  C   UNL     1       3.044   4.466  17.790  0.00  0.00    +0.000 C 
ATOM      4  C   UNL     1       2.757   3.140  17.060  0.00  0.00    +0.000 C 
ATOM      5  N   UNL     1       2.825   1.937  17.928  0.00  0.00    +0.000 NA
ATOM      6  C   UNL     1       4.174   1.919  18.548  0.00  0.00    +0.000 C 
ATOM      7  C   UNL     1       4.563   3.205  19.325  0.00  0.00    +0.000 C 
BRANCH   2  11
ATOM      8  C   UNL     1       7.453   7.129  17.745  0.00  0.00    +0.000 A 
ATOM      9  C   UNL     1       6.268   7.195  17.015  0.00  0.00    +0.000 A 
ATOM     10  C   UNL     1       5.228   6.295  17.279  0.00  0.00    +0.000 A 
ATOM     11  C   UNL     1       5.348   5.300  18.254  0.00  0.00    +0.000 A 
ATOM     12  C   UNL     1       6.557   5.245  18.961  0.00  0.00    +0.000 A 
ATOM     13  C   UNL     1       7.598   6.141  18.710  0.00  0.00    +0.000 A 
BRANCH   8  15
ATOM     14  C   UNL     1       8.224   9.342  17.967  0.00  0.00    +0.000 C 
ATOM     15  O   UNL     1       8.412   8.048  17.411  0.00  0.00    +0.000 OA
ENDBRANCH   8  15
ENDBRANCH   2  11
ENDBRANCH   1   5
BRANCH   1  16
ATOM     16  C   UNL     1       0.962   3.209  19.047  0.00  0.00    +0.000 C 
BRANCH  16  17
ATOM     17  C   UNL     1       0.882   3.747  20.467  0.00  0.00    +0.000 C 
BRANCH  17  18
ATOM     18  N   UNL     1       0.707   5.183  20.459  0.00  0.00    +0.000 N 
ATOM     19  C   UNL     1       1.735   6.062  20.722  0.00  0.00    +0.000 C 
ATOM     20  O   UNL     1       2.858   5.670  21.032  0.00  0.00    +0.000 OA
ATOM     21  H   UNL     1      -0.155   5.539  20.078  0.00  0.00    +0.000 HD
BRANCH  19  22
ATOM     22  C   UNL     1       1.377   7.465  20.579  0.00  0.00    +0.000 A 
ATOM     23  C   UNL     1       0.745   8.299  21.497  0.00  0.00    +0.000 A 
ATOM     24  C   UNL     1       0.583   9.559  20.869  0.00  0.00    +0.000 A 
ATOM     25  S   UNL     1      -0.094  11.114  21.219  0.00  0.00    +0.000 S 
ATOM     26  C   UNL     1       0.355  11.651  19.649  0.00  0.00    +0.000 A 
ATOM     27  C   UNL     1       1.017  10.707  18.894  0.00  0.00    +0.000 A 
ATOM     28  C   UNL     1       1.127   9.491  19.625  0.00  0.00    +0.000 A 
ATOM     29  N   UNL     1       1.630   8.220  19.445  0.00  0.00    +0.000 N 
ATOM     30  C   UNL     1       2.290   7.787  18.235  0.00  0.00    +0.000 C 
ENDBRANCH  19  22
ENDBRANCH  17  18
ENDBRANCH  16  17
ENDBRANCH   1  16
TORSDOF 7
ENDMDL
MODEL 6
REMARK VINA RESULT:      -7.5      7.287     10.250
REMARK  Name = 
REMARK  9 active torsions:
REMARK  status: ('A' for Active; 'I' for Inactive)
REMARK    1  A    between atoms: C_1  and  O_2
REMARK    2  A    between atoms: O_2  and  C_3
REMARK    3  A    between atoms: C_6  and  N_7
REMARK    4  A    between atoms: N_10  and  C_11
REMARK    5  A    between atoms: C_11  and  C_12
REMARK    6  A    between atoms: C_12  and  C_13
REMARK    7  A    between atoms: C_13  and  N_14
REMARK    8  A    between atoms: C_15  and  C_17
REMARK    9  A    between atoms: N_24  and  C_25
REMARK                            x       y       z     vdW  Elec       q    Type
REMARK                         _______ _______ _______ _____ _____    ______ ____
ROOT
ATOM      1  C   UNL     1       8.361   9.801  18.164  0.00  0.00    +0.000 C 
ENDROOT
BRANCH   1   5
ATOM      2  N   UNL     1       9.207  13.057  19.424  0.00  0.00    +0.000 N 
ATOM      3  C   UNL     1       9.297  12.731  17.996  0.00  0.00    +0.000 C 
ATOM      4  C   UNL     1      10.144  11.462  17.778  0.00  0.00    +0.000 C 
ATOM      5  N   UNL     1       9.696  10.285  18.564  0.00  0.00    +0.000 NA
ATOM      6  C   UNL     1       9.699  10.685  19.993  0.00  0.00    +0.000 C 
ATOM      7  C   UNL     1       8.861  11.947  20.330  0.00  0.00    +0.000 C 
BRANCH   2  11
ATOM      8  C   UNL     1      10.476  16.777  20.946  0.00  0.00    +0.000 A 
ATOM      9  C   UNL     1       9.152  16.590  20.554  0.00  0.00    +0.000 A 
ATOM     10  C   UNL     1       8.733  15.348  20.062  0.00  0.00    +0.000 A 
ATOM     11  C   UNL     1       9.619  14.275  19.927  0.00  0.00    +0.000 A 
ATOM     12  C   UNL     1      10.948  14.496  20.312  0.00  0.00    +0.000 A 
ATOM     13  C   UNL     1      11.375  15.729  20.810  0.00  0.00    +0.000 A 
BRANCH   8  15
ATOM     14  C   UNL     1       9.818  18.615  22.261  0.00  0.00    +0.000 C 
ATOM     15  O   UNL     1      10.791  18.027  21.410  0.00  0.00    +0.000 OA
ENDBRANCH   8  15
ENDBRANCH   2  11
ENDBRANCH   1   5
BRANCH   1  16
ATOM     16  C   UNL     1       8.192   8.285  18.285  0.00  0.00    +0.000 C 
BRANCH  16  17
ATOM     17  C   UNL     1       7.551   7.680  17.045  0.00  0.00    +0.000 C 
BRANCH  17  18
ATOM     18  N   UNL     1       6.458   6.807  17.412  0.00  0.00    +0.000 N 
ATOM     19  C   UNL     1       5.418   6.514  16.558  0.00  0.00    +0.000 C 
ATOM     20  O   UNL     1       5.334   7.023  15.442  0.00  0.00    +0.000 OA
ATOM     21  H   UNL     1       6.563   6.269  18.258  0.00  0.00    +0.000 HD
BRANCH  19  22
ATOM     22  C   UNL     1       4.463   5.549  17.082  0.00  0.00    +0.000 A 
ATOM     23  C   UNL     1       3.344   5.777  17.878  0.00  0.00    +0.000 A 
ATOM     24  C   UNL     1       2.769   4.513  18.157  0.00  0.00    +0.000 A 
ATOM     25  S   UNL     1       1.442   3.851  19.050  0.00  0.00    +0.000 S 
ATOM     26  C   UNL     1       1.916   2.272  18.567  0.00  0.00    +0.000 A 
ATOM     27  C   UNL     1       3.017   2.238  17.738  0.00  0.00    +0.000 A 
ATOM     28  C   UNL     1       3.503   3.559  17.524  0.00  0.00    +0.000 A 
ATOM     29  N   UNL     1       4.531   4.184  16.850  0.00  0.00    +0.000 N 
ATOM     30  C   UNL     1       5.512   3.478  16.058  0.00  0.00    +0.000 C 
ENDBRANCH  19  22
ENDBRANCH  17  18
ENDBRANCH  16  17
ENDBRANCH   1  16
TORSDOF 7
ENDMDL
MODEL 7
REMARK VINA RESULT:      -7.5      3.840     10.485
REMARK  Name = 
REMARK  9 active torsions:
REMARK  status: ('A' for Active; 'I' for Inactive)
REMARK    1  A    between atoms: C_1  and  O_2
REMARK    2  A    between atoms: O_2  and  C_3
REMARK    3  A    between atoms: C_6  and  N_7
REMARK    4  A    between atoms: N_10  and  C_11
REMARK    5  A    between atoms: C_11  and  C_12
REMARK    6  A    between atoms: C_12  and  C_13
REMARK    7  A    between atoms: C_13  and  N_14
REMARK    8  A    between atoms: C_15  and  C_17
REMARK    9  A    between atoms: N_24  and  C_25
REMARK                            x       y       z     vdW  Elec       q    Type
REMARK                         _______ _______ _______ _____ _____    ______ ____
ROOT
ATOM      1  C   UNL     1       1.392   8.831  20.676  0.00  0.00    +0.000 C 
ENDROOT
BRANCH   1   5
ATOM      2  N   UNL     1      -0.582  11.333  22.334  0.00  0.00    +0.000 N 
ATOM      3  C   UNL     1      -0.261  10.050  22.971  0.00  0.00    +0.000 C 
ATOM      4  C   UNL     1      -0.653   8.873  22.056  0.00  0.00    +0.000 C 
ATOM      5  N   UNL     1      -0.079   8.945  20.689  0.00  0.00    +0.000 NA
ATOM      6  C   UNL     1      -0.507  10.239  20.101  0.00  0.00    +0.000 C 
ATOM      7  C   UNL     1      -0.149  11.497  20.935  0.00  0.00    +0.000 C 
BRANCH   2  11
ATOM      8  C   UNL     1      -3.130  14.152  24.158  0.00  0.00    +0.000 A 
ATOM      9  C   UNL     1      -1.854  14.522  23.737  0.00  0.00    +0.000 A 
ATOM     10  C   UNL     1      -1.018  13.585  23.120  0.00  0.00    +0.000 A 
ATOM     11  C   UNL     1      -1.417  12.259  22.926  0.00  0.00    +0.000 A 
ATOM     12  C   UNL     1      -2.698  11.910  23.375  0.00  0.00    +0.000 A 
ATOM     13  C   UNL     1      -3.542  12.838  23.986  0.00  0.00    +0.000 A 
BRANCH   8  15
ATOM     14  C   UNL     1      -3.161  16.332  25.045  0.00  0.00    +0.000 C 
ATOM     15  O   UNL     1      -3.872  15.137  24.755  0.00  0.00    +0.000 OA
ENDBRANCH   8  15
ENDBRANCH   2  11
ENDBRANCH   1   5
BRANCH   1  16
ATOM     16  C   UNL     1       1.918   7.545  21.316  0.00  0.00    +0.000 C 
BRANCH  16  17
ATOM     17  C   UNL     1       1.550   6.310  20.507  0.00  0.00    +0.000 C 
BRANCH  17  18
ATOM     18  N   UNL     1       2.527   6.074  19.467  0.00  0.00    +0.000 N 
ATOM     19  C   UNL     1       3.294   4.930  19.409  0.00  0.00    +0.000 C 
ATOM     20  O   UNL     1       3.225   4.061  20.275  0.00  0.00    +0.000 OA
ATOM     21  H   UNL     1       2.513   6.694  18.674  0.00  0.00    +0.000 HD
BRANCH  19  22
ATOM     22  C   UNL     1       4.154   4.843  18.239  0.00  0.00    +0.000 A 
ATOM     23  C   UNL     1       3.804   4.559  16.922  0.00  0.00    +0.000 A 
ATOM     24  C   UNL     1       5.004   4.548  16.168  0.00  0.00    +0.000 A 
ATOM     25  S   UNL     1       5.519   4.268  14.539  0.00  0.00    +0.000 S 
ATOM     26  C   UNL     1       7.148   4.539  15.017  0.00  0.00    +0.000 A 
ATOM     27  C   UNL     1       7.303   4.858  16.349  0.00  0.00    +0.000 A 
ATOM     28  C   UNL     1       6.037   4.844  17.002  0.00  0.00    +0.000 A 
ATOM     29  N   UNL     1       5.525   5.044  18.266  0.00  0.00    +0.000 N 
ATOM     30  C   UNL     1       6.337   5.384  19.411  0.00  0.00    +0.000 C 
ENDBRANCH  19  22
ENDBRANCH  17  18
ENDBRANCH  16  17
ENDBRANCH   1  16
TORSDOF 7
ENDMDL
MODEL 8
REMARK VINA RESULT:      -7.4      3.950      6.913
REMARK  Name = 
REMARK  9 active torsions:
REMARK  status: ('A' for Active; 'I' for Inactive)
REMARK    1  A    between atoms: C_1  and  O_2
REMARK    2  A    between atoms: O_2  and  C_3
REMARK    3  A    between atoms: C_6  and  N_7
REMARK    4  A    between atoms: N_10  and  C_11
REMARK    5  A    between atoms: C_11  and  C_12
REMARK    6  A    between atoms: C_12  and  C_13
REMARK    7  A    between atoms: C_13  and  N_14
REMARK    8  A    between atoms: C_15  and  C_17
REMARK    9  A    between atoms: N_24  and  C_25
REMARK                            x       y       z     vdW  Elec       q    Type
REMARK                         _______ _______ _______ _____ _____    ______ ____
ROOT
ATOM      1  C   UNL     1       1.032  11.435  20.622  0.00  0.00    +0.000 C 
ENDROOT
BRANCH   1   5
ATOM      2  N   UNL     1       1.876   8.040  19.806  0.00  0.00    +0.000 N 
ATOM      3  C   UNL     1       1.899   9.108  18.800  0.00  0.00    +0.000 C 
ATOM      4  C   UNL     1       0.557   9.866  18.778  0.00  0.00    +0.000 C 
ATOM      5  N   UNL     1       0.131  10.391  20.099  0.00  0.00    +0.000 NA
ATOM      6  C   UNL     1       0.072   9.238  21.032  0.00  0.00    +0.000 C 
ATOM      7  C   UNL     1       1.379   8.410  21.143  0.00  0.00    +0.000 C 
BRANCH   2  11
ATOM      8  C   UNL     1       2.599   4.009  18.809  0.00  0.00    +0.000 A 
ATOM      9  C   UNL     1       2.242   4.361  20.109  0.00  0.00    +0.000 A 
ATOM     10  C   UNL     1       1.990   5.700  20.431  0.00  0.00    +0.000 A 
ATOM     11  C   UNL     1       2.107   6.718  19.481  0.00  0.00    +0.000 A 
ATOM     12  C   UNL     1       2.485   6.338  18.186  0.00  0.00    +0.000 A 
ATOM     13  C   UNL     1       2.734   5.005  17.852  0.00  0.00    +0.000 A 
BRANCH   8  15
ATOM     14  C   UNL     1       3.862   2.109  19.388  0.00  0.00    +0.000 C 
ATOM     15  O   UNL     1       2.830   2.676  18.593  0.00  0.00    +0.000 OA
ENDBRANCH   8  15
ENDBRANCH   2  11
ENDBRANCH   1   5
BRANCH   1  16
ATOM     16  C   UNL     1       0.735  12.835  20.081  0.00  0.00    +0.000 C 
BRANCH  16  17
ATOM     17  C   UNL     1      -0.253  13.590  20.957  0.00  0.00    +0.000 C 
BRANCH  17  18
ATOM     18  N   UNL     1      -1.580  13.032  20.825  0.00  0.00    +0.000 N 
ATOM     19  C   UNL     1      -2.723  13.800  20.884  0.00  0.00    +0.000 C 
ATOM     20  O   UNL     1      -2.679  15.008  21.104  0.00  0.00    +0.000 OA
ATOM     21  H   UNL     1      -1.648  12.077  20.510  0.00  0.00    +0.000 HD
BRANCH  19  22
ATOM     22  C   UNL     1      -3.954  13.064  20.642  0.00  0.00    +0.000 A 
ATOM     23  C   UNL     1      -4.349  12.382  19.495  0.00  0.00    +0.000 A 
ATOM     24  C   UNL     1      -5.647  11.870  19.742  0.00  0.00    +0.000 A 
ATOM     25  S   UNL     1      -6.872  10.967  18.918  0.00  0.00    +0.000 S 
ATOM     26  C   UNL     1      -7.877  11.080  20.308  0.00  0.00    +0.000 A 
ATOM     27  C   UNL     1      -7.304  11.748  21.369  0.00  0.00    +0.000 A 
ATOM     28  C   UNL     1      -6.007  12.210  21.009  0.00  0.00    +0.000 A 
ATOM     29  N   UNL     1      -4.971  12.925  21.573  0.00  0.00    +0.000 N 
ATOM     30  C   UNL     1      -5.002  13.445  22.920  0.00  0.00    +0.000 C 
ENDBRANCH  19  22
ENDBRANCH  17  18
ENDBRANCH  16  17
ENDBRANCH   1  16
TORSDOF 7
ENDMDL
MODEL 9
REMARK VINA RESULT:      -7.4      3.924      6.859
REMARK  Name = 
REMARK  9 active torsions:
REMARK  status: ('A' for Active; 'I' for Inactive)
REMARK    1  A    between atoms: C_1  and  O_2
REMARK    2  A    between atoms: O_2  and  C_3
REMARK    3  A    between atoms: C_6  and  N_7
REMARK    4  A    between atoms: N_10  and  C_11
REMARK    5  A    between atoms: C_11  and  C_12
REMARK    6  A    between atoms: C_12  and  C_13
REMARK    7  A    between atoms: C_13  and  N_14
REMARK    8  A    between atoms: C_15  and  C_17
REMARK    9  A    between atoms: N_24  and  C_25
REMARK                            x       y       z     vdW  Elec       q    Type
REMARK                         _______ _______ _______ _____ _____    ______ ____
ROOT
ATOM      1  C   UNL     1       0.060  11.666  20.373  0.00  0.00    +0.000 C 
ENDROOT
BRANCH   1   5
ATOM      2  N   UNL     1       1.704   8.562  19.616  0.00  0.00    +0.000 N 
ATOM      3  C   UNL     1       1.474   9.588  18.591  0.00  0.00    +0.000 C 
ATOM      4  C   UNL     1      -0.011   9.999  18.554  0.00  0.00    +0.000 C 
ATOM      5  N   UNL     1      -0.559  10.427  19.866  0.00  0.00    +0.000 NA
ATOM      6  C   UNL     1      -0.343   9.308  20.818  0.00  0.00    +0.000 C 
ATOM      7  C   UNL     1       1.125   8.822  20.946  0.00  0.00    +0.000 C 
BRANCH   2  11
ATOM      8  C   UNL     1       3.353   4.795  18.690  0.00  0.00    +0.000 A 
ATOM      9  C   UNL     1       3.510   5.869  17.815  0.00  0.00    +0.000 A 
ATOM     10  C   UNL     1       2.972   7.121  18.135  0.00  0.00    +0.000 A 
ATOM     11  C   UNL     1       2.249   7.331  19.313  0.00  0.00    +0.000 A 
ATOM     12  C   UNL     1       2.091   6.230  20.166  0.00  0.00    +0.000 A 
ATOM     13  C   UNL     1       2.629   4.978  19.860  0.00  0.00    +0.000 A 
BRANCH   8  15
ATOM     14  C   UNL     1       4.556   3.648  17.024  0.00  0.00    +0.000 C 
ATOM     15  O   UNL     1       3.910   3.610  18.289  0.00  0.00    +0.000 OA
ENDBRANCH   8  15
ENDBRANCH   2  11
ENDBRANCH   1   5
BRANCH   1  16
ATOM     16  C   UNL     1       0.388  12.684  19.280  0.00  0.00    +0.000 C 
BRANCH  16  17
ATOM     17  C   UNL     1      -0.847  13.440  18.812  0.00  0.00    +0.000 C 
BRANCH  17  18
ATOM     18  N   UNL     1      -1.970  13.169  19.683  0.00  0.00    +0.000 N 
ATOM     19  C   UNL     1      -2.492  14.110  20.543  0.00  0.00    +0.000 C 
ATOM     20  O   UNL     1      -1.995  15.229  20.656  0.00  0.00    +0.000 OA
ATOM     21  H   UNL     1      -2.483  12.318  19.520  0.00  0.00    +0.000 HD
BRANCH  19  22
ATOM     22  C   UNL     1      -3.673  13.671  21.270  0.00  0.00    +0.000 A 
ATOM     23  C   UNL     1      -4.950  13.413  20.778  0.00  0.00    +0.000 A 
ATOM     24  C   UNL     1      -5.756  13.055  21.888  0.00  0.00    +0.000 A 
ATOM     25  S   UNL     1      -7.399  12.623  22.221  0.00  0.00    +0.000 S 
ATOM     26  C   UNL     1      -7.013  12.485  23.891  0.00  0.00    +0.000 A 
ATOM     27  C   UNL     1      -5.689  12.726  24.189  0.00  0.00    +0.000 A 
ATOM     28  C   UNL     1      -4.979  13.069  23.004  0.00  0.00    +0.000 A 
ATOM     29  N   UNL     1      -3.700  13.427  22.633  0.00  0.00    +0.000 N 
ATOM     30  C   UNL     1      -2.601  13.538  23.565  0.00  0.00    +0.000 C 
ENDBRANCH  19  22
ENDBRANCH  17  18
ENDBRANCH  16  17
ENDBRANCH   1  16
TORSDOF 7
ENDMDL
