MODEL 1
REMARK VINA RESULT:      -8.4      0.000      0.000
REMARK  Name = 
REMARK  5 active torsions:
REMARK  status: ('A' for Active; 'I' for Inactive)
REMARK    1  A    between atoms: N_2  and  C_4
REMARK    2  A    between atoms: C_8  and  C_9
REMARK    3  A    between atoms: N_11  and  C_12
REMARK    4  A    between atoms: C_19  and  C_20
REMARK    5  A    between atoms: C_20  and  O_21
REMARK                            x       y       z     vdW  Elec       q    Type
REMARK                         _______ _______ _______ _____ _____    ______ ____
ROOT
ATOM      1  C   UNL     1       5.523   4.240  16.417  0.00  0.00    +0.000 A 
ATOM      2  N   UNL     1       4.275   3.827  16.684  0.00  0.00    +0.000 NA
ATOM      3  N   UNL     1       4.107   3.995  18.016  0.00  0.00    +0.000 N 
ATOM      4  C   UNL     1       5.254   4.471  18.605  0.00  0.00    +0.000 A 
ATOM      5  C   UNL     1       6.202   4.624  17.614  0.00  0.00    +0.000 A 
ENDROOT
BRANCH   1  10
ATOM      6  C   UNL     1       5.848   3.531  12.722  0.00  0.00    +0.000 A 
ATOM      7  C   UNL     1       6.965   4.305  12.380  0.00  0.00    +0.000 A 
ATOM      8  C   UNL     1       7.618   5.031  13.374  0.00  0.00    +0.000 A 
ATOM      9  C   UNL     1       7.148   5.001  14.691  0.00  0.00    +0.000 A 
ATOM     10  C   UNL     1       6.018   4.245  15.035  0.00  0.00    +0.000 A 
ATOM     11  C   UNL     1       5.383   3.488  14.042  0.00  0.00    +0.000 A 
BRANCH   6  13
ATOM     12  O   UNL     1       5.641   1.679  11.337  0.00  0.00    +0.000 OA
ATOM     13  N   UNL     1       5.146   2.761  11.688  0.00  0.00    +0.000 N 
ATOM     14  O   UNL     1       4.103   3.240  11.223  0.00  0.00    +0.000 OA
ENDBRANCH   6  13
ENDBRANCH   1  10
BRANCH   3  15
ATOM     15  C   UNL     1       2.859   3.715  18.642  0.00  0.00    +0.000 A 
ATOM     16  C   UNL     1       2.483   4.428  19.790  0.00  0.00    +0.000 A 
ATOM     17  C   UNL     1       1.274   4.144  20.431  0.00  0.00    +0.000 A 
ATOM     18  C   UNL     1       0.437   3.146  19.934  0.00  0.00    +0.000 A 
ATOM     19  C   UNL     1       0.801   2.438  18.791  0.00  0.00    +0.000 A 
ATOM     20  C   UNL     1       2.005   2.721  18.140  0.00  0.00    +0.000 A 
ENDBRANCH   3  15
BRANCH   5  21
ATOM     21  C   UNL     1       7.608   5.089  17.771  0.00  0.00    +0.000 C 
BRANCH  21  22
ATOM     22  O   UNL     1       8.539   4.013  17.816  0.00  0.00    +0.000 OA
ATOM     23  H   UNL     1       8.839   3.866  16.905  0.00  0.00    +0.000 HD
ENDBRANCH  21  22
ENDBRANCH   5  21
TORSDOF 5
ENDMDL
MODEL 2
REMARK VINA RESULT:      -8.4      0.076      1.226
REMARK  Name = 
REMARK  5 active torsions:
REMARK  status: ('A' for Active; 'I' for Inactive)
REMARK    1  A    between atoms: N_2  and  C_4
REMARK    2  A    between atoms: C_8  and  C_9
REMARK    3  A    between atoms: N_11  and  C_12
REMARK    4  A    between atoms: C_19  and  C_20
REMARK    5  A    between atoms: C_20  and  O_21
REMARK                            x       y       z     vdW  Elec       q    Type
REMARK                         _______ _______ _______ _____ _____    ______ ____
ROOT
ATOM      1  C   UNL     1       5.543   4.240  16.481  0.00  0.00    +0.000 A 
ATOM      2  N   UNL     1       4.292   3.833  16.745  0.00  0.00    +0.000 NA
ATOM      3  N   UNL     1       4.129   3.980  18.080  0.00  0.00    +0.000 N 
ATOM      4  C   UNL     1       5.282   4.437  18.673  0.00  0.00    +0.000 A 
ATOM      5  C   UNL     1       6.229   4.598  17.682  0.00  0.00    +0.000 A 
ENDROOT
BRANCH   1  10
ATOM      6  C   UNL     1       5.869   3.566  12.780  0.00  0.00    +0.000 A 
ATOM      7  C   UNL     1       6.975   4.359  12.441  0.00  0.00    +0.000 A 
ATOM      8  C   UNL     1       7.620   5.086  13.440  0.00  0.00    +0.000 A 
ATOM      9  C   UNL     1       7.153   5.037  14.758  0.00  0.00    +0.000 A 
ATOM     10  C   UNL     1       6.034   4.263  15.098  0.00  0.00    +0.000 A 
ATOM     11  C   UNL     1       5.408   3.506  14.101  0.00  0.00    +0.000 A 
BRANCH   6  13
ATOM     12  O   UNL     1       4.124   3.264  11.278  0.00  0.00    +0.000 OA
ATOM     13  N   UNL     1       5.175   2.795  11.741  0.00  0.00    +0.000 N 
ATOM     14  O   UNL     1       5.677   1.718  11.393  0.00  0.00    +0.000 OA
ENDBRANCH   6  13
ENDBRANCH   1  10
BRANCH   3  15
ATOM     15  C   UNL     1       2.881   3.700  18.704  0.00  0.00    +0.000 A 
ATOM     16  C   UNL     1       2.073   2.667  18.206  0.00  0.00    +0.000 A 
ATOM     17  C   UNL     1       0.832   2.398  18.791  0.00  0.00    +0.000 A 
ATOM     18  C   UNL     1       0.389   3.160  19.870  0.00  0.00    +0.000 A 
ATOM     19  C   UNL     1       1.189   4.184  20.375  0.00  0.00    +0.000 A 
ATOM     20  C   UNL     1       2.434   4.453  19.800  0.00  0.00    +0.000 A 
ENDBRANCH   3  15
BRANCH   5  21
ATOM     21  C   UNL     1       7.639   5.049  17.843  0.00  0.00    +0.000 C 
BRANCH  21  22
ATOM     22  O   UNL     1       8.567   3.970  17.803  0.00  0.00    +0.000 OA
ATOM     23  H   UNL     1       9.401   4.333  17.464  0.00  0.00    +0.000 HD
ENDBRANCH  21  22
ENDBRANCH   5  21
TORSDOF 5
ENDMDL
MODEL 3
REMARK VINA RESULT:      -8.3      0.987      1.188
REMARK  Name = 
REMARK  5 active torsions:
REMARK  status: ('A' for Active; 'I' for Inactive)
REMARK    1  A    between atoms: N_2  and  C_4
REMARK    2  A    between atoms: C_8  and  C_9
REMARK    3  A    between atoms: N_11  and  C_12
REMARK    4  A    between atoms: C_19  and  C_20
REMARK    5  A    between atoms: C_20  and  O_21
REMARK                            x       y       z     vdW  Elec       q    Type
REMARK                         _______ _______ _______ _____ _____    ______ ____
ROOT
ATOM      1  C   UNL     1       5.514   4.684  16.166  0.00  0.00    +0.000 A 
ATOM      2  N   UNL     1       4.391   4.055  16.544  0.00  0.00    +0.000 NA
ATOM      3  N   UNL     1       4.144   4.468  17.809  0.00  0.00    +0.000 N 
ATOM      4  C   UNL     1       5.125   5.322  18.253  0.00  0.00    +0.000 A 
ATOM      5  C   UNL     1       6.043   5.474  17.233  0.00  0.00    +0.000 A 
ENDROOT
BRANCH   1  10
ATOM      6  C   UNL     1       5.893   3.516  12.595  0.00  0.00    +0.000 A 
ATOM      7  C   UNL     1       7.050   4.198  12.192  0.00  0.00    +0.000 A 
ATOM      8  C   UNL     1       7.710   5.014  13.109  0.00  0.00    +0.000 A 
ATOM      9  C   UNL     1       7.209   5.163  14.406  0.00  0.00    +0.000 A 
ATOM     10  C   UNL     1       6.040   4.500  14.808  0.00  0.00    +0.000 A 
ATOM     11  C   UNL     1       5.397   3.653  13.897  0.00  0.00    +0.000 A 
BRANCH   6  13
ATOM     12  O   UNL     1       4.083   3.041  11.221  0.00  0.00    +0.000 OA
ATOM     13  N   UNL     1       5.183   2.654  11.643  0.00  0.00    +0.000 N 
ATOM     14  O   UNL     1       5.721   1.585  11.322  0.00  0.00    +0.000 OA
ENDBRANCH   6  13
ENDBRANCH   1  10
BRANCH   3  15
ATOM     15  C   UNL     1       2.978   4.045  18.507  0.00  0.00    +0.000 A 
ATOM     16  C   UNL     1       2.611   4.687  19.699  0.00  0.00    +0.000 A 
ATOM     17  C   UNL     1       1.484   4.264  20.409  0.00  0.00    +0.000 A 
ATOM     18  C   UNL     1       0.722   3.196  19.939  0.00  0.00    +0.000 A 
ATOM     19  C   UNL     1       1.077   2.556  18.753  0.00  0.00    +0.000 A 
ATOM     20  C   UNL     1       2.198   2.979  18.033  0.00  0.00    +0.000 A 
ENDBRANCH   3  15
BRANCH   5  21
ATOM     21  C   UNL     1       7.293   6.283  17.254  0.00  0.00    +0.000 C 
BRANCH  21  22
ATOM     22  O   UNL     1       7.065   7.652  16.939  0.00  0.00    +0.000 OA
ATOM     23  H   UNL     1       6.124   7.824  17.107  0.00  0.00    +0.000 HD
ENDBRANCH  21  22
ENDBRANCH   5  21
TORSDOF 5
ENDMDL
MODEL 4
REMARK VINA RESULT:      -8.3      0.980      1.567
REMARK  Name = 
REMARK  5 active torsions:
REMARK  status: ('A' for Active; 'I' for Inactive)
REMARK    1  A    between atoms: N_2  and  C_4
REMARK    2  A    between atoms: C_8  and  C_9
REMARK    3  A    between atoms: N_11  and  C_12
REMARK    4  A    between atoms: C_19  and  C_20
REMARK    5  A    between atoms: C_20  and  O_21
REMARK                            x       y       z     vdW  Elec       q    Type
REMARK                         _______ _______ _______ _____ _____    ______ ____
ROOT
ATOM      1  C   UNL     1       5.541   4.667  16.190  0.00  0.00    +0.000 A 
ATOM      2  N   UNL     1       4.430   4.025  16.579  0.00  0.00    +0.000 NA
ATOM      3  N   UNL     1       4.192   4.431  17.847  0.00  0.00    +0.000 N 
ATOM      4  C   UNL     1       5.169   5.295  18.283  0.00  0.00    +0.000 A 
ATOM      5  C   UNL     1       6.073   5.459  17.253  0.00  0.00    +0.000 A 
ENDROOT
BRANCH   1  10
ATOM      6  C   UNL     1       5.887   3.521  12.608  0.00  0.00    +0.000 A 
ATOM      7  C   UNL     1       7.036   4.210  12.197  0.00  0.00    +0.000 A 
ATOM      8  C   UNL     1       7.703   5.024  13.112  0.00  0.00    +0.000 A 
ATOM      9  C   UNL     1       7.216   5.163  14.415  0.00  0.00    +0.000 A 
ATOM     10  C   UNL     1       6.053   4.493  14.826  0.00  0.00    +0.000 A 
ATOM     11  C   UNL     1       5.404   3.649  13.916  0.00  0.00    +0.000 A 
BRANCH   6  13
ATOM     12  O   UNL     1       4.072   3.057  11.236  0.00  0.00    +0.000 OA
ATOM     13  N   UNL     1       5.169   2.662  11.658  0.00  0.00    +0.000 N 
ATOM     14  O   UNL     1       5.699   1.589  11.341  0.00  0.00    +0.000 OA
ENDBRANCH   6  13
ENDBRANCH   1  10
BRANCH   3  15
ATOM     15  C   UNL     1       3.039   3.992  18.557  0.00  0.00    +0.000 A 
ATOM     16  C   UNL     1       2.209   3.012  17.993  0.00  0.00    +0.000 A 
ATOM     17  C   UNL     1       1.058   2.592  18.665  0.00  0.00    +0.000 A 
ATOM     18  C   UNL     1       0.727   3.149  19.899  0.00  0.00    +0.000 A 
ATOM     19  C   UNL     1       1.550   4.119  20.469  0.00  0.00    +0.000 A 
ATOM     20  C   UNL     1       2.706   4.538  19.806  0.00  0.00    +0.000 A 
ENDBRANCH   3  15
BRANCH   5  21
ATOM     21  C   UNL     1       7.314   6.282  17.262  0.00  0.00    +0.000 C 
BRANCH  21  22
ATOM     22  O   UNL     1       7.071   7.645  16.930  0.00  0.00    +0.000 OA
ATOM     23  H   UNL     1       6.113   7.733  16.798  0.00  0.00    +0.000 HD
ENDBRANCH  21  22
ENDBRANCH   5  21
TORSDOF 5
ENDMDL
MODEL 5
REMARK VINA RESULT:      -8.3      3.164      7.145
REMARK  Name = 
REMARK  5 active torsions:
REMARK  status: ('A' for Active; 'I' for Inactive)
REMARK    1  A    between atoms: N_2  and  C_4
REMARK    2  A    between atoms: C_8  and  C_9
REMARK    3  A    between atoms: N_11  and  C_12
REMARK    4  A    between atoms: C_19  and  C_20
REMARK    5  A    between atoms: C_20  and  O_21
REMARK                            x       y       z     vdW  Elec       q    Type
REMARK                         _______ _______ _______ _____ _____    ______ ____
ROOT
ATOM      1  C   UNL     1       4.765   4.339  17.454  0.00  0.00    +0.000 A 
ATOM      2  N   UNL     1       4.809   4.203  16.120  0.00  0.00    +0.000 NA
ATOM      3  N   UNL     1       6.052   4.590  15.750  0.00  0.00    +0.000 N 
ATOM      4  C   UNL     1       6.784   5.012  16.833  0.00  0.00    +0.000 A 
ATOM      5  C   UNL     1       5.986   4.888  17.953  0.00  0.00    +0.000 A 
ENDROOT
BRANCH   1  10
ATOM      6  C   UNL     1       2.492   3.075  20.191  0.00  0.00    +0.000 A 
ATOM      7  C   UNL     1       1.226   3.245  19.614  0.00  0.00    +0.000 A 
ATOM      8  C   UNL     1       1.134   3.749  18.318  0.00  0.00    +0.000 A 
ATOM      9  C   UNL     1       2.292   4.097  17.615  0.00  0.00    +0.000 A 
ATOM     10  C   UNL     1       3.560   3.949  18.196  0.00  0.00    +0.000 A 
ATOM     11  C   UNL     1       3.653   3.410  19.485  0.00  0.00    +0.000 A 
BRANCH   6  13
ATOM     12  O   UNL     1       3.643   1.929  21.851  0.00  0.00    +0.000 OA
ATOM     13  N   UNL     1       2.609   2.547  21.556  0.00  0.00    +0.000 N 
ATOM     14  O   UNL     1       1.664   2.746  22.332  0.00  0.00    +0.000 OA
ENDBRANCH   6  13
ENDBRANCH   1  10
BRANCH   3  15
ATOM     15  C   UNL     1       6.472   4.511  14.392  0.00  0.00    +0.000 A 
ATOM     16  C   UNL     1       5.860   3.590  13.529  0.00  0.00    +0.000 A 
ATOM     17  C   UNL     1       6.281   3.482  12.201  0.00  0.00    +0.000 A 
ATOM     18  C   UNL     1       7.318   4.286  11.729  0.00  0.00    +0.000 A 
ATOM     19  C   UNL     1       7.928   5.206  12.579  0.00  0.00    +0.000 A 
ATOM     20  C   UNL     1       7.506   5.325  13.906  0.00  0.00    +0.000 A 
ENDBRANCH   3  15
BRANCH   5  21
ATOM     21  C   UNL     1       6.335   5.247  19.356  0.00  0.00    +0.000 C 
BRANCH  21  22
ATOM     22  O   UNL     1       7.737   5.399  19.551  0.00  0.00    +0.000 OA
ATOM     23  H   UNL     1       7.912   5.197  20.484  0.00  0.00    +0.000 HD
ENDBRANCH  21  22
ENDBRANCH   5  21
TORSDOF 5
ENDMDL
MODEL 6
REMARK VINA RESULT:      -8.2      3.210      7.061
REMARK  Name = 
REMARK  5 active torsions:
REMARK  status: ('A' for Active; 'I' for Inactive)
REMARK    1  A    between atoms: N_2  and  C_4
REMARK    2  A    between atoms: C_8  and  C_9
REMARK    3  A    between atoms: N_11  and  C_12
REMARK    4  A    between atoms: C_19  and  C_20
REMARK    5  A    between atoms: C_20  and  O_21
REMARK                            x       y       z     vdW  Elec       q    Type
REMARK                         _______ _______ _______ _____ _____    ______ ____
ROOT
ATOM      1  C   UNL     1       4.935   4.605  17.519  0.00  0.00    +0.000 A 
ATOM      2  N   UNL     1       4.926   4.420  16.190  0.00  0.00    +0.000 NA
ATOM      3  N   UNL     1       6.185   4.685  15.771  0.00  0.00    +0.000 N 
ATOM      4  C   UNL     1       6.984   5.079  16.817  0.00  0.00    +0.000 A 
ATOM      5  C   UNL     1       6.213   5.063  17.963  0.00  0.00    +0.000 A 
ENDROOT
BRANCH   1  10
ATOM      6  C   UNL     1       2.623   3.365  20.235  0.00  0.00    +0.000 A 
ATOM      7  C   UNL     1       1.392   3.896  19.827  0.00  0.00    +0.000 A 
ATOM      8  C   UNL     1       1.329   4.634  18.646  0.00  0.00    +0.000 A 
ATOM      9  C   UNL     1       2.486   4.856  17.893  0.00  0.00    +0.000 A 
ATOM     10  C   UNL     1       3.725   4.345  18.308  0.00  0.00    +0.000 A 
ATOM     11  C   UNL     1       3.781   3.574  19.476  0.00  0.00    +0.000 A 
BRANCH   6  13
ATOM     12  O   UNL     1       3.763   1.972  21.701  0.00  0.00    +0.000 OA
ATOM     13  N   UNL     1       2.710   2.587  21.477  0.00  0.00    +0.000 N 
ATOM     14  O   UNL     1       1.722   2.585  22.224  0.00  0.00    +0.000 OA
ENDBRANCH   6  13
ENDBRANCH   1  10
BRANCH   3  15
ATOM     15  C   UNL     1       6.555   4.524  14.406  0.00  0.00    +0.000 A 
ATOM     16  C   UNL     1       7.548   5.348  13.855  0.00  0.00    +0.000 A 
ATOM     17  C   UNL     1       7.902   5.220  12.509  0.00  0.00    +0.000 A 
ATOM     18  C   UNL     1       7.265   4.276  11.706  0.00  0.00    +0.000 A 
ATOM     19  C   UNL     1       6.283   3.449  12.247  0.00  0.00    +0.000 A 
ATOM     20  C   UNL     1       5.929   3.566  13.594  0.00  0.00    +0.000 A 
ENDBRANCH   3  15
BRANCH   5  21
ATOM     21  C   UNL     1       6.635   5.438  19.341  0.00  0.00    +0.000 C 
BRANCH  21  22
ATOM     22  O   UNL     1       8.025   5.229  19.566  0.00  0.00    +0.000 OA
ATOM     23  H   UNL     1       8.111   4.864  20.461  0.00  0.00    +0.000 HD
ENDBRANCH  21  22
ENDBRANCH   5  21
TORSDOF 5
ENDMDL
MODEL 7
REMARK VINA RESULT:      -8.2      3.462      7.030
REMARK  Name = 
REMARK  5 active torsions:
REMARK  status: ('A' for Active; 'I' for Inactive)
REMARK    1  A    between atoms: N_2  and  C_4
REMARK    2  A    between atoms: C_8  and  C_9
REMARK    3  A    between atoms: N_11  and  C_12
REMARK    4  A    between atoms: C_19  and  C_20
REMARK    5  A    between atoms: C_20  and  O_21
REMARK                            x       y       z     vdW  Elec       q    Type
REMARK                         _______ _______ _______ _____ _____    ______ ____
ROOT
ATOM      1  C   UNL     1       5.307   5.119  17.824  0.00  0.00    +0.000 A 
ATOM      2  N   UNL     1       5.129   4.908  16.512  0.00  0.00    +0.000 NA
ATOM      3  N   UNL     1       6.369   4.859  15.973  0.00  0.00    +0.000 N 
ATOM      4  C   UNL     1       7.333   5.081  16.926  0.00  0.00    +0.000 A 
ATOM      5  C   UNL     1       6.693   5.275  18.134  0.00  0.00    +0.000 A 
ENDROOT
BRANCH   1  10
ATOM      6  C   UNL     1       2.716   4.141  20.391  0.00  0.00    +0.000 A 
ATOM      7  C   UNL     1       1.949   5.311  20.484  0.00  0.00    +0.000 A 
ATOM      8  C   UNL     1       2.276   6.402  19.680  0.00  0.00    +0.000 A 
ATOM      9  C   UNL     1       3.368   6.331  18.808  0.00  0.00    +0.000 A 
ATOM     10  C   UNL     1       4.151   5.170  18.727  0.00  0.00    +0.000 A 
ATOM     11  C   UNL     1       3.801   4.063  19.510  0.00  0.00    +0.000 A 
BRANCH   6  13
ATOM     12  O   UNL     1       1.193   2.773  21.486  0.00  0.00    +0.000 OA
ATOM     13  N   UNL     1       2.388   2.983  21.232  0.00  0.00    +0.000 N 
ATOM     14  O   UNL     1       3.327   2.288  21.643  0.00  0.00    +0.000 OA
ENDBRANCH   6  13
ENDBRANCH   1  10
BRANCH   3  15
ATOM     15  C   UNL     1       6.559   4.582  14.590  0.00  0.00    +0.000 A 
ATOM     16  C   UNL     1       7.556   5.263  13.876  0.00  0.00    +0.000 A 
ATOM     17  C   UNL     1       7.737   5.022  12.512  0.00  0.00    +0.000 A 
ATOM     18  C   UNL     1       6.921   4.104  11.851  0.00  0.00    +0.000 A 
ATOM     19  C   UNL     1       5.932   3.419  12.554  0.00  0.00    +0.000 A 
ATOM     20  C   UNL     1       5.752   3.650  13.920  0.00  0.00    +0.000 A 
ENDBRANCH   3  15
BRANCH   5  21
ATOM     21  C   UNL     1       7.320   5.575  19.451  0.00  0.00    +0.000 C 
BRANCH  21  22
ATOM     22  O   UNL     1       8.365   6.536  19.355  0.00  0.00    +0.000 OA
ATOM     23  H   UNL     1       8.718   6.475  18.453  0.00  0.00    +0.000 HD
ENDBRANCH  21  22
ENDBRANCH   5  21
TORSDOF 5
ENDMDL
MODEL 8
REMARK VINA RESULT:      -8.2      3.418      7.028
REMARK  Name = 
REMARK  5 active torsions:
REMARK  status: ('A' for Active; 'I' for Inactive)
REMARK    1  A    between atoms: N_2  and  C_4
REMARK    2  A    between atoms: C_8  and  C_9
REMARK    3  A    between atoms: N_11  and  C_12
REMARK    4  A    between atoms: C_19  and  C_20
REMARK    5  A    between atoms: C_20  and  O_21
REMARK                            x       y       z     vdW  Elec       q    Type
REMARK                         _______ _______ _______ _____ _____    ______ ____
ROOT
ATOM      1  C   UNL     1       5.258   5.204  17.776  0.00  0.00    +0.000 A 
ATOM      2  N   UNL     1       5.082   5.010  16.461  0.00  0.00    +0.000 NA
ATOM      3  N   UNL     1       6.323   4.907  15.932  0.00  0.00    +0.000 N 
ATOM      4  C   UNL     1       7.288   5.077  16.896  0.00  0.00    +0.000 A 
ATOM      5  C   UNL     1       6.647   5.293  18.099  0.00  0.00    +0.000 A 
ENDROOT
BRANCH   1  10
ATOM      6  C   UNL     1       2.552   4.309  20.253  0.00  0.00    +0.000 A 
ATOM      7  C   UNL     1       1.890   5.535  20.409  0.00  0.00    +0.000 A 
ATOM      8  C   UNL     1       2.324   6.638  19.676  0.00  0.00    +0.000 A 
ATOM      9  C   UNL     1       3.418   6.523  18.813  0.00  0.00    +0.000 A 
ATOM     10  C   UNL     1       4.098   5.304  18.669  0.00  0.00    +0.000 A 
ATOM     11  C   UNL     1       3.640   4.188  19.380  0.00  0.00    +0.000 A 
BRANCH   6  13
ATOM     12  O   UNL     1       2.247   3.167  22.251  0.00  0.00    +0.000 OA
ATOM     13  N   UNL     1       2.111   3.137  21.019  0.00  0.00    +0.000 N 
ATOM     14  O   UNL     1       1.636   2.183  20.387  0.00  0.00    +0.000 OA
ENDBRANCH   6  13
ENDBRANCH   1  10
BRANCH   3  15
ATOM     15  C   UNL     1       6.513   4.630  14.549  0.00  0.00    +0.000 A 
ATOM     16  C   UNL     1       5.669   3.714  13.903  0.00  0.00    +0.000 A 
ATOM     17  C   UNL     1       5.861   3.410  12.553  0.00  0.00    +0.000 A 
ATOM     18  C   UNL     1       6.897   4.013  11.842  0.00  0.00    +0.000 A 
ATOM     19  C   UNL     1       7.736   4.928  12.475  0.00  0.00    +0.000 A 
ATOM     20  C   UNL     1       7.545   5.243  13.823  0.00  0.00    +0.000 A 
ENDBRANCH   3  15
BRANCH   5  21
ATOM     21  C   UNL     1       7.275   5.554  19.424  0.00  0.00    +0.000 C 
BRANCH  21  22
ATOM     22  O   UNL     1       8.344   6.491  19.349  0.00  0.00    +0.000 OA
ATOM     23  H   UNL     1       8.079   7.165  18.704  0.00  0.00    +0.000 HD
ENDBRANCH  21  22
ENDBRANCH   5  21
TORSDOF 5
ENDMDL
MODEL 9
REMARK VINA RESULT:      -7.8      3.887      6.103
REMARK  Name = 
REMARK  5 active torsions:
REMARK  status: ('A' for Active; 'I' for Inactive)
REMARK    1  A    between atoms: N_2  and  C_4
REMARK    2  A    between atoms: C_8  and  C_9
REMARK    3  A    between atoms: N_11  and  C_12
REMARK    4  A    between atoms: C_19  and  C_20
REMARK    5  A    between atoms: C_20  and  O_21
REMARK                            x       y       z     vdW  Elec       q    Type
REMARK                         _______ _______ _______ _____ _____    ______ ____
ROOT
ATOM      1  C   UNL     1       2.993   5.768  19.444  0.00  0.00    +0.000 A 
ATOM      2  N   UNL     1       2.628   7.059  19.413  0.00  0.00    +0.000 NA
ATOM      3  N   UNL     1       1.712   7.208  20.398  0.00  0.00    +0.000 N 
ATOM      4  C   UNL     1       1.459   6.012  21.026  0.00  0.00    +0.000 A 
ATOM      5  C   UNL     1       2.249   5.049  20.429  0.00  0.00    +0.000 A 
ENDROOT
BRANCH   1  10
ATOM      6  C   UNL     1       6.349   4.768  18.032  0.00  0.00    +0.000 A 
ATOM      7  C   UNL     1       5.993   4.276  16.769  0.00  0.00    +0.000 A 
ATOM      8  C   UNL     1       4.654   4.304  16.382  0.00  0.00    +0.000 A 
ATOM      9  C   UNL     1       3.681   4.799  17.256  0.00  0.00    +0.000 A 
ATOM     10  C   UNL     1       4.028   5.273  18.530  0.00  0.00    +0.000 A 
ATOM     11  C   UNL     1       5.378   5.276  18.903  0.00  0.00    +0.000 A 
BRANCH   6  13
ATOM     12  O   UNL     1       8.065   5.402  19.462  0.00  0.00    +0.000 OA
ATOM     13  N   UNL     1       7.754   4.744  18.458  0.00  0.00    +0.000 N 
ATOM     14  O   UNL     1       8.548   4.074  17.783  0.00  0.00    +0.000 OA
ENDBRANCH   6  13
ENDBRANCH   1  10
BRANCH   3  15
ATOM     15  C   UNL     1       1.152   8.483  20.695  0.00  0.00    +0.000 A 
ATOM     16  C   UNL     1       0.773   8.784  22.012  0.00  0.00    +0.000 A 
ATOM     17  C   UNL     1       0.196  10.020  22.313  0.00  0.00    +0.000 A 
ATOM     18  C   UNL     1      -0.010  10.960  21.304  0.00  0.00    +0.000 A 
ATOM     19  C   UNL     1       0.370  10.671  19.995  0.00  0.00    +0.000 A 
ATOM     20  C   UNL     1       0.954   9.439  19.687  0.00  0.00    +0.000 A 
ENDBRANCH   3  15
BRANCH   5  21
ATOM     21  C   UNL     1       2.303   3.597  20.752  0.00  0.00    +0.000 C 
BRANCH  21  22
ATOM     22  O   UNL     1       2.190   3.341  22.148  0.00  0.00    +0.000 OA
ATOM     23  H   UNL     1       2.246   2.378  22.260  0.00  0.00    +0.000 HD
ENDBRANCH  21  22
ENDBRANCH   5  21
TORSDOF 5
ENDMDL
