MODEL 1
REMARK VINA RESULT:      -8.3      0.000      0.000
REMARK  Name = 
REMARK  3 active torsions:
REMARK  status: ('A' for Active; 'I' for Inactive)
REMARK    1  A    between atoms: C_1  and  N_2
REMARK    2  A    between atoms: C_5  and  N_6
REMARK    3  A    between atoms: C_16  and  C_17
REMARK                            x       y       z     vdW  Elec       q    Type
REMARK                         _______ _______ _______ _____ _____    ______ ____
ROOT
ATOM      1  C   UNL     1       2.917   7.136  19.028  0.00  0.00    +0.000 C 
ATOM      2  N   UNL     1       3.279   5.767  18.574  0.00  0.00    +0.000 N 
ATOM      3  C   UNL     1       4.187   5.565  17.546  0.00  0.00    +0.000 A 
ATOM      4  C   UNL     1       4.507   4.235  17.110  0.00  0.00    +0.000 A 
ATOM      5  C   UNL     1       3.911   3.116  17.780  0.00  0.00    +0.000 A 
ATOM      6  C   UNL     1       2.973   3.361  18.819  0.00  0.00    +0.000 A 
ATOM      7  C   UNL     1       2.303   2.296  19.492  0.00  0.00    +0.000 A 
ATOM      8  C   UNL     1       1.366   2.538  20.489  0.00  0.00    +0.000 A 
ATOM      9  C   UNL     1       1.071   3.834  20.862  0.00  0.00    +0.000 A 
ATOM     10  C   UNL     1       1.709   4.898  20.238  0.00  0.00    +0.000 A 
ATOM     11  C   UNL     1       2.667   4.696  19.201  0.00  0.00    +0.000 A 
ATOM     12  C   UNL     1       5.366   4.078  15.872  0.00  0.00    +0.000 C 
ATOM     13  O   UNL     1       5.531   2.994  15.347  0.00  0.00    +0.000 OA
ATOM     14  C   UNL     1       5.883   5.274  15.171  0.00  0.00    +0.000 C 
ATOM     15  C   UNL     1       6.181   5.307  13.848  0.00  0.00    +0.000 C 
ATOM     16  C   UNL     1       6.067   6.472  16.031  0.00  0.00    +0.000 C 
ATOM     17  C   UNL     1       4.804   6.776  16.821  0.00  0.00    +0.000 C 
ENDROOT
BRANCH  15  18
ATOM     18  C   UNL     1       5.994   4.150  12.945  0.00  0.00    +0.000 A 
ATOM     19  C   UNL     1       4.707   3.773  12.526  0.00  0.00    +0.000 A 
ATOM     20  C   UNL     1       4.542   2.694  11.650  0.00  0.00    +0.000 A 
ATOM     21  C   UNL     1       5.658   1.990  11.188  0.00  0.00    +0.000 A 
ATOM     22  C   UNL     1       6.941   2.362  11.600  0.00  0.00    +0.000 A 
ATOM     23  F   UNL     1       8.023   1.683  11.145  0.00  0.00    +0.000 F 
ATOM     24  C   UNL     1       7.110   3.439  12.479  0.00  0.00    +0.000 A 
ENDBRANCH  15  18
BRANCH   5  25
ATOM     25  N   UNL     1       4.223   1.760  17.411  0.00  0.00    +0.000 N 
ATOM     26  H   UNL     1       4.814   1.126  17.950  0.00  0.00    +0.000 HD
ATOM     27  H   UNL     1       3.799   1.271  16.623  0.00  0.00    +0.000 HD
ENDBRANCH   5  25
TORSDOF 2
ENDMDL
MODEL 2
REMARK VINA RESULT:      -8.2      5.561      7.936
REMARK  Name = 
REMARK  3 active torsions:
REMARK  status: ('A' for Active; 'I' for Inactive)
REMARK    1  A    between atoms: C_1  and  N_2
REMARK    2  A    between atoms: C_5  and  N_6
REMARK    3  A    between atoms: C_16  and  C_17
REMARK                            x       y       z     vdW  Elec       q    Type
REMARK                         _______ _______ _______ _____ _____    ______ ____
ROOT
ATOM      1  C   UNL     1      -0.712  11.696  18.166  0.00  0.00    +0.000 C 
ATOM      2  N   UNL     1      -0.266  10.889  19.333  0.00  0.00    +0.000 N 
ATOM      3  C   UNL     1       0.617   9.830  19.182  0.00  0.00    +0.000 A 
ATOM      4  C   UNL     1       1.019   9.052  20.319  0.00  0.00    +0.000 A 
ATOM      5  C   UNL     1       0.533   9.411  21.620  0.00  0.00    +0.000 A 
ATOM      6  C   UNL     1      -0.382  10.492  21.735  0.00  0.00    +0.000 A 
ATOM      7  C   UNL     1      -0.946  10.868  22.991  0.00  0.00    +0.000 A 
ATOM      8  C   UNL     1      -1.861  11.907  23.096  0.00  0.00    +0.000 A 
ATOM      9  C   UNL     1      -2.238  12.615  21.973  0.00  0.00    +0.000 A 
ATOM     10  C   UNL     1      -1.704  12.286  20.735  0.00  0.00    +0.000 A 
ATOM     11  C   UNL     1      -0.772  11.219  20.577  0.00  0.00    +0.000 A 
ATOM     12  C   UNL     1       1.842   7.804  20.075  0.00  0.00    +0.000 C 
ATOM     13  O   UNL     1       2.068   7.008  20.965  0.00  0.00    +0.000 OA
ATOM     14  C   UNL     1       2.242   7.437  18.698  0.00  0.00    +0.000 C 
ATOM     15  C   UNL     1       2.488   6.166  18.293  0.00  0.00    +0.000 C 
ATOM     16  C   UNL     1       2.367   8.581  17.758  0.00  0.00    +0.000 C 
ATOM     17  C   UNL     1       1.115   9.443  17.777  0.00  0.00    +0.000 C 
ENDROOT
BRANCH  15  18
ATOM     18  C   UNL     1       2.355   4.991  19.183  0.00  0.00    +0.000 A 
ATOM     19  C   UNL     1       1.093   4.589  19.650  0.00  0.00    +0.000 A 
ATOM     20  C   UNL     1       0.974   3.461  20.469  0.00  0.00    +0.000 A 
ATOM     21  C   UNL     1       2.111   2.730  20.823  0.00  0.00    +0.000 A 
ATOM     22  C   UNL     1       3.370   3.124  20.360  0.00  0.00    +0.000 A 
ATOM     23  F   UNL     1       4.471   2.409  20.699  0.00  0.00    +0.000 F 
ATOM     24  C   UNL     1       3.493   4.254  19.543  0.00  0.00    +0.000 A 
ENDBRANCH  15  18
BRANCH   5  25
ATOM     25  N   UNL     1       0.932   8.690  22.801  0.00  0.00    +0.000 N 
ATOM     26  H   UNL     1       1.889   8.616  23.148  0.00  0.00    +0.000 HD
ATOM     27  H   UNL     1       0.278   8.268  23.461  0.00  0.00    +0.000 HD
ENDBRANCH   5  25
TORSDOF 2
ENDMDL
MODEL 3
REMARK VINA RESULT:      -8.1      0.974      1.371
REMARK  Name = 
REMARK  3 active torsions:
REMARK  status: ('A' for Active; 'I' for Inactive)
REMARK    1  A    between atoms: C_1  and  N_2
REMARK    2  A    between atoms: C_5  and  N_6
REMARK    3  A    between atoms: C_16  and  C_17
REMARK                            x       y       z     vdW  Elec       q    Type
REMARK                         _______ _______ _______ _____ _____    ______ ____
ROOT
ATOM      1  C   UNL     1       3.139   7.031  19.191  0.00  0.00    +0.000 C 
ATOM      2  N   UNL     1       3.440   5.667  18.679  0.00  0.00    +0.000 N 
ATOM      3  C   UNL     1       4.343   5.467  17.645  0.00  0.00    +0.000 A 
ATOM      4  C   UNL     1       4.603   4.145  17.154  0.00  0.00    +0.000 A 
ATOM      5  C   UNL     1       3.954   3.026  17.774  0.00  0.00    +0.000 A 
ATOM      6  C   UNL     1       3.024   3.269  18.821  0.00  0.00    +0.000 A 
ATOM      7  C   UNL     1       2.304   2.208  19.446  0.00  0.00    +0.000 A 
ATOM      8  C   UNL     1       1.375   2.450  20.450  0.00  0.00    +0.000 A 
ATOM      9  C   UNL     1       1.138   3.741  20.877  0.00  0.00    +0.000 A 
ATOM     10  C   UNL     1       1.826   4.800  20.301  0.00  0.00    +0.000 A 
ATOM     11  C   UNL     1       2.778   4.599  19.258  0.00  0.00    +0.000 A 
ATOM     12  C   UNL     1       5.460   4.001  15.912  0.00  0.00    +0.000 C 
ATOM     13  O   UNL     1       5.578   2.934  15.342  0.00  0.00    +0.000 OA
ATOM     14  C   UNL     1       6.034   5.202  15.264  0.00  0.00    +0.000 C 
ATOM     15  C   UNL     1       6.338   5.277  13.944  0.00  0.00    +0.000 C 
ATOM     16  C   UNL     1       6.268   6.352  16.174  0.00  0.00    +0.000 C 
ATOM     17  C   UNL     1       5.017   6.679  16.974  0.00  0.00    +0.000 C 
ENDROOT
BRANCH  15  18
ATOM     18  C   UNL     1       6.102   4.169  12.992  0.00  0.00    +0.000 A 
ATOM     19  C   UNL     1       7.156   3.326  12.604  0.00  0.00    +0.000 A 
ATOM     20  C   UNL     1       6.918   2.264  11.724  0.00  0.00    +0.000 A 
ATOM     21  C   UNL     1       5.631   2.038  11.230  0.00  0.00    +0.000 A 
ATOM     22  C   UNL     1       4.577   2.874  11.615  0.00  0.00    +0.000 A 
ATOM     23  F   UNL     1       3.327   2.648  11.141  0.00  0.00    +0.000 F 
ATOM     24  C   UNL     1       4.812   3.938  12.492  0.00  0.00    +0.000 A 
ENDBRANCH  15  18
BRANCH   5  25
ATOM     25  N   UNL     1       4.207   1.675  17.348  0.00  0.00    +0.000 N 
ATOM     26  H   UNL     1       4.631   0.946  17.924  0.00  0.00    +0.000 HD
ATOM     27  H   UNL     1       3.889   1.288  16.459  0.00  0.00    +0.000 HD
ENDBRANCH   5  25
TORSDOF 2
ENDMDL
MODEL 4
REMARK VINA RESULT:      -8.0      5.504      7.830
REMARK  Name = 
REMARK  3 active torsions:
REMARK  status: ('A' for Active; 'I' for Inactive)
REMARK    1  A    between atoms: C_1  and  N_2
REMARK    2  A    between atoms: C_5  and  N_6
REMARK    3  A    between atoms: C_16  and  C_17
REMARK                            x       y       z     vdW  Elec       q    Type
REMARK                         _______ _______ _______ _____ _____    ______ ____
ROOT
ATOM      1  C   UNL     1      -0.916  11.780  18.295  0.00  0.00    +0.000 C 
ATOM      2  N   UNL     1      -0.367  10.921  19.378  0.00  0.00    +0.000 N 
ATOM      3  C   UNL     1       0.573   9.937  19.111  0.00  0.00    +0.000 A 
ATOM      4  C   UNL     1       1.075   9.106  20.168  0.00  0.00    +0.000 A 
ATOM      5  C   UNL     1       0.628   9.335  21.511  0.00  0.00    +0.000 A 
ATOM      6  C   UNL     1      -0.347  10.341  21.746  0.00  0.00    +0.000 A 
ATOM      7  C   UNL     1      -0.876  10.586  23.049  0.00  0.00    +0.000 A 
ATOM      8  C   UNL     1      -1.849  11.551  23.271  0.00  0.00    +0.000 A 
ATOM      9  C   UNL     1      -2.321  12.313  22.222  0.00  0.00    +0.000 A 
ATOM     10  C   UNL     1      -1.825  12.113  20.940  0.00  0.00    +0.000 A 
ATOM     11  C   UNL     1      -0.835  11.124  20.664  0.00  0.00    +0.000 A 
ATOM     12  C   UNL     1       1.964   7.936  19.795  0.00  0.00    +0.000 C 
ATOM     13  O   UNL     1       2.280   7.094  20.612  0.00  0.00    +0.000 OA
ATOM     14  C   UNL     1       2.323   7.700  18.379  0.00  0.00    +0.000 C 
ATOM     15  C   UNL     1       2.629   6.481  17.869  0.00  0.00    +0.000 C 
ATOM     16  C   UNL     1       2.332   8.915  17.525  0.00  0.00    +0.000 C 
ATOM     17  C   UNL     1       1.029   9.688  17.661  0.00  0.00    +0.000 C 
ENDROOT
BRANCH  15  18
ATOM     18  C   UNL     1       2.612   5.237  18.671  0.00  0.00    +0.000 A 
ATOM     19  C   UNL     1       3.772   4.798  19.330  0.00  0.00    +0.000 A 
ATOM     20  C   UNL     1       3.739   3.635  20.109  0.00  0.00    +0.000 A 
ATOM     21  C   UNL     1       2.551   2.910  20.234  0.00  0.00    +0.000 A 
ATOM     22  C   UNL     1       1.392   3.344  19.582  0.00  0.00    +0.000 A 
ATOM     23  F   UNL     1       0.239   2.643  19.711  0.00  0.00    +0.000 F 
ATOM     24  C   UNL     1       1.423   4.504  18.800  0.00  0.00    +0.000 A 
ENDBRANCH  15  18
BRANCH   5  25
ATOM     25  N   UNL     1       1.125   8.557  22.616  0.00  0.00    +0.000 N 
ATOM     26  H   UNL     1       0.840   7.602  22.838  0.00  0.00    +0.000 HD
ATOM     27  H   UNL     1       1.890   8.852  23.223  0.00  0.00    +0.000 HD
ENDBRANCH   5  25
TORSDOF 2
ENDMDL
MODEL 5
REMARK VINA RESULT:      -7.5      4.118      6.934
REMARK  Name = 
REMARK  3 active torsions:
REMARK  status: ('A' for Active; 'I' for Inactive)
REMARK    1  A    between atoms: C_1  and  N_2
REMARK    2  A    between atoms: C_5  and  N_6
REMARK    3  A    between atoms: C_16  and  C_17
REMARK                            x       y       z     vdW  Elec       q    Type
REMARK                         _______ _______ _______ _____ _____    ______ ____
ROOT
ATOM      1  C   UNL     1       0.145   9.233  22.810  0.00  0.00    +0.000 C 
ATOM      2  N   UNL     1       0.654   9.402  21.422  0.00  0.00    +0.000 N 
ATOM      3  C   UNL     1       1.196   8.338  20.718  0.00  0.00    +0.000 A 
ATOM      4  C   UNL     1       1.698   8.528  19.387  0.00  0.00    +0.000 A 
ATOM      5  C   UNL     1       1.592   9.822  18.777  0.00  0.00    +0.000 A 
ATOM      6  C   UNL     1       1.045  10.893  19.533  0.00  0.00    +0.000 A 
ATOM      7  C   UNL     1       0.959  12.216  19.007  0.00  0.00    +0.000 A 
ATOM      8  C   UNL     1       0.449  13.268  19.759  0.00  0.00    +0.000 A 
ATOM      9  C   UNL     1      -0.003  13.045  21.044  0.00  0.00    +0.000 A 
ATOM     10  C   UNL     1       0.055  11.769  21.588  0.00  0.00    +0.000 A 
ATOM     11  C   UNL     1       0.583  10.663  20.858  0.00  0.00    +0.000 A 
ATOM     12  C   UNL     1       2.437   7.379  18.733  0.00  0.00    +0.000 C 
ATOM     13  O   UNL     1       3.037   7.523  17.686  0.00  0.00    +0.000 OA
ATOM     14  C   UNL     1       2.590   6.092  19.448  0.00  0.00    +0.000 C 
ATOM     15  C   UNL     1       3.612   5.226  19.238  0.00  0.00    +0.000 C 
ATOM     16  C   UNL     1       1.520   5.795  20.435  0.00  0.00    +0.000 C 
ATOM     17  C   UNL     1       1.323   6.959  21.393  0.00  0.00    +0.000 C 
ENDROOT
BRANCH  15  18
ATOM     18  C   UNL     1       4.714   5.485  18.284  0.00  0.00    +0.000 A 
ATOM     19  C   UNL     1       4.556   5.197  16.919  0.00  0.00    +0.000 A 
ATOM     20  C   UNL     1       5.594   5.471  16.020  0.00  0.00    +0.000 A 
ATOM     21  C   UNL     1       6.788   6.034  16.478  0.00  0.00    +0.000 A 
ATOM     22  C   UNL     1       6.949   6.324  17.837  0.00  0.00    +0.000 A 
ATOM     23  F   UNL     1       8.105   6.877  18.279  0.00  0.00    +0.000 F 
ATOM     24  C   UNL     1       5.915   6.049  18.739  0.00  0.00    +0.000 A 
ENDBRANCH  15  18
BRANCH   5  25
ATOM     25  N   UNL     1       2.045  10.061  17.431  0.00  0.00    +0.000 N 
ATOM     26  H   UNL     1       2.769  10.731  17.166  0.00  0.00    +0.000 HD
ATOM     27  H   UNL     1       1.757   9.508  16.624  0.00  0.00    +0.000 HD
ENDBRANCH   5  25
TORSDOF 2
ENDMDL
MODEL 6
REMARK VINA RESULT:      -7.4      3.937      6.867
REMARK  Name = 
REMARK  3 active torsions:
REMARK  status: ('A' for Active; 'I' for Inactive)
REMARK    1  A    between atoms: C_1  and  N_2
REMARK    2  A    between atoms: C_5  and  N_6
REMARK    3  A    between atoms: C_16  and  C_17
REMARK                            x       y       z     vdW  Elec       q    Type
REMARK                         _______ _______ _______ _____ _____    ______ ____
ROOT
ATOM      1  C   UNL     1       0.181   9.299  22.835  0.00  0.00    +0.000 C 
ATOM      2  N   UNL     1       0.663   9.481  21.440  0.00  0.00    +0.000 N 
ATOM      3  C   UNL     1       1.201   8.426  20.719  0.00  0.00    +0.000 A 
ATOM      4  C   UNL     1       1.678   8.629  19.380  0.00  0.00    +0.000 A 
ATOM      5  C   UNL     1       1.550   9.925  18.780  0.00  0.00    +0.000 A 
ATOM      6  C   UNL     1       1.008  10.987  19.553  0.00  0.00    +0.000 A 
ATOM      7  C   UNL     1       0.901  12.313  19.038  0.00  0.00    +0.000 A 
ATOM      8  C   UNL     1       0.397  13.355  19.805  0.00  0.00    +0.000 A 
ATOM      9  C   UNL     1      -0.029  13.121  21.096  0.00  0.00    +0.000 A 
ATOM     10  C   UNL     1       0.048  11.842  21.631  0.00  0.00    +0.000 A 
ATOM     11  C   UNL     1       0.572  10.746  20.885  0.00  0.00    +0.000 A 
ATOM     12  C   UNL     1       2.413   7.489  18.705  0.00  0.00    +0.000 C 
ATOM     13  O   UNL     1       2.993   7.646  17.649  0.00  0.00    +0.000 OA
ATOM     14  C   UNL     1       2.589   6.199  19.409  0.00  0.00    +0.000 C 
ATOM     15  C   UNL     1       3.615   5.343  19.175  0.00  0.00    +0.000 C 
ATOM     16  C   UNL     1       1.541   5.888  20.414  0.00  0.00    +0.000 C 
ATOM     17  C   UNL     1       1.351   7.044  21.382  0.00  0.00    +0.000 C 
ENDROOT
BRANCH  15  18
ATOM     18  C   UNL     1       4.697   5.617  18.203  0.00  0.00    +0.000 A 
ATOM     19  C   UNL     1       5.903   6.199  18.625  0.00  0.00    +0.000 A 
ATOM     20  C   UNL     1       6.931   6.430  17.703  0.00  0.00    +0.000 A 
ATOM     21  C   UNL     1       6.759   6.080  16.361  0.00  0.00    +0.000 A 
ATOM     22  C   UNL     1       5.560   5.499  15.936  0.00  0.00    +0.000 A 
ATOM     23  F   UNL     1       5.399   5.153  14.635  0.00  0.00    +0.000 F 
ATOM     24  C   UNL     1       4.530   5.269  16.854  0.00  0.00    +0.000 A 
ENDBRANCH  15  18
BRANCH   5  25
ATOM     25  N   UNL     1       1.976  10.177  17.428  0.00  0.00    +0.000 N 
ATOM     26  H   UNL     1       1.476  10.758  16.753  0.00  0.00    +0.000 HD
ATOM     27  H   UNL     1       2.875   9.880  17.048  0.00  0.00    +0.000 HD
ENDBRANCH   5  25
TORSDOF 2
ENDMDL
MODEL 7
REMARK VINA RESULT:      -7.3      8.750     12.512
REMARK  Name = 
REMARK  3 active torsions:
REMARK  status: ('A' for Active; 'I' for Inactive)
REMARK    1  A    between atoms: C_1  and  N_2
REMARK    2  A    between atoms: C_5  and  N_6
REMARK    3  A    between atoms: C_16  and  C_17
REMARK                            x       y       z     vdW  Elec       q    Type
REMARK                         _______ _______ _______ _____ _____    ______ ____
ROOT
ATOM      1  C   UNL     1       0.834   9.116  22.756  0.00  0.00    +0.000 C 
ATOM      2  N   UNL     1       0.308   9.800  21.545  0.00  0.00    +0.000 N 
ATOM      3  C   UNL     1      -0.649  10.799  21.638  0.00  0.00    +0.000 A 
ATOM      4  C   UNL     1      -1.156  11.431  20.454  0.00  0.00    +0.000 A 
ATOM      5  C   UNL     1      -0.629  11.051  19.176  0.00  0.00    +0.000 A 
ATOM      6  C   UNL     1       0.340  10.013  19.116  0.00  0.00    +0.000 A 
ATOM      7  C   UNL     1       0.868   9.549  17.874  0.00  0.00    +0.000 A 
ATOM      8  C   UNL     1       1.794   8.515  17.817  0.00  0.00    +0.000 A 
ATOM      9  C   UNL     1       2.239   7.918  18.979  0.00  0.00    +0.000 A 
ATOM     10  C   UNL     1       1.757   8.349  20.208  0.00  0.00    +0.000 A 
ATOM     11  C   UNL     1       0.795   9.397  20.314  0.00  0.00    +0.000 A 
ATOM     12  C   UNL     1      -2.323  12.387  20.600  0.00  0.00    +0.000 C 
ATOM     13  O   UNL     1      -2.913  12.821  19.631  0.00  0.00    +0.000 OA
ATOM     14  C   UNL     1      -2.882  12.676  21.940  0.00  0.00    +0.000 C 
ATOM     15  C   UNL     1      -4.167  13.049  22.160  0.00  0.00    +0.000 C 
ATOM     16  C   UNL     1      -1.920  12.533  23.063  0.00  0.00    +0.000 C 
ATOM     17  C   UNL     1      -1.222  11.183  23.015  0.00  0.00    +0.000 C 
ENDROOT
BRANCH  15  18
ATOM     18  C   UNL     1      -5.170  13.183  21.080  0.00  0.00    +0.000 A 
ATOM     19  C   UNL     1      -5.382  14.422  20.454  0.00  0.00    +0.000 A 
ATOM     20  C   UNL     1      -6.313  14.533  19.414  0.00  0.00    +0.000 A 
ATOM     21  C   UNL     1      -7.033  13.410  18.996  0.00  0.00    +0.000 A 
ATOM     22  C   UNL     1      -6.824  12.173  19.615  0.00  0.00    +0.000 A 
ATOM     23  F   UNL     1      -7.518  11.084  19.202  0.00  0.00    +0.000 F 
ATOM     24  C   UNL     1      -5.896  12.060  20.656  0.00  0.00    +0.000 A 
ENDBRANCH  15  18
BRANCH   5  25
ATOM     25  N   UNL     1      -1.074  11.678  17.958  0.00  0.00    +0.000 N 
ATOM     26  H   UNL     1      -0.886  12.646  17.694  0.00  0.00    +0.000 HD
ATOM     27  H   UNL     1      -1.532  11.181  17.194  0.00  0.00    +0.000 HD
ENDBRANCH   5  25
TORSDOF 2
ENDMDL
MODEL 8
REMARK VINA RESULT:      -7.3      3.496      6.325
REMARK  Name = 
REMARK  3 active torsions:
REMARK  status: ('A' for Active; 'I' for Inactive)
REMARK    1  A    between atoms: C_1  and  N_2
REMARK    2  A    between atoms: C_5  and  N_6
REMARK    3  A    between atoms: C_16  and  C_17
REMARK                            x       y       z     vdW  Elec       q    Type
REMARK                         _______ _______ _______ _____ _____    ______ ____
ROOT
ATOM      1  C   UNL     1       0.089   8.546  22.387  0.00  0.00    +0.000 C 
ATOM      2  N   UNL     1       0.749   8.657  21.058  0.00  0.00    +0.000 N 
ATOM      3  C   UNL     1       1.363   7.565  20.464  0.00  0.00    +0.000 A 
ATOM      4  C   UNL     1       2.011   7.700  19.191  0.00  0.00    +0.000 A 
ATOM      5  C   UNL     1       1.976   8.966  18.518  0.00  0.00    +0.000 A 
ATOM      6  C   UNL     1       1.351  10.067  19.162  0.00  0.00    +0.000 A 
ATOM      7  C   UNL     1       1.326  11.366  18.574  0.00  0.00    +0.000 A 
ATOM      8  C   UNL     1       0.739  12.447  19.219  0.00  0.00    +0.000 A 
ATOM      9  C   UNL     1       0.147  12.279  20.454  0.00  0.00    +0.000 A 
ATOM     10  C   UNL     1       0.141  11.027  21.055  0.00  0.00    +0.000 A 
ATOM     11  C   UNL     1       0.744   9.893  20.436  0.00  0.00    +0.000 A 
ATOM     12  C   UNL     1       2.815   6.525  18.672  0.00  0.00    +0.000 C 
ATOM     13  O   UNL     1       3.528   6.626  17.693  0.00  0.00    +0.000 OA
ATOM     14  C   UNL     1       2.884   5.270  19.454  0.00  0.00    +0.000 C 
ATOM     15  C   UNL     1       3.922   4.398  19.397  0.00  0.00    +0.000 C 
ATOM     16  C   UNL     1       1.711   5.013  20.328  0.00  0.00    +0.000 C 
ATOM     17  C   UNL     1       1.411   6.217  21.208  0.00  0.00    +0.000 C 
ENDROOT
BRANCH  15  18
ATOM     18  C   UNL     1       5.123   4.620  18.560  0.00  0.00    +0.000 A 
ATOM     19  C   UNL     1       6.226   5.325  19.069  0.00  0.00    +0.000 A 
ATOM     20  C   UNL     1       7.368   5.505  18.280  0.00  0.00    +0.000 A 
ATOM     21  C   UNL     1       7.414   4.983  16.985  0.00  0.00    +0.000 A 
ATOM     22  C   UNL     1       6.319   4.279  16.474  0.00  0.00    +0.000 A 
ATOM     23  F   UNL     1       6.369   3.767  15.220  0.00  0.00    +0.000 F 
ATOM     24  C   UNL     1       5.175   4.099  17.259  0.00  0.00    +0.000 A 
ENDBRANCH  15  18
BRANCH   5  25
ATOM     25  N   UNL     1       2.576   9.149  17.222  0.00  0.00    +0.000 N 
ATOM     26  H   UNL     1       3.566   9.332  17.054  0.00  0.00    +0.000 HD
ATOM     27  H   UNL     1       2.083   9.009  16.339  0.00  0.00    +0.000 HD
ENDBRANCH   5  25
TORSDOF 2
ENDMDL
MODEL 9
REMARK VINA RESULT:      -7.2      8.965     12.629
REMARK  Name = 
REMARK  3 active torsions:
REMARK  status: ('A' for Active; 'I' for Inactive)
REMARK    1  A    between atoms: C_1  and  N_2
REMARK    2  A    between atoms: C_5  and  N_6
REMARK    3  A    between atoms: C_16  and  C_17
REMARK                            x       y       z     vdW  Elec       q    Type
REMARK                         _______ _______ _______ _____ _____    ______ ____
ROOT
ATOM      1  C   UNL     1       0.739   9.256  22.730  0.00  0.00    +0.000 C 
ATOM      2  N   UNL     1       0.203   9.877  21.489  0.00  0.00    +0.000 N 
ATOM      3  C   UNL     1      -0.792  10.842  21.537  0.00  0.00    +0.000 A 
ATOM      4  C   UNL     1      -1.309  11.413  20.326  0.00  0.00    +0.000 A 
ATOM      5  C   UNL     1      -0.753  11.008  19.068  0.00  0.00    +0.000 A 
ATOM      6  C   UNL     1       0.254  10.006  19.055  0.00  0.00    +0.000 A 
ATOM      7  C   UNL     1       0.813   9.518  17.836  0.00  0.00    +0.000 A 
ATOM      8  C   UNL     1       1.777   8.519  17.825  0.00  0.00    +0.000 A 
ATOM      9  C   UNL     1       2.230   7.980  19.012  0.00  0.00    +0.000 A 
ATOM     10  C   UNL     1       1.719   8.435  20.220  0.00  0.00    +0.000 A 
ATOM     11  C   UNL     1       0.718   9.449  20.278  0.00  0.00    +0.000 A 
ATOM     12  C   UNL     1      -2.511  12.330  20.427  0.00  0.00    +0.000 C 
ATOM     13  O   UNL     1      -3.106  12.707  19.437  0.00  0.00    +0.000 OA
ATOM     14  C   UNL     1      -3.096  12.644  21.750  0.00  0.00    +0.000 C 
ATOM     15  C   UNL     1      -4.397  12.976  21.943  0.00  0.00    +0.000 C 
ATOM     16  C   UNL     1      -2.142  12.576  22.886  0.00  0.00    +0.000 C 
ATOM     17  C   UNL     1      -1.394  11.252  22.894  0.00  0.00    +0.000 C 
ENDROOT
BRANCH  15  18
ATOM     18  C   UNL     1      -5.391  13.035  20.849  0.00  0.00    +0.000 A 
ATOM     19  C   UNL     1      -6.091  11.881  20.459  0.00  0.00    +0.000 A 
ATOM     20  C   UNL     1      -7.049  11.952  19.441  0.00  0.00    +0.000 A 
ATOM     21  C   UNL     1      -7.313  13.171  18.812  0.00  0.00    +0.000 A 
ATOM     22  C   UNL     1      -6.621  14.323  19.197  0.00  0.00    +0.000 A 
ATOM     23  F   UNL     1      -6.884  15.506  18.590  0.00  0.00    +0.000 F 
ATOM     24  C   UNL     1      -5.660  14.256  20.212  0.00  0.00    +0.000 A 
ENDBRANCH  15  18
BRANCH   5  25
ATOM     25  N   UNL     1      -1.206  11.575  17.824  0.00  0.00    +0.000 N 
ATOM     26  H   UNL     1      -2.182  11.641  17.531  0.00  0.00    +0.000 HD
ATOM     27  H   UNL     1      -0.599  12.060  17.163  0.00  0.00    +0.000 HD
ENDBRANCH   5  25
TORSDOF 2
ENDMDL
