MODEL 1
REMARK VINA RESULT:      -7.4      0.000      0.000
REMARK  Name = 
REMARK  3 active torsions:
REMARK  status: ('A' for Active; 'I' for Inactive)
REMARK    1  A    between atoms: C_1  and  O_2
REMARK    2  A    between atoms: O_2  and  C_3
REMARK    3  A    between atoms: C_6  and  C_7
REMARK                            x       y       z     vdW  Elec       q    Type
REMARK                         _______ _______ _______ _____ _____    ______ ____
ROOT
ATOM      1  C   UNL     1       3.283   6.531  18.097  0.00  0.00    +0.000 C 
ATOM      2  C   UNL     1       2.872   5.261  17.998  0.00  0.00    +0.000 C 
ATOM      3  C   UNL     1       3.744   4.254  17.400  0.00  0.00    +0.000 C 
ATOM      4  O   UNL     1       3.342   3.115  17.204  0.00  0.00    +0.000 OA
ATOM      5  O   UNL     1       4.971   4.670  17.035  0.00  0.00    +0.000 OA
ATOM      6  C   UNL     1       5.479   5.827  17.698  0.00  0.00    +0.000 C 
ATOM      7  C   UNL     1       6.721   6.303  16.924  0.00  0.00    +0.000 C 
ATOM      8  C   UNL     1       7.715   6.714  18.000  0.00  0.00    +0.000 C 
ATOM      9  C   UNL     1       7.508   5.659  19.069  0.00  0.00    +0.000 C 
ATOM     10  C   UNL     1       5.997   5.465  19.111  0.00  0.00    +0.000 C 
ATOM     11  O   UNL     1       4.563   6.923  17.774  0.00  0.00    +0.000 OA
ENDROOT
BRANCH   1  15
ATOM     12  C   UNL     1       0.757   9.699  19.567  0.00  0.00    +0.000 A 
ATOM     13  C   UNL     1       1.160   8.663  20.409  0.00  0.00    +0.000 A 
ATOM     14  C   UNL     1       1.986   7.638  19.931  0.00  0.00    +0.000 A 
ATOM     15  C   UNL     1       2.405   7.615  18.593  0.00  0.00    +0.000 A 
ATOM     16  C   UNL     1       1.985   8.662  17.758  0.00  0.00    +0.000 A 
ATOM     17  C   UNL     1       1.162   9.689  18.236  0.00  0.00    +0.000 A 
BRANCH  12  19
ATOM     18  C   UNL     1       0.172  10.889  21.521  0.00  0.00    +0.000 C 
ATOM     19  O   UNL     1      -0.052  10.643  20.137  0.00  0.00    +0.000 OA
ENDBRANCH  12  19
ENDBRANCH   1  15
TORSDOF 2
ENDMDL
MODEL 2
REMARK VINA RESULT:      -7.4      2.123      3.711
REMARK  Name = 
REMARK  3 active torsions:
REMARK  status: ('A' for Active; 'I' for Inactive)
REMARK    1  A    between atoms: C_1  and  O_2
REMARK    2  A    between atoms: O_2  and  C_3
REMARK    3  A    between atoms: C_6  and  C_7
REMARK                            x       y       z     vdW  Elec       q    Type
REMARK                         _______ _______ _______ _____ _____    ______ ____
ROOT
ATOM      1  C   UNL     1       2.955   6.378  19.072  0.00  0.00    +0.000 C 
ATOM      2  C   UNL     1       3.963   6.070  18.247  0.00  0.00    +0.000 C 
ATOM      3  C   UNL     1       4.656   4.793  18.382  0.00  0.00    +0.000 C 
ATOM      4  O   UNL     1       5.646   4.544  17.708  0.00  0.00    +0.000 OA
ATOM      5  O   UNL     1       4.178   3.951  19.318  0.00  0.00    +0.000 OA
ATOM      6  C   UNL     1       2.814   4.127  19.700  0.00  0.00    +0.000 C 
ATOM      7  C   UNL     1       2.574   3.297  20.974  0.00  0.00    +0.000 C 
ATOM      8  C   UNL     1       1.198   2.679  20.780  0.00  0.00    +0.000 C 
ATOM      9  C   UNL     1       1.191   2.329  19.305  0.00  0.00    +0.000 C 
ATOM     10  C   UNL     1       1.865   3.521  18.638  0.00  0.00    +0.000 C 
ATOM     11  O   UNL     1       2.441   5.479  19.982  0.00  0.00    +0.000 OA
ENDROOT
BRANCH   1  15
ATOM     12  C   UNL     1       0.982  10.209  18.993  0.00  0.00    +0.000 A 
ATOM     13  C   UNL     1       1.655   9.733  17.868  0.00  0.00    +0.000 A 
ATOM     14  C   UNL     1       2.290   8.485  17.894  0.00  0.00    +0.000 A 
ATOM     15  C   UNL     1       2.286   7.697  19.055  0.00  0.00    +0.000 A 
ATOM     16  C   UNL     1       1.609   8.195  20.179  0.00  0.00    +0.000 A 
ATOM     17  C   UNL     1       0.971   9.440  20.154  0.00  0.00    +0.000 A 
BRANCH  12  19
ATOM     18  C   UNL     1      -1.010  11.437  18.670  0.00  0.00    +0.000 C 
ATOM     19  O   UNL     1       0.402  11.440  18.858  0.00  0.00    +0.000 OA
ENDBRANCH  12  19
ENDBRANCH   1  15
TORSDOF 2
ENDMDL
MODEL 3
REMARK VINA RESULT:      -7.4      1.154      1.649
REMARK  Name = 
REMARK  3 active torsions:
REMARK  status: ('A' for Active; 'I' for Inactive)
REMARK    1  A    between atoms: C_1  and  O_2
REMARK    2  A    between atoms: O_2  and  C_3
REMARK    3  A    between atoms: C_6  and  C_7
REMARK                            x       y       z     vdW  Elec       q    Type
REMARK                         _______ _______ _______ _____ _____    ______ ____
ROOT
ATOM      1  C   UNL     1       3.002   5.793  17.977  0.00  0.00    +0.000 C 
ATOM      2  C   UNL     1       2.527   4.562  18.198  0.00  0.00    +0.000 C 
ATOM      3  C   UNL     1       3.078   3.423  17.470  0.00  0.00    +0.000 C 
ATOM      4  O   UNL     1       2.582   2.310  17.582  0.00  0.00    +0.000 OA
ATOM      5  O   UNL     1       4.108   3.686  16.644  0.00  0.00    +0.000 OA
ATOM      6  C   UNL     1       4.872   4.857  16.925  0.00  0.00    +0.000 C 
ATOM      7  C   UNL     1       5.770   5.134  15.707  0.00  0.00    +0.000 C 
ATOM      8  C   UNL     1       7.103   5.569  16.298  0.00  0.00    +0.000 C 
ATOM      9  C   UNL     1       7.249   4.658  17.501  0.00  0.00    +0.000 C 
ATOM     10  C   UNL     1       5.849   4.605  18.098  0.00  0.00    +0.000 C 
ATOM     11  O   UNL     1       4.095   6.033  17.174  0.00  0.00    +0.000 OA
ENDROOT
BRANCH   1  15
ATOM     12  C   UNL     1       1.253   9.299  19.775  0.00  0.00    +0.000 A 
ATOM     13  C   UNL     1       1.578   9.282  18.419  0.00  0.00    +0.000 A 
ATOM     14  C   UNL     1       2.140   8.140  17.836  0.00  0.00    +0.000 A 
ATOM     15  C   UNL     1       2.413   6.998  18.602  0.00  0.00    +0.000 A 
ATOM     16  C   UNL     1       2.085   7.034  19.967  0.00  0.00    +0.000 A 
ATOM     17  C   UNL     1       1.520   8.174  20.551  0.00  0.00    +0.000 A 
BRANCH  12  19
ATOM     18  C   UNL     1      -0.681  10.633  20.009  0.00  0.00    +0.000 C 
ATOM     19  O   UNL     1       0.714  10.466  20.241  0.00  0.00    +0.000 OA
ENDBRANCH  12  19
ENDBRANCH   1  15
TORSDOF 2
ENDMDL
MODEL 4
REMARK VINA RESULT:      -7.4      1.609      2.859
REMARK  Name = 
REMARK  3 active torsions:
REMARK  status: ('A' for Active; 'I' for Inactive)
REMARK    1  A    between atoms: C_1  and  O_2
REMARK    2  A    between atoms: O_2  and  C_3
REMARK    3  A    between atoms: C_6  and  C_7
REMARK                            x       y       z     vdW  Elec       q    Type
REMARK                         _______ _______ _______ _____ _____    ______ ____
ROOT
ATOM      1  C   UNL     1       3.480   6.581  18.121  0.00  0.00    +0.000 C 
ATOM      2  C   UNL     1       4.246   6.743  17.036  0.00  0.00    +0.000 C 
ATOM      3  C   UNL     1       5.233   5.729  16.677  0.00  0.00    +0.000 C 
ATOM      4  O   UNL     1       6.013   5.914  15.753  0.00  0.00    +0.000 OA
ATOM      5  O   UNL     1       5.263   4.628  17.451  0.00  0.00    +0.000 OA
ATOM      6  C   UNL     1       4.069   4.316  18.168  0.00  0.00    +0.000 C 
ATOM      7  C   UNL     1       4.416   3.235  19.207  0.00  0.00    +0.000 C 
ATOM      8  C   UNL     1       3.231   2.281  19.184  0.00  0.00    +0.000 C 
ATOM      9  C   UNL     1       2.879   2.219  17.711  0.00  0.00    +0.000 C 
ATOM     10  C   UNL     1       3.025   3.659  17.234  0.00  0.00    +0.000 C 
ATOM     11  O   UNL     1       3.483   5.421  18.864  0.00  0.00    +0.000 OA
ENDROOT
BRANCH   1  15
ATOM     12  C   UNL     1       0.771   9.624  19.528  0.00  0.00    +0.000 A 
ATOM     13  C   UNL     1       1.192   8.600  20.376  0.00  0.00    +0.000 A 
ATOM     14  C   UNL     1       2.077   7.616  19.919  0.00  0.00    +0.000 A 
ATOM     15  C   UNL     1       2.540   7.622  18.595  0.00  0.00    +0.000 A 
ATOM     16  C   UNL     1       2.101   8.656  17.753  0.00  0.00    +0.000 A 
ATOM     17  C   UNL     1       1.219   9.642  18.210  0.00  0.00    +0.000 A 
BRANCH  12  19
ATOM     18  C   UNL     1      -1.195  10.904  19.253  0.00  0.00    +0.000 C 
ATOM     19  O   UNL     1      -0.096  10.528  20.077  0.00  0.00    +0.000 OA
ENDBRANCH  12  19
ENDBRANCH   1  15
TORSDOF 2
ENDMDL
MODEL 5
REMARK VINA RESULT:      -7.4      1.890      3.441
REMARK  Name = 
REMARK  3 active torsions:
REMARK  status: ('A' for Active; 'I' for Inactive)
REMARK    1  A    between atoms: C_1  and  O_2
REMARK    2  A    between atoms: O_2  and  C_3
REMARK    3  A    between atoms: C_6  and  C_7
REMARK                            x       y       z     vdW  Elec       q    Type
REMARK                         _______ _______ _______ _____ _____    ______ ____
ROOT
ATOM      1  C   UNL     1       2.828   6.421  18.720  0.00  0.00    +0.000 C 
ATOM      2  C   UNL     1       3.715   6.135  17.759  0.00  0.00    +0.000 C 
ATOM      3  C   UNL     1       4.369   4.830  17.729  0.00  0.00    +0.000 C 
ATOM      4  O   UNL     1       5.259   4.594  16.924  0.00  0.00    +0.000 OA
ATOM      5  O   UNL     1       3.974   3.945  18.664  0.00  0.00    +0.000 OA
ATOM      6  C   UNL     1       2.675   4.140  19.222  0.00  0.00    +0.000 C 
ATOM      7  C   UNL     1       2.559   3.236  20.463  0.00  0.00    +0.000 C 
ATOM      8  C   UNL     1       1.145   2.677  20.404  0.00  0.00    +0.000 C 
ATOM      9  C   UNL     1       0.945   2.425  18.922  0.00  0.00    +0.000 C 
ATOM     10  C   UNL     1       1.581   3.636  18.251  0.00  0.00    +0.000 C 
ATOM     11  O   UNL     1       2.394   5.482  19.630  0.00  0.00    +0.000 OA
ENDROOT
BRANCH   1  15
ATOM     12  C   UNL     1       1.070  10.330  19.174  0.00  0.00    +0.000 A 
ATOM     13  C   UNL     1       1.022   9.404  20.215  0.00  0.00    +0.000 A 
ATOM     14  C   UNL     1       1.599   8.136  20.068  0.00  0.00    +0.000 A 
ATOM     15  C   UNL     1       2.216   7.760  18.866  0.00  0.00    +0.000 A 
ATOM     16  C   UNL     1       2.250   8.702  17.826  0.00  0.00    +0.000 A 
ATOM     17  C   UNL     1       1.676   9.971  17.973  0.00  0.00    +0.000 A 
BRANCH  12  19
ATOM     18  C   UNL     1       0.906  12.201  20.604  0.00  0.00    +0.000 C 
ATOM     19  O   UNL     1       0.472  11.533  19.424  0.00  0.00    +0.000 OA
ENDBRANCH  12  19
ENDBRANCH   1  15
TORSDOF 2
ENDMDL
MODEL 6
REMARK VINA RESULT:      -7.4      0.218      1.123
REMARK  Name = 
REMARK  3 active torsions:
REMARK  status: ('A' for Active; 'I' for Inactive)
REMARK    1  A    between atoms: C_1  and  O_2
REMARK    2  A    between atoms: O_2  and  C_3
REMARK    3  A    between atoms: C_6  and  C_7
REMARK                            x       y       z     vdW  Elec       q    Type
REMARK                         _______ _______ _______ _____ _____    ______ ____
ROOT
ATOM      1  C   UNL     1       3.177   6.581  18.100  0.00  0.00    +0.000 C 
ATOM      2  C   UNL     1       2.739   5.318  18.035  0.00  0.00    +0.000 C 
ATOM      3  C   UNL     1       3.570   4.284  17.427  0.00  0.00    +0.000 C 
ATOM      4  O   UNL     1       3.139   3.150  17.264  0.00  0.00    +0.000 OA
ATOM      5  O   UNL     1       4.794   4.668  17.017  0.00  0.00    +0.000 OA
ATOM      6  C   UNL     1       5.346   5.825  17.644  0.00  0.00    +0.000 C 
ATOM      7  C   UNL     1       6.572   6.262  16.823  0.00  0.00    +0.000 C 
ATOM      8  C   UNL     1       7.607   6.671  17.861  0.00  0.00    +0.000 C 
ATOM      9  C   UNL     1       7.413   5.638  18.954  0.00  0.00    +0.000 C 
ATOM     10  C   UNL     1       5.901   5.476  19.046  0.00  0.00    +0.000 C 
ATOM     11  O   UNL     1       4.455   6.941  17.730  0.00  0.00    +0.000 OA
ENDROOT
BRANCH   1  15
ATOM     12  C   UNL     1       0.705   9.802  19.546  0.00  0.00    +0.000 A 
ATOM     13  C   UNL     1       1.099   9.753  18.209  0.00  0.00    +0.000 A 
ATOM     14  C   UNL     1       1.898   8.703  17.740  0.00  0.00    +0.000 A 
ATOM     15  C   UNL     1       2.339   7.691  18.604  0.00  0.00    +0.000 A 
ATOM     16  C   UNL     1       1.937   7.758  19.948  0.00  0.00    +0.000 A 
ATOM     17  C   UNL     1       1.137   8.806  20.418  0.00  0.00    +0.000 A 
BRANCH  12  19
ATOM     18  C   UNL     1      -0.430  10.947  21.271  0.00  0.00    +0.000 C 
ATOM     19  O   UNL     1      -0.069  10.873  19.896  0.00  0.00    +0.000 OA
ENDBRANCH  12  19
ENDBRANCH   1  15
TORSDOF 2
ENDMDL
MODEL 7
REMARK VINA RESULT:      -7.4      1.963      3.496
REMARK  Name = 
REMARK  3 active torsions:
REMARK  status: ('A' for Active; 'I' for Inactive)
REMARK    1  A    between atoms: C_1  and  O_2
REMARK    2  A    between atoms: O_2  and  C_3
REMARK    3  A    between atoms: C_6  and  C_7
REMARK                            x       y       z     vdW  Elec       q    Type
REMARK                         _______ _______ _______ _____ _____    ______ ____
ROOT
ATOM      1  C   UNL     1       3.288   6.058  19.207  0.00  0.00    +0.000 C 
ATOM      2  C   UNL     1       4.600   6.009  18.946  0.00  0.00    +0.000 C 
ATOM      3  C   UNL     1       5.341   4.768  19.152  0.00  0.00    +0.000 C 
ATOM      4  O   UNL     1       6.557   4.737  19.021  0.00  0.00    +0.000 OA
ATOM      5  O   UNL     1       4.619   3.701  19.541  0.00  0.00    +0.000 OA
ATOM      6  C   UNL     1       3.227   3.718  19.225  0.00  0.00    +0.000 C 
ATOM      7  C   UNL     1       2.553   2.587  20.021  0.00  0.00    +0.000 C 
ATOM      8  C   UNL     1       1.546   1.980  19.054  0.00  0.00    +0.000 C 
ATOM      9  C   UNL     1       2.289   2.010  17.733  0.00  0.00    +0.000 C 
ATOM     10  C   UNL     1       2.999   3.358  17.738  0.00  0.00    +0.000 C 
ATOM     11  O   UNL     1       2.557   4.941  19.546  0.00  0.00    +0.000 OA
ENDROOT
BRANCH   1  15
ATOM     12  C   UNL     1       1.034   9.726  18.987  0.00  0.00    +0.000 A 
ATOM     13  C   UNL     1       1.074   8.986  20.169  0.00  0.00    +0.000 A 
ATOM     14  C   UNL     1       1.811   7.798  20.240  0.00  0.00    +0.000 A 
ATOM     15  C   UNL     1       2.506   7.312  19.122  0.00  0.00    +0.000 A 
ATOM     16  C   UNL     1       2.450   8.066  17.940  0.00  0.00    +0.000 A 
ATOM     17  C   UNL     1       1.716   9.255  17.868  0.00  0.00    +0.000 A 
BRANCH  12  19
ATOM     18  C   UNL     1      -1.070  10.726  18.597  0.00  0.00    +0.000 C 
ATOM     19  O   UNL     1       0.280  10.866  19.028  0.00  0.00    +0.000 OA
ENDBRANCH  12  19
ENDBRANCH   1  15
TORSDOF 2
ENDMDL
MODEL 8
REMARK VINA RESULT:      -7.4      1.553      1.847
REMARK  Name = 
REMARK  3 active torsions:
REMARK  status: ('A' for Active; 'I' for Inactive)
REMARK    1  A    between atoms: C_1  and  O_2
REMARK    2  A    between atoms: O_2  and  C_3
REMARK    3  A    between atoms: C_6  and  C_7
REMARK                            x       y       z     vdW  Elec       q    Type
REMARK                         _______ _______ _______ _____ _____    ______ ____
ROOT
ATOM      1  C   UNL     1       3.288   5.654  18.808  0.00  0.00    +0.000 C 
ATOM      2  C   UNL     1       3.238   4.744  19.789  0.00  0.00    +0.000 C 
ATOM      3  C   UNL     1       3.843   3.429  19.599  0.00  0.00    +0.000 C 
ATOM      4  O   UNL     1       3.711   2.553  20.442  0.00  0.00    +0.000 OA
ATOM      5  O   UNL     1       4.491   3.235  18.435  0.00  0.00    +0.000 OA
ATOM      6  C   UNL     1       4.965   4.400  17.763  0.00  0.00    +0.000 C 
ATOM      7  C   UNL     1       5.378   3.985  16.340  0.00  0.00    +0.000 C 
ATOM      8  C   UNL     1       6.659   4.759  16.066  0.00  0.00    +0.000 C 
ATOM      9  C   UNL     1       7.373   4.711  17.402  0.00  0.00    +0.000 C 
ATOM     10  C   UNL     1       6.263   4.924  18.424  0.00  0.00    +0.000 C 
ATOM     11  O   UNL     1       4.007   5.457  17.650  0.00  0.00    +0.000 OA
ENDROOT
BRANCH   1  15
ATOM     12  C   UNL     1       1.313   9.474  19.102  0.00  0.00    +0.000 A 
ATOM     13  C   UNL     1       1.350   8.608  20.194  0.00  0.00    +0.000 A 
ATOM     14  C   UNL     1       1.997   7.369  20.098  0.00  0.00    +0.000 A 
ATOM     15  C   UNL     1       2.601   6.962  18.900  0.00  0.00    +0.000 A 
ATOM     16  C   UNL     1       2.549   7.844  17.809  0.00  0.00    +0.000 A 
ATOM     17  C   UNL     1       1.905   9.083  17.904  0.00  0.00    +0.000 A 
BRANCH  12  19
ATOM     18  C   UNL     1      -0.562  10.810  18.577  0.00  0.00    +0.000 C 
ATOM     19  O   UNL     1       0.651  10.653  19.305  0.00  0.00    +0.000 OA
ENDBRANCH  12  19
ENDBRANCH   1  15
TORSDOF 2
ENDMDL
MODEL 9
REMARK VINA RESULT:      -7.3      1.616      3.041
REMARK  Name = 
REMARK  3 active torsions:
REMARK  status: ('A' for Active; 'I' for Inactive)
REMARK    1  A    between atoms: C_1  and  O_2
REMARK    2  A    between atoms: O_2  and  C_3
REMARK    3  A    between atoms: C_6  and  C_7
REMARK                            x       y       z     vdW  Elec       q    Type
REMARK                         _______ _______ _______ _____ _____    ______ ____
ROOT
ATOM      1  C   UNL     1       3.498   6.597  18.121  0.00  0.00    +0.000 C 
ATOM      2  C   UNL     1       4.238   6.759  17.017  0.00  0.00    +0.000 C 
ATOM      3  C   UNL     1       5.226   5.752  16.643  0.00  0.00    +0.000 C 
ATOM      4  O   UNL     1       5.982   5.937  15.699  0.00  0.00    +0.000 OA
ATOM      5  O   UNL     1       5.285   4.657  17.425  0.00  0.00    +0.000 OA
ATOM      6  C   UNL     1       4.112   4.339  18.172  0.00  0.00    +0.000 C 
ATOM      7  C   UNL     1       4.495   3.270  19.211  0.00  0.00    +0.000 C 
ATOM      8  C   UNL     1       3.320   2.303  19.223  0.00  0.00    +0.000 C 
ATOM      9  C   UNL     1       2.933   2.226  17.759  0.00  0.00    +0.000 C 
ATOM     10  C   UNL     1       3.053   3.664  17.268  0.00  0.00    +0.000 C 
ATOM     11  O   UNL     1       3.532   5.443  18.873  0.00  0.00    +0.000 OA
ENDROOT
BRANCH   1  15
ATOM     12  C   UNL     1       0.737   9.598  19.518  0.00  0.00    +0.000 A 
ATOM     13  C   UNL     1       1.213   9.624  18.207  0.00  0.00    +0.000 A 
ATOM     14  C   UNL     1       2.105   8.645  17.754  0.00  0.00    +0.000 A 
ATOM     15  C   UNL     1       2.560   7.632  18.610  0.00  0.00    +0.000 A 
ATOM     16  C   UNL     1       2.076   7.624  19.927  0.00  0.00    +0.000 A 
ATOM     17  C   UNL     1       1.181   8.600  20.381  0.00  0.00    +0.000 A 
BRANCH  12  19
ATOM     18  C   UNL     1      -0.001  11.800  19.092  0.00  0.00    +0.000 C 
ATOM     19  O   UNL     1      -0.125  10.604  19.855  0.00  0.00    +0.000 OA
ENDBRANCH  12  19
ENDBRANCH   1  15
TORSDOF 2
ENDMDL
