MODEL 1
REMARK VINA RESULT:      -7.5      0.000      0.000
REMARK  Name = 
REMARK  6 active torsions:
REMARK  status: ('A' for Active; 'I' for Inactive)
REMARK    1  A    between atoms: C_1  and  C_2
REMARK    2  A    between atoms: C_2  and  N_3
REMARK    3  A    between atoms: C_2  and  C_19
REMARK    4  A    between atoms: C_4  and  C_6
REMARK    5  A    between atoms: C_7  and  C_8
REMARK    6  A    between atoms: N_14  and  C_15
REMARK                            x       y       z     vdW  Elec       q    Type
REMARK                         _______ _______ _______ _____ _____    ______ ____
ROOT
ATOM      1  N   UNL     1       2.547   8.300  18.888  0.00  0.00    +0.000 N 
ATOM      2  C   UNL     1       2.578   7.053  18.302  0.00  0.00    +0.000 C 
ATOM      3  O   UNL     1       1.728   6.694  17.488  0.00  0.00    +0.000 OA
ATOM      4  H   UNL     1       3.143   8.470  19.683  0.00  0.00    +0.000 HD
ENDROOT
BRANCH   2   5
ATOM      5  C   UNL     1       3.791   6.172  18.681  0.00  0.00    +0.000 C 
ATOM      6  C   UNL     1       4.899   6.168  17.553  0.00  0.00    +0.000 C 
ATOM      7  C   UNL     1       4.575   7.013  16.310  0.00  0.00    +0.000 C 
ATOM      8  C   UNL     1       5.329   4.794  17.042  0.00  0.00    +0.000 C 
ATOM      9  C   UNL     1       5.007   3.626  17.617  0.00  0.00    +0.000 C 
ATOM     10  C   UNL     1       4.268   3.629  18.899  0.00  0.00    +0.000 C 
ATOM     11  C   UNL     1       3.312   2.508  19.285  0.00  0.00    +0.000 C 
ATOM     12  O   UNL     1       3.252   1.389  18.807  0.00  0.00    +0.000 OA
ATOM     13  N   UNL     1       2.532   3.053  20.281  0.00  0.00    +0.000 N 
ATOM     14  C   UNL     1       1.582   2.318  21.077  0.00  0.00    +0.000 C 
ATOM     15  C   UNL     1       2.623   4.433  20.274  0.00  0.00    +0.000 C 
ATOM     16  O   UNL     1       2.230   5.222  21.115  0.00  0.00    +0.000 OA
ATOM     17  C   UNL     1       3.259   4.765  18.948  0.00  0.00    +0.000 C 
ENDBRANCH   2   5
BRANCH   1  19
ATOM     18  C   UNL     1       1.882  10.486  17.925  0.00  0.00    +0.000 C 
ATOM     19  C   UNL     1       1.434   9.223  18.673  0.00  0.00    +0.000 C 
BRANCH  19  20
ATOM     20  C   UNL     1       0.799   9.592  19.998  0.00  0.00    +0.000 A 
ATOM     21  C   UNL     1       1.053   8.822  21.145  0.00  0.00    +0.000 A 
ATOM     22  C   UNL     1       0.415   9.114  22.356  0.00  0.00    +0.000 A 
ATOM     23  C   UNL     1      -0.482  10.178  22.419  0.00  0.00    +0.000 A 
ATOM     24  F   UNL     1      -1.114  10.437  23.573  0.00  0.00    +0.000 F 
ATOM     25  C   UNL     1      -0.711  10.955  21.299  0.00  0.00    +0.000 A 
ATOM     26  F   UNL     1      -1.581  11.987  21.362  0.00  0.00    +0.000 F 
ATOM     27  C   UNL     1      -0.090  10.679  20.093  0.00  0.00    +0.000 A 
ENDBRANCH  19  20
ENDBRANCH   1  19
TORSDOF 3
ENDMDL
MODEL 2
REMARK VINA RESULT:      -7.4      0.551      1.299
REMARK  Name = 
REMARK  6 active torsions:
REMARK  status: ('A' for Active; 'I' for Inactive)
REMARK    1  A    between atoms: C_1  and  C_2
REMARK    2  A    between atoms: C_2  and  N_3
REMARK    3  A    between atoms: C_2  and  C_19
REMARK    4  A    between atoms: C_4  and  C_6
REMARK    5  A    between atoms: C_7  and  C_8
REMARK    6  A    between atoms: N_14  and  C_15
REMARK                            x       y       z     vdW  Elec       q    Type
REMARK                         _______ _______ _______ _____ _____    ______ ____
ROOT
ATOM      1  N   UNL     1       2.453   8.402  18.907  0.00  0.00    +0.000 N 
ATOM      2  C   UNL     1       2.518   7.151  18.334  0.00  0.00    +0.000 C 
ATOM      3  O   UNL     1       1.724   6.790  17.466  0.00  0.00    +0.000 OA
ATOM      4  H   UNL     1       2.994   8.576  19.740  0.00  0.00    +0.000 HD
ENDROOT
BRANCH   2   5
ATOM      5  C   UNL     1       3.698   6.268  18.801  0.00  0.00    +0.000 C 
ATOM      6  C   UNL     1       4.864   6.219  17.734  0.00  0.00    +0.000 C 
ATOM      7  C   UNL     1       4.617   7.031  16.453  0.00  0.00    +0.000 C 
ATOM      8  C   UNL     1       5.303   4.826  17.286  0.00  0.00    +0.000 C 
ATOM      9  C   UNL     1       4.936   3.679  17.875  0.00  0.00    +0.000 C 
ATOM     10  C   UNL     1       4.131   3.726  19.116  0.00  0.00    +0.000 C 
ATOM     11  C   UNL     1       3.141   2.629  19.482  0.00  0.00    +0.000 C 
ATOM     12  O   UNL     1       3.092   1.497  19.034  0.00  0.00    +0.000 OA
ATOM     13  N   UNL     1       2.316   3.211  20.420  0.00  0.00    +0.000 N 
ATOM     14  C   UNL     1       1.317   2.510  21.184  0.00  0.00    +0.000 C 
ATOM     15  C   UNL     1       2.425   4.588  20.379  0.00  0.00    +0.000 C 
ATOM     16  O   UNL     1       1.999   5.406  21.175  0.00  0.00    +0.000 OA
ATOM     17  C   UNL     1       3.134   4.875  19.079  0.00  0.00    +0.000 C 
ENDBRANCH   2   5
BRANCH   1  19
ATOM     18  C   UNL     1       1.860  10.564  17.847  0.00  0.00    +0.000 C 
ATOM     19  C   UNL     1       1.362   9.329  18.609  0.00  0.00    +0.000 C 
BRANCH  19  20
ATOM     20  C   UNL     1       0.666   9.743  19.890  0.00  0.00    +0.000 A 
ATOM     21  C   UNL     1      -0.330  10.734  19.867  0.00  0.00    +0.000 A 
ATOM     22  C   UNL     1      -0.928  11.171  21.055  0.00  0.00    +0.000 A 
ATOM     23  C   UNL     1      -0.526  10.619  22.268  0.00  0.00    +0.000 A 
ATOM     24  F   UNL     1      -1.080  11.061  23.407  0.00  0.00    +0.000 F 
ATOM     25  C   UNL     1       0.433   9.624  22.290  0.00  0.00    +0.000 A 
ATOM     26  F   UNL     1       0.822   9.089  23.469  0.00  0.00    +0.000 F 
ATOM     27  C   UNL     1       1.036   9.180  21.125  0.00  0.00    +0.000 A 
ENDBRANCH  19  20
ENDBRANCH   1  19
TORSDOF 3
ENDMDL
MODEL 3
REMARK VINA RESULT:      -6.9      3.963      7.996
REMARK  Name = 
REMARK  6 active torsions:
REMARK  status: ('A' for Active; 'I' for Inactive)
REMARK    1  A    between atoms: C_1  and  C_2
REMARK    2  A    between atoms: C_2  and  N_3
REMARK    3  A    between atoms: C_2  and  C_19
REMARK    4  A    between atoms: C_4  and  C_6
REMARK    5  A    between atoms: C_7  and  C_8
REMARK    6  A    between atoms: N_14  and  C_15
REMARK                            x       y       z     vdW  Elec       q    Type
REMARK                         _______ _______ _______ _____ _____    ______ ____
ROOT
ATOM      1  N   UNL     1       2.684   7.021  18.891  0.00  0.00    +0.000 N 
ATOM      2  C   UNL     1       1.898   8.145  18.766  0.00  0.00    +0.000 C 
ATOM      3  O   UNL     1       1.275   8.392  17.733  0.00  0.00    +0.000 OA
ATOM      4  H   UNL     1       3.320   6.967  19.672  0.00  0.00    +0.000 HD
ENDROOT
BRANCH   2   5
ATOM      5  C   UNL     1       1.794   9.028  20.030  0.00  0.00    +0.000 C 
ATOM      6  C   UNL     1       1.399   8.190  21.311  0.00  0.00    +0.000 C 
ATOM      7  C   UNL     1       1.185   6.687  21.073  0.00  0.00    +0.000 C 
ATOM      8  C   UNL     1       0.177   8.684  22.083  0.00  0.00    +0.000 C 
ATOM      9  C   UNL     1      -0.430   9.864  21.886  0.00  0.00    +0.000 C 
ATOM     10  C   UNL     1       0.157  10.831  20.933  0.00  0.00    +0.000 C 
ATOM     11  C   UNL     1      -0.698  11.819  20.152  0.00  0.00    +0.000 C 
ATOM     12  O   UNL     1      -1.841  12.164  20.396  0.00  0.00    +0.000 OA
ATOM     13  N   UNL     1       0.109  12.220  19.108  0.00  0.00    +0.000 N 
ATOM     14  C   UNL     1      -0.207  13.277  18.183  0.00  0.00    +0.000 C 
ATOM     15  C   UNL     1       1.158  11.336  18.935  0.00  0.00    +0.000 C 
ATOM     16  O   UNL     1       2.155  11.470  18.249  0.00  0.00    +0.000 OA
ATOM     17  C   UNL     1       0.766  10.119  19.734  0.00  0.00    +0.000 C 
ENDBRANCH   2   5
BRANCH   1  19
ATOM     18  C   UNL     1       1.996   4.901  17.806  0.00  0.00    +0.000 C 
ATOM     19  C   UNL     1       2.926   6.121  17.765  0.00  0.00    +0.000 C 
BRANCH  19  20
ATOM     20  C   UNL     1       4.375   5.680  17.751  0.00  0.00    +0.000 A 
ATOM     21  C   UNL     1       4.921   5.072  16.608  0.00  0.00    +0.000 A 
ATOM     22  C   UNL     1       6.239   4.600  16.612  0.00  0.00    +0.000 A 
ATOM     23  C   UNL     1       7.011   4.734  17.762  0.00  0.00    +0.000 A 
ATOM     24  F   UNL     1       8.264   4.253  17.772  0.00  0.00    +0.000 F 
ATOM     25  C   UNL     1       6.487   5.357  18.878  0.00  0.00    +0.000 A 
ATOM     26  F   UNL     1       7.238   5.486  19.994  0.00  0.00    +0.000 F 
ATOM     27  C   UNL     1       5.185   5.830  18.893  0.00  0.00    +0.000 A 
ENDBRANCH  19  20
ENDBRANCH   1  19
TORSDOF 3
ENDMDL
MODEL 4
REMARK VINA RESULT:      -6.8      2.371      3.919
REMARK  Name = 
REMARK  6 active torsions:
REMARK  status: ('A' for Active; 'I' for Inactive)
REMARK    1  A    between atoms: C_1  and  C_2
REMARK    2  A    between atoms: C_2  and  N_3
REMARK    3  A    between atoms: C_2  and  C_19
REMARK    4  A    between atoms: C_4  and  C_6
REMARK    5  A    between atoms: C_7  and  C_8
REMARK    6  A    between atoms: N_14  and  C_15
REMARK                            x       y       z     vdW  Elec       q    Type
REMARK                         _______ _______ _______ _____ _____    ______ ____
ROOT
ATOM      1  N   UNL     1       1.425   7.818  19.513  0.00  0.00    +0.000 N 
ATOM      2  C   UNL     1       1.998   6.616  19.865  0.00  0.00    +0.000 C 
ATOM      3  O   UNL     1       2.200   6.310  21.040  0.00  0.00    +0.000 OA
ATOM      4  H   UNL     1       1.462   8.101  18.546  0.00  0.00    +0.000 HD
ENDROOT
BRANCH   2   5
ATOM      5  C   UNL     1       2.297   5.654  18.693  0.00  0.00    +0.000 C 
ATOM      6  C   UNL     1       1.708   4.208  18.945  0.00  0.00    +0.000 C 
ATOM      7  C   UNL     1       0.971   4.022  20.280  0.00  0.00    +0.000 C 
ATOM      8  C   UNL     1       2.702   3.053  18.834  0.00  0.00    +0.000 C 
ATOM      9  C   UNL     1       3.943   3.153  18.338  0.00  0.00    +0.000 C 
ATOM     10  C   UNL     1       4.388   4.436  17.750  0.00  0.00    +0.000 C 
ATOM     11  C   UNL     1       5.845   4.880  17.781  0.00  0.00    +0.000 C 
ATOM     12  O   UNL     1       6.826   4.185  17.976  0.00  0.00    +0.000 OA
ATOM     13  N   UNL     1       5.794   6.237  17.549  0.00  0.00    +0.000 N 
ATOM     14  C   UNL     1       6.942   7.077  17.325  0.00  0.00    +0.000 C 
ATOM     15  C   UNL     1       4.518   6.723  17.769  0.00  0.00    +0.000 C 
ATOM     16  O   UNL     1       4.065   7.817  17.484  0.00  0.00    +0.000 OA
ATOM     17  C   UNL     1       3.814   5.618  18.517  0.00  0.00    +0.000 C 
ENDBRANCH   2   5
BRANCH   1  19
ATOM     18  C   UNL     1       0.090   8.389  21.524  0.00  0.00    +0.000 C 
ATOM     19  C   UNL     1       1.138   8.854  20.504  0.00  0.00    +0.000 C 
BRANCH  19  20
ATOM     20  C   UNL     1       0.678  10.123  19.815  0.00  0.00    +0.000 A 
ATOM     21  C   UNL     1       1.206  11.368  20.195  0.00  0.00    +0.000 A 
ATOM     22  C   UNL     1       0.735  12.550  19.612  0.00  0.00    +0.000 A 
ATOM     23  C   UNL     1      -0.268  12.487  18.648  0.00  0.00    +0.000 A 
ATOM     24  F   UNL     1      -0.738  13.623  18.113  0.00  0.00    +0.000 F 
ATOM     25  C   UNL     1      -0.769  11.261  18.252  0.00  0.00    +0.000 A 
ATOM     26  F   UNL     1      -1.742  11.200  17.317  0.00  0.00    +0.000 F 
ATOM     27  C   UNL     1      -0.316  10.081  18.819  0.00  0.00    +0.000 A 
ENDBRANCH  19  20
ENDBRANCH   1  19
TORSDOF 3
ENDMDL
MODEL 5
REMARK VINA RESULT:      -6.8      4.281      8.054
REMARK  Name = 
REMARK  6 active torsions:
REMARK  status: ('A' for Active; 'I' for Inactive)
REMARK    1  A    between atoms: C_1  and  C_2
REMARK    2  A    between atoms: C_2  and  N_3
REMARK    3  A    between atoms: C_2  and  C_19
REMARK    4  A    between atoms: C_4  and  C_6
REMARK    5  A    between atoms: C_7  and  C_8
REMARK    6  A    between atoms: N_14  and  C_15
REMARK                            x       y       z     vdW  Elec       q    Type
REMARK                         _______ _______ _______ _____ _____    ______ ____
ROOT
ATOM      1  N   UNL     1       2.590   6.960  18.922  0.00  0.00    +0.000 N 
ATOM      2  C   UNL     1       1.894   8.138  18.761  0.00  0.00    +0.000 C 
ATOM      3  O   UNL     1       1.349   8.432  17.697  0.00  0.00    +0.000 OA
ATOM      4  H   UNL     1       3.176   6.858  19.736  0.00  0.00    +0.000 HD
ENDROOT
BRANCH   2   5
ATOM      5  C   UNL     1       1.784   9.023  20.023  0.00  0.00    +0.000 C 
ATOM      6  C   UNL     1       1.372   8.187  21.301  0.00  0.00    +0.000 C 
ATOM      7  C   UNL     1       1.151   6.685  21.062  0.00  0.00    +0.000 C 
ATOM      8  C   UNL     1       0.145   8.689  22.061  0.00  0.00    +0.000 C 
ATOM      9  C   UNL     1      -0.453   9.872  21.858  0.00  0.00    +0.000 C 
ATOM     10  C   UNL     1       0.148  10.835  20.910  0.00  0.00    +0.000 C 
ATOM     11  C   UNL     1      -0.695  11.827  20.120  0.00  0.00    +0.000 C 
ATOM     12  O   UNL     1      -1.837  12.179  20.354  0.00  0.00    +0.000 OA
ATOM     13  N   UNL     1       0.124  12.222  19.084  0.00  0.00    +0.000 N 
ATOM     14  C   UNL     1      -0.178  13.281  18.155  0.00  0.00    +0.000 C 
ATOM     15  C   UNL     1       1.170  11.333  18.921  0.00  0.00    +0.000 C 
ATOM     16  O   UNL     1       2.174  11.461  18.244  0.00  0.00    +0.000 OA
ATOM     17  C   UNL     1       0.764  10.118  19.717  0.00  0.00    +0.000 C 
ENDBRANCH   2   5
BRANCH   1  19
ATOM     18  C   UNL     1       1.842   4.874  17.811  0.00  0.00    +0.000 C 
ATOM     19  C   UNL     1       2.829   6.048  17.805  0.00  0.00    +0.000 C 
BRANCH  19  20
ATOM     20  C   UNL     1       4.256   5.539  17.843  0.00  0.00    +0.000 A 
ATOM     21  C   UNL     1       4.964   5.503  19.055  0.00  0.00    +0.000 A 
ATOM     22  C   UNL     1       6.305   5.100  19.087  0.00  0.00    +0.000 A 
ATOM     23  C   UNL     1       6.938   4.736  17.902  0.00  0.00    +0.000 A 
ATOM     24  F   UNL     1       8.232   4.379  17.930  0.00  0.00    +0.000 F 
ATOM     25  C   UNL     1       6.236   4.744  16.712  0.00  0.00    +0.000 A 
ATOM     26  F   UNL     1       6.852   4.390  15.562  0.00  0.00    +0.000 F 
ATOM     27  C   UNL     1       4.910   5.140  16.662  0.00  0.00    +0.000 A 
ENDBRANCH  19  20
ENDBRANCH   1  19
TORSDOF 3
ENDMDL
MODEL 6
REMARK VINA RESULT:      -6.8      2.036      3.846
REMARK  Name = 
REMARK  6 active torsions:
REMARK  status: ('A' for Active; 'I' for Inactive)
REMARK    1  A    between atoms: C_1  and  C_2
REMARK    2  A    between atoms: C_2  and  N_3
REMARK    3  A    between atoms: C_2  and  C_19
REMARK    4  A    between atoms: C_4  and  C_6
REMARK    5  A    between atoms: C_7  and  C_8
REMARK    6  A    between atoms: N_14  and  C_15
REMARK                            x       y       z     vdW  Elec       q    Type
REMARK                         _______ _______ _______ _____ _____    ______ ____
ROOT
ATOM      1  N   UNL     1       1.433   7.540  19.643  0.00  0.00    +0.000 N 
ATOM      2  C   UNL     1       1.985   6.288  19.797  0.00  0.00    +0.000 C 
ATOM      3  O   UNL     1       2.212   5.807  20.907  0.00  0.00    +0.000 OA
ATOM      4  H   UNL     1       1.450   7.962  18.727  0.00  0.00    +0.000 HD
ENDROOT
BRANCH   2   5
ATOM      5  C   UNL     1       2.227   5.503  18.487  0.00  0.00    +0.000 C 
ATOM      6  C   UNL     1       1.646   4.034  18.557  0.00  0.00    +0.000 C 
ATOM      7  C   UNL     1       0.971   3.656  19.885  0.00  0.00    +0.000 C 
ATOM      8  C   UNL     1       2.630   2.910  18.237  0.00  0.00    +0.000 C 
ATOM      9  C   UNL     1       3.848   3.084  17.703  0.00  0.00    +0.000 C 
ATOM     10  C   UNL     1       4.268   4.439  17.284  0.00  0.00    +0.000 C 
ATOM     11  C   UNL     1       5.725   4.880  17.309  0.00  0.00    +0.000 C 
ATOM     12  O   UNL     1       6.713   4.168  17.359  0.00  0.00    +0.000 OA
ATOM     13  N   UNL     1       5.668   6.256  17.275  0.00  0.00    +0.000 N 
ATOM     14  C   UNL     1       6.807   7.124  17.120  0.00  0.00    +0.000 C 
ATOM     15  C   UNL     1       4.405   6.701  17.622  0.00  0.00    +0.000 C 
ATOM     16  O   UNL     1       3.942   7.822  17.516  0.00  0.00    +0.000 OA
ATOM     17  C   UNL     1       3.734   5.499  18.236  0.00  0.00    +0.000 C 
ENDBRANCH   2   5
BRANCH   1  19
ATOM     18  C   UNL     1      -0.058   8.024  21.564  0.00  0.00    +0.000 C 
ATOM     19  C   UNL     1       1.201   8.424  20.784  0.00  0.00    +0.000 C 
BRANCH  19  20
ATOM     20  C   UNL     1       1.099   9.862  20.318  0.00  0.00    +0.000 A 
ATOM     21  C   UNL     1       1.339  10.191  18.973  0.00  0.00    +0.000 A 
ATOM     22  C   UNL     1       1.315  11.525  18.550  0.00  0.00    +0.000 A 
ATOM     23  C   UNL     1       1.053  12.533  19.474  0.00  0.00    +0.000 A 
ATOM     24  F   UNL     1       1.060  13.812  19.071  0.00  0.00    +0.000 F 
ATOM     25  C   UNL     1       0.787  12.210  20.791  0.00  0.00    +0.000 A 
ATOM     26  F   UNL     1       0.532  13.188  21.687  0.00  0.00    +0.000 F 
ATOM     27  C   UNL     1       0.807  10.895  21.228  0.00  0.00    +0.000 A 
ENDBRANCH  19  20
ENDBRANCH   1  19
TORSDOF 3
ENDMDL
MODEL 7
REMARK VINA RESULT:      -6.8      2.357      3.980
REMARK  Name = 
REMARK  6 active torsions:
REMARK  status: ('A' for Active; 'I' for Inactive)
REMARK    1  A    between atoms: C_1  and  C_2
REMARK    2  A    between atoms: C_2  and  N_3
REMARK    3  A    between atoms: C_2  and  C_19
REMARK    4  A    between atoms: C_4  and  C_6
REMARK    5  A    between atoms: C_7  and  C_8
REMARK    6  A    between atoms: N_14  and  C_15
REMARK                            x       y       z     vdW  Elec       q    Type
REMARK                         _______ _______ _______ _____ _____    ______ ____
ROOT
ATOM      1  N   UNL     1       1.507   7.791  19.457  0.00  0.00    +0.000 N 
ATOM      2  C   UNL     1       2.015   6.555  19.787  0.00  0.00    +0.000 C 
ATOM      3  O   UNL     1       2.148   6.197  20.957  0.00  0.00    +0.000 OA
ATOM      4  H   UNL     1       1.601   8.109  18.504  0.00  0.00    +0.000 HD
ENDROOT
BRANCH   2   5
ATOM      5  C   UNL     1       2.334   5.626  18.593  0.00  0.00    +0.000 C 
ATOM      6  C   UNL     1       1.737   4.175  18.792  0.00  0.00    +0.000 C 
ATOM      7  C   UNL     1       0.975   3.952  20.107  0.00  0.00    +0.000 C 
ATOM      8  C   UNL     1       2.730   3.021  18.665  0.00  0.00    +0.000 C 
ATOM      9  C   UNL     1       3.981   3.132  18.196  0.00  0.00    +0.000 C 
ATOM     10  C   UNL     1       4.439   4.430  17.654  0.00  0.00    +0.000 C 
ATOM     11  C   UNL     1       5.896   4.868  17.724  0.00  0.00    +0.000 C 
ATOM     12  O   UNL     1       6.871   4.165  17.917  0.00  0.00    +0.000 OA
ATOM     13  N   UNL     1       5.852   6.232  17.530  0.00  0.00    +0.000 N 
ATOM     14  C   UNL     1       7.006   7.075  17.353  0.00  0.00    +0.000 C 
ATOM     15  C   UNL     1       4.574   6.715  17.742  0.00  0.00    +0.000 C 
ATOM     16  O   UNL     1       4.129   7.818  17.480  0.00  0.00    +0.000 OA
ATOM     17  C   UNL     1       3.854   5.591  18.444  0.00  0.00    +0.000 C 
ENDBRANCH   2   5
BRANCH   1  19
ATOM     18  C   UNL     1       0.203   8.284  21.507  0.00  0.00    +0.000 C 
ATOM     19  C   UNL     1       1.212   8.800  20.473  0.00  0.00    +0.000 C 
BRANCH  19  20
ATOM     20  C   UNL     1       0.698  10.066  19.819  0.00  0.00    +0.000 A 
ATOM     21  C   UNL     1      -0.681  10.330  19.770  0.00  0.00    +0.000 A 
ATOM     22  C   UNL     1      -1.168  11.462  19.106  0.00  0.00    +0.000 A 
ATOM     23  C   UNL     1      -0.273  12.330  18.487  0.00  0.00    +0.000 A 
ATOM     24  F   UNL     1      -0.744  13.399  17.826  0.00  0.00    +0.000 F 
ATOM     25  C   UNL     1       1.086  12.089  18.558  0.00  0.00    +0.000 A 
ATOM     26  F   UNL     1       1.954  12.932  17.957  0.00  0.00    +0.000 F 
ATOM     27  C   UNL     1       1.585  10.973  19.210  0.00  0.00    +0.000 A 
ENDBRANCH  19  20
ENDBRANCH   1  19
TORSDOF 3
ENDMDL
MODEL 8
REMARK VINA RESULT:      -6.7      2.344      3.962
REMARK  Name = 
REMARK  6 active torsions:
REMARK  status: ('A' for Active; 'I' for Inactive)
REMARK    1  A    between atoms: C_1  and  C_2
REMARK    2  A    between atoms: C_2  and  N_3
REMARK    3  A    between atoms: C_2  and  C_19
REMARK    4  A    between atoms: C_4  and  C_6
REMARK    5  A    between atoms: C_7  and  C_8
REMARK    6  A    between atoms: N_14  and  C_15
REMARK                            x       y       z     vdW  Elec       q    Type
REMARK                         _______ _______ _______ _____ _____    ______ ____
ROOT
ATOM      1  N   UNL     1       1.666   7.907  19.124  0.00  0.00    +0.000 N 
ATOM      2  C   UNL     1       2.073   6.683  19.606  0.00  0.00    +0.000 C 
ATOM      3  O   UNL     1       2.076   6.425  20.809  0.00  0.00    +0.000 OA
ATOM      4  H   UNL     1       1.866   8.133  18.161  0.00  0.00    +0.000 HD
ENDROOT
BRANCH   2   5
ATOM      5  C   UNL     1       2.450   5.638  18.531  0.00  0.00    +0.000 C 
ATOM      6  C   UNL     1       1.857   4.208  18.857  0.00  0.00    +0.000 C 
ATOM      7  C   UNL     1       1.040   4.116  20.155  0.00  0.00    +0.000 C 
ATOM      8  C   UNL     1       2.863   3.059  18.895  0.00  0.00    +0.000 C 
ATOM      9  C   UNL     1       4.132   3.136  18.470  0.00  0.00    +0.000 C 
ATOM     10  C   UNL     1       4.604   4.375  17.814  0.00  0.00    +0.000 C 
ATOM     11  C   UNL     1       6.052   4.836  17.899  0.00  0.00    +0.000 C 
ATOM     12  O   UNL     1       7.024   4.169  18.207  0.00  0.00    +0.000 OA
ATOM     13  N   UNL     1       6.007   6.171  17.561  0.00  0.00    +0.000 N 
ATOM     14  C   UNL     1       7.161   7.005  17.344  0.00  0.00    +0.000 C 
ATOM     15  C   UNL     1       4.717   6.658  17.665  0.00  0.00    +0.000 C 
ATOM     16  O   UNL     1       4.275   7.721  17.269  0.00  0.00    +0.000 OA
ATOM     17  C   UNL     1       3.976   5.606  18.451  0.00  0.00    +0.000 C 
ENDBRANCH   2   5
BRANCH   1  19
ATOM     18  C   UNL     1       0.953   8.518  21.418  0.00  0.00    +0.000 C 
ATOM     19  C   UNL     1       1.333   9.015  20.018  0.00  0.00    +0.000 C 
BRANCH  19  20
ATOM     20  C   UNL     1       0.210   9.842  19.427  0.00  0.00    +0.000 A 
ATOM     21  C   UNL     1      -0.395  10.860  20.184  0.00  0.00    +0.000 A 
ATOM     22  C   UNL     1      -1.480  11.581  19.671  0.00  0.00    +0.000 A 
ATOM     23  C   UNL     1      -1.962  11.282  18.400  0.00  0.00    +0.000 A 
ATOM     24  F   UNL     1      -3.020  11.955  17.923  0.00  0.00    +0.000 F 
ATOM     25  C   UNL     1      -1.350  10.302  17.642  0.00  0.00    +0.000 A 
ATOM     26  F   UNL     1      -1.819  10.012  16.408  0.00  0.00    +0.000 F 
ATOM     27  C   UNL     1      -0.277   9.577  18.134  0.00  0.00    +0.000 A 
ENDBRANCH  19  20
ENDBRANCH   1  19
TORSDOF 3
ENDMDL
MODEL 9
REMARK VINA RESULT:      -6.7      4.970      7.628
REMARK  Name = 
REMARK  6 active torsions:
REMARK  status: ('A' for Active; 'I' for Inactive)
REMARK    1  A    between atoms: C_1  and  C_2
REMARK    2  A    between atoms: C_2  and  N_3
REMARK    3  A    between atoms: C_2  and  C_19
REMARK    4  A    between atoms: C_4  and  C_6
REMARK    5  A    between atoms: C_7  and  C_8
REMARK    6  A    between atoms: N_14  and  C_15
REMARK                            x       y       z     vdW  Elec       q    Type
REMARK                         _______ _______ _______ _____ _____    ______ ____
ROOT
ATOM      1  N   UNL     1       5.411   4.886  17.417  0.00  0.00    +0.000 N 
ATOM      2  C   UNL     1       4.348   5.722  17.157  0.00  0.00    +0.000 C 
ATOM      3  O   UNL     1       4.449   6.689  16.402  0.00  0.00    +0.000 OA
ATOM      4  H   UNL     1       5.332   4.235  18.183  0.00  0.00    +0.000 HD
ENDROOT
BRANCH   2   5
ATOM      5  C   UNL     1       3.009   5.319  17.815  0.00  0.00    +0.000 C 
ATOM      6  C   UNL     1       2.277   6.553  18.480  0.00  0.00    +0.000 C 
ATOM      7  C   UNL     1       3.014   7.896  18.363  0.00  0.00    +0.000 C 
ATOM      8  C   UNL     1       1.899   6.394  19.951  0.00  0.00    +0.000 C 
ATOM      9  C   UNL     1       1.942   5.240  20.634  0.00  0.00    +0.000 C 
ATOM     10  C   UNL     1       2.277   3.988  19.922  0.00  0.00    +0.000 C 
ATOM     11  C   UNL     1       2.985   2.828  20.610  0.00  0.00    +0.000 C 
ATOM     12  O   UNL     1       3.086   2.629  21.808  0.00  0.00    +0.000 OA
ATOM     13  N   UNL     1       3.487   2.071  19.574  0.00  0.00    +0.000 N 
ATOM     14  C   UNL     1       4.102   0.777  19.724  0.00  0.00    +0.000 C 
ATOM     15  C   UNL     1       3.518   2.804  18.402  0.00  0.00    +0.000 C 
ATOM     16  O   UNL     1       3.715   2.410  17.268  0.00  0.00    +0.000 OA
ATOM     17  C   UNL     1       3.321   4.233  18.843  0.00  0.00    +0.000 C 
ENDBRANCH   2   5
BRANCH   1  19
ATOM     18  C   UNL     1       7.179   6.612  17.211  0.00  0.00    +0.000 C 
ATOM     19  C   UNL     1       6.754   5.169  16.913  0.00  0.00    +0.000 C 
BRANCH  19  20
ATOM     20  C   UNL     1       6.821   4.895  15.424  0.00  0.00    +0.000 A 
ATOM     21  C   UNL     1       6.025   3.889  14.851  0.00  0.00    +0.000 A 
ATOM     22  C   UNL     1       6.132   3.583  13.490  0.00  0.00    +0.000 A 
ATOM     23  C   UNL     1       7.040   4.283  12.700  0.00  0.00    +0.000 A 
ATOM     24  F   UNL     1       7.162   3.968  11.401  0.00  0.00    +0.000 F 
ATOM     25  C   UNL     1       7.803   5.293  13.254  0.00  0.00    +0.000 A 
ATOM     26  F   UNL     1       8.684   5.972  12.487  0.00  0.00    +0.000 F 
ATOM     27  C   UNL     1       7.711   5.608  14.600  0.00  0.00    +0.000 A 
ENDBRANCH  19  20
ENDBRANCH   1  19
TORSDOF 3
ENDMDL
