MODEL 1
REMARK VINA RESULT:      -8.9      0.000      0.000
REMARK  Name = 
REMARK  5 active torsions:
REMARK  status: ('A' for Active; 'I' for Inactive)
REMARK    1  A    between atoms: C_4  and  C_5
REMARK    2  A    between atoms: C_8  and  C_9
REMARK    3  A    between atoms: C_12  and  O_13
REMARK    4  A    between atoms: O_13  and  C_14
REMARK    5  A    between atoms: C_23  and  N_24
REMARK                            x       y       z     vdW  Elec       q    Type
REMARK                         _______ _______ _______ _____ _____    ______ ____
ROOT
ATOM      1  C   UNL     1       1.451   8.378  19.762  0.00  0.00    +0.000 A 
ATOM      2  C   UNL     1       1.907   7.138  20.209  0.00  0.00    +0.000 A 
ATOM      3  C   UNL     1       2.704   6.347  19.381  0.00  0.00    +0.000 A 
ATOM      4  C   UNL     1       3.061   6.771  18.090  0.00  0.00    +0.000 A 
ATOM      5  C   UNL     1       2.529   7.990  17.632  0.00  0.00    +0.000 A 
ATOM      6  C   UNL     1       1.745   8.795  18.460  0.00  0.00    +0.000 A 
ENDROOT
BRANCH   1  10
ATOM      7  O   UNL     1       0.249   9.558  24.184  0.00  0.00    +0.000 OA
ATOM      8  C   UNL     1       0.182   9.851  22.993  0.00  0.00    +0.000 A 
ATOM      9  C   UNL     1       0.861   9.036  21.991  0.00  0.00    +0.000 A 
ATOM     10  C   UNL     1       0.743   9.267  20.683  0.00  0.00    +0.000 A 
ATOM     11  S   UNL     1      -0.219  10.466  19.932  0.00  0.00    +0.000 S 
ATOM     12  C   UNL     1      -0.754  11.446  21.289  0.00  0.00    +0.000 A 
ATOM     13  C   UNL     1      -0.537  11.052  22.558  0.00  0.00    +0.000 A 
BRANCH  12  14
ATOM     14  N   UNL     1      -1.397  12.672  21.065  0.00  0.00    +0.000 N 
ATOM     15  C   UNL     1      -1.156  13.481  19.850  0.00  0.00    +0.000 C 
ATOM     16  C   UNL     1      -1.261  14.969  20.216  0.00  0.00    +0.000 C 
ATOM     17  O   UNL     1      -2.545  15.282  20.785  0.00  0.00    +0.000 OA
ATOM     18  C   UNL     1      -2.775  14.495  21.967  0.00  0.00    +0.000 C 
ATOM     19  C   UNL     1      -2.710  12.992  21.665  0.00  0.00    +0.000 C 
ENDBRANCH  12  14
ENDBRANCH   1  10
BRANCH   4  20
ATOM     20  C   UNL     1       4.023   5.996  17.276  0.00  0.00    +0.000 A 
ATOM     21  C   UNL     1       4.935   6.624  16.414  0.00  0.00    +0.000 A 
ATOM     22  C   UNL     1       5.771   5.877  15.581  0.00  0.00    +0.000 A 
ATOM     23  C   UNL     1       5.747   4.483  15.608  0.00  0.00    +0.000 A 
ATOM     24  C   UNL     1       4.840   3.840  16.444  0.00  0.00    +0.000 A 
ATOM     25  C   UNL     1       3.999   4.590  17.273  0.00  0.00    +0.000 A 
BRANCH  23  26
ATOM     26  O   UNL     1       6.606   3.885  14.742  0.00  0.00    +0.000 OA
BRANCH  26  27
ATOM     27  C   UNL     1       6.267   3.800  13.367  0.00  0.00    +0.000 C 
ATOM     28  F   UNL     1       6.476   2.585  12.816  0.00  0.00    +0.000 F 
ATOM     29  F   UNL     1       4.970   4.137  13.201  0.00  0.00    +0.000 F 
ATOM     30  F   UNL     1       7.025   4.692  12.688  0.00  0.00    +0.000 F 
ENDBRANCH  26  27
ENDBRANCH  23  26
ENDBRANCH   4  20
TORSDOF 5
ENDMDL
MODEL 2
REMARK VINA RESULT:      -8.7      0.462      1.188
REMARK  Name = 
REMARK  5 active torsions:
REMARK  status: ('A' for Active; 'I' for Inactive)
REMARK    1  A    between atoms: C_4  and  C_5
REMARK    2  A    between atoms: C_8  and  C_9
REMARK    3  A    between atoms: C_12  and  O_13
REMARK    4  A    between atoms: O_13  and  C_14
REMARK    5  A    between atoms: C_23  and  N_24
REMARK                            x       y       z     vdW  Elec       q    Type
REMARK                         _______ _______ _______ _____ _____    ______ ____
ROOT
ATOM      1  C   UNL     1       1.512   8.455  19.715  0.00  0.00    +0.000 A 
ATOM      2  C   UNL     1       1.945   7.210  20.173  0.00  0.00    +0.000 A 
ATOM      3  C   UNL     1       2.719   6.393  19.348  0.00  0.00    +0.000 A 
ATOM      4  C   UNL     1       3.075   6.794  18.049  0.00  0.00    +0.000 A 
ATOM      5  C   UNL     1       2.565   8.020  17.582  0.00  0.00    +0.000 A 
ATOM      6  C   UNL     1       1.804   8.850  18.407  0.00  0.00    +0.000 A 
ENDROOT
BRANCH   1  10
ATOM      7  O   UNL     1      -0.008   9.483  24.077  0.00  0.00    +0.000 OA
ATOM      8  C   UNL     1       0.097   9.864  22.914  0.00  0.00    +0.000 A 
ATOM      9  C   UNL     1       0.770   9.033  21.921  0.00  0.00    +0.000 A 
ATOM     10  C   UNL     1       0.830   9.368  20.631  0.00  0.00    +0.000 A 
ATOM     11  S   UNL     1       0.124  10.739  19.890  0.00  0.00    +0.000 S 
ATOM     12  C   UNL     1      -0.424  11.689  21.263  0.00  0.00    +0.000 A 
ATOM     13  C   UNL     1      -0.403  11.182  22.511  0.00  0.00    +0.000 A 
BRANCH  12  14
ATOM     14  N   UNL     1      -0.869  13.006  21.079  0.00  0.00    +0.000 N 
ATOM     15  C   UNL     1      -2.012  13.568  21.831  0.00  0.00    +0.000 C 
ATOM     16  C   UNL     1      -2.758  14.563  20.931  0.00  0.00    +0.000 C 
ATOM     17  O   UNL     1      -1.889  15.614  20.474  0.00  0.00    +0.000 OA
ATOM     18  C   UNL     1      -0.780  15.064  19.741  0.00  0.00    +0.000 C 
ATOM     19  C   UNL     1       0.027  14.078  20.595  0.00  0.00    +0.000 C 
ENDBRANCH  12  14
ENDBRANCH   1  10
BRANCH   4  20
ATOM     20  C   UNL     1       4.014   5.991  17.237  0.00  0.00    +0.000 A 
ATOM     21  C   UNL     1       4.909   6.587  16.337  0.00  0.00    +0.000 A 
ATOM     22  C   UNL     1       5.722   5.812  15.507  0.00  0.00    +0.000 A 
ATOM     23  C   UNL     1       5.691   4.418  15.576  0.00  0.00    +0.000 A 
ATOM     24  C   UNL     1       4.800   3.806  16.451  0.00  0.00    +0.000 A 
ATOM     25  C   UNL     1       3.982   4.585  17.277  0.00  0.00    +0.000 A 
BRANCH  23  26
ATOM     26  O   UNL     1       6.527   3.790  14.709  0.00  0.00    +0.000 OA
BRANCH  26  27
ATOM     27  C   UNL     1       6.230   3.796  13.322  0.00  0.00    +0.000 C 
ATOM     28  F   UNL     1       4.937   4.051  13.030  0.00  0.00    +0.000 F 
ATOM     29  F   UNL     1       7.006   4.709  12.700  0.00  0.00    +0.000 F 
ATOM     30  F   UNL     1       6.529   2.576  12.819  0.00  0.00    +0.000 F 
ENDBRANCH  26  27
ENDBRANCH  23  26
ENDBRANCH   4  20
TORSDOF 5
ENDMDL
MODEL 3
REMARK VINA RESULT:      -8.6      1.149      1.708
REMARK  Name = 
REMARK  5 active torsions:
REMARK  status: ('A' for Active; 'I' for Inactive)
REMARK    1  A    between atoms: C_4  and  C_5
REMARK    2  A    between atoms: C_8  and  C_9
REMARK    3  A    between atoms: C_12  and  O_13
REMARK    4  A    between atoms: O_13  and  C_14
REMARK    5  A    between atoms: C_23  and  N_24
REMARK                            x       y       z     vdW  Elec       q    Type
REMARK                         _______ _______ _______ _____ _____    ______ ____
ROOT
ATOM      1  C   UNL     1       1.291   9.096  19.661  0.00  0.00    +0.000 A 
ATOM      2  C   UNL     1       1.708   7.915  20.277  0.00  0.00    +0.000 A 
ATOM      3  C   UNL     1       2.453   6.979  19.560  0.00  0.00    +0.000 A 
ATOM      4  C   UNL     1       2.795   7.194  18.214  0.00  0.00    +0.000 A 
ATOM      5  C   UNL     1       2.301   8.355  17.592  0.00  0.00    +0.000 A 
ATOM      6  C   UNL     1       1.569   9.305  18.308  0.00  0.00    +0.000 A 
ENDROOT
BRANCH   1  10
ATOM      7  O   UNL     1      -0.973  10.414  23.602  0.00  0.00    +0.000 OA
ATOM      8  C   UNL     1      -0.494  10.772  22.528  0.00  0.00    +0.000 A 
ATOM      9  C   UNL     1       0.185   9.812  21.664  0.00  0.00    +0.000 A 
ATOM     10  C   UNL     1       0.642  10.138  20.454  0.00  0.00    +0.000 A 
ATOM     11  S   UNL     1       0.490  11.652  19.671  0.00  0.00    +0.000 S 
ATOM     12  C   UNL     1      -0.139  12.690  20.941  0.00  0.00    +0.000 A 
ATOM     13  C   UNL     1      -0.550  12.178  22.117  0.00  0.00    +0.000 A 
BRANCH  12  14
ATOM     14  N   UNL     1      -0.198  14.079  20.754  0.00  0.00    +0.000 N 
ATOM     15  C   UNL     1      -1.201  14.928  21.434  0.00  0.00    +0.000 C 
ATOM     16  C   UNL     1      -1.580  16.089  20.504  0.00  0.00    +0.000 C 
ATOM     17  O   UNL     1      -0.427  16.866  20.136  0.00  0.00    +0.000 OA
ATOM     18  C   UNL     1       0.545  16.039  19.473  0.00  0.00    +0.000 C 
ATOM     19  C   UNL     1       0.988  14.870  20.361  0.00  0.00    +0.000 C 
ENDBRANCH  12  14
ENDBRANCH   1  10
BRANCH   4  20
ATOM     20  C   UNL     1       3.705   6.268  17.506  0.00  0.00    +0.000 A 
ATOM     21  C   UNL     1       4.777   6.736  16.731  0.00  0.00    +0.000 A 
ATOM     22  C   UNL     1       5.570   5.856  15.990  0.00  0.00    +0.000 A 
ATOM     23  C   UNL     1       5.339   4.480  16.029  0.00  0.00    +0.000 A 
ATOM     24  C   UNL     1       4.272   3.997  16.779  0.00  0.00    +0.000 A 
ATOM     25  C   UNL     1       3.476   4.881  17.515  0.00  0.00    +0.000 A 
BRANCH  23  26
ATOM     26  O   UNL     1       6.178   3.743  15.257  0.00  0.00    +0.000 OA
BRANCH  26  27
ATOM     27  C   UNL     1       6.196   3.944  13.852  0.00  0.00    +0.000 C 
ATOM     28  F   UNL     1       7.036   4.916  13.439  0.00  0.00    +0.000 F 
ATOM     29  F   UNL     1       6.527   2.789  13.236  0.00  0.00    +0.000 F 
ATOM     30  F   UNL     1       4.948   4.289  13.458  0.00  0.00    +0.000 F 
ENDBRANCH  26  27
ENDBRANCH  23  26
ENDBRANCH   4  20
TORSDOF 5
ENDMDL
MODEL 4
REMARK VINA RESULT:      -8.5      1.262      1.638
REMARK  Name = 
REMARK  5 active torsions:
REMARK  status: ('A' for Active; 'I' for Inactive)
REMARK    1  A    between atoms: C_4  and  C_5
REMARK    2  A    between atoms: C_8  and  C_9
REMARK    3  A    between atoms: C_12  and  O_13
REMARK    4  A    between atoms: O_13  and  C_14
REMARK    5  A    between atoms: C_23  and  N_24
REMARK                            x       y       z     vdW  Elec       q    Type
REMARK                         _______ _______ _______ _____ _____    ______ ____
ROOT
ATOM      1  C   UNL     1       1.049   9.350  19.679  0.00  0.00    +0.000 A 
ATOM      2  C   UNL     1       1.526   8.243  20.381  0.00  0.00    +0.000 A 
ATOM      3  C   UNL     1       2.298   7.282  19.729  0.00  0.00    +0.000 A 
ATOM      4  C   UNL     1       2.610   7.399  18.364  0.00  0.00    +0.000 A 
ATOM      5  C   UNL     1       2.057   8.483  17.658  0.00  0.00    +0.000 A 
ATOM      6  C   UNL     1       1.297   9.458  18.307  0.00  0.00    +0.000 A 
ENDROOT
BRANCH   1  10
ATOM      7  O   UNL     1      -1.158  10.912  23.562  0.00  0.00    +0.000 OA
ATOM      8  C   UNL     1      -0.735  11.192  22.443  0.00  0.00    +0.000 A 
ATOM      9  C   UNL     1      -0.031  10.193  21.647  0.00  0.00    +0.000 A 
ATOM     10  C   UNL     1       0.368  10.427  20.396  0.00  0.00    +0.000 A 
ATOM     11  S   UNL     1       0.108  11.851  19.483  0.00  0.00    +0.000 S 
ATOM     12  C   UNL     1      -0.537  12.969  20.675  0.00  0.00    +0.000 A 
ATOM     13  C   UNL     1      -0.881  12.549  21.907  0.00  0.00    +0.000 A 
BRANCH  12  14
ATOM     14  N   UNL     1      -0.678  14.329  20.363  0.00  0.00    +0.000 N 
ATOM     15  C   UNL     1      -0.238  14.895  19.069  0.00  0.00    +0.000 C 
ATOM     16  C   UNL     1       0.260  16.330  19.298  0.00  0.00    +0.000 C 
ATOM     17  O   UNL     1      -0.761  17.153  19.888  0.00  0.00    +0.000 OA
ATOM     18  C   UNL     1      -1.185  16.602  21.147  0.00  0.00    +0.000 C 
ATOM     19  C   UNL     1      -1.721  15.174  20.985  0.00  0.00    +0.000 C 
ENDBRANCH  12  14
ENDBRANCH   1  10
BRANCH   4  20
ATOM     20  C   UNL     1       3.547   6.456  17.716  0.00  0.00    +0.000 A 
ATOM     21  C   UNL     1       4.693   6.902  17.040  0.00  0.00    +0.000 A 
ATOM     22  C   UNL     1       5.517   6.009  16.351  0.00  0.00    +0.000 A 
ATOM     23  C   UNL     1       5.243   4.641  16.347  0.00  0.00    +0.000 A 
ATOM     24  C   UNL     1       4.104   4.179  16.998  0.00  0.00    +0.000 A 
ATOM     25  C   UNL     1       3.276   5.077  17.682  0.00  0.00    +0.000 A 
BRANCH  23  26
ATOM     26  O   UNL     1       6.121   3.889  15.633  0.00  0.00    +0.000 OA
BRANCH  26  27
ATOM     27  C   UNL     1       6.224   4.077  14.231  0.00  0.00    +0.000 C 
ATOM     28  F   UNL     1       7.176   4.956  13.855  0.00  0.00    +0.000 F 
ATOM     29  F   UNL     1       6.466   2.890  13.635  0.00  0.00    +0.000 F 
ATOM     30  F   UNL     1       5.037   4.542  13.777  0.00  0.00    +0.000 F 
ENDBRANCH  26  27
ENDBRANCH  23  26
ENDBRANCH   4  20
TORSDOF 5
ENDMDL
MODEL 5
REMARK VINA RESULT:      -8.3      0.435      1.479
REMARK  Name = 
REMARK  5 active torsions:
REMARK  status: ('A' for Active; 'I' for Inactive)
REMARK    1  A    between atoms: C_4  and  C_5
REMARK    2  A    between atoms: C_8  and  C_9
REMARK    3  A    between atoms: C_12  and  O_13
REMARK    4  A    between atoms: O_13  and  C_14
REMARK    5  A    between atoms: C_23  and  N_24
REMARK                            x       y       z     vdW  Elec       q    Type
REMARK                         _______ _______ _______ _____ _____    ______ ____
ROOT
ATOM      1  C   UNL     1       1.817   8.522  19.817  0.00  0.00    +0.000 A 
ATOM      2  C   UNL     1       2.225   9.035  18.586  0.00  0.00    +0.000 A 
ATOM      3  C   UNL     1       2.979   8.247  17.716  0.00  0.00    +0.000 A 
ATOM      4  C   UNL     1       3.347   6.933  18.053  0.00  0.00    +0.000 A 
ATOM      5  C   UNL     1       2.989   6.463  19.330  0.00  0.00    +0.000 A 
ATOM      6  C   UNL     1       2.220   7.239  20.200  0.00  0.00    +0.000 A 
ENDROOT
BRANCH   1  10
ATOM      7  O   UNL     1      -0.095   9.360  24.064  0.00  0.00    +0.000 OA
ATOM      8  C   UNL     1      -0.025   9.706  22.887  0.00  0.00    +0.000 A 
ATOM      9  C   UNL     1       0.863   9.008  21.963  0.00  0.00    +0.000 A 
ATOM     10  C   UNL     1       0.906   9.294  20.660  0.00  0.00    +0.000 A 
ATOM     11  S   UNL     1      -0.056  10.437  19.826  0.00  0.00    +0.000 S 
ATOM     12  C   UNL     1      -0.867  11.293  21.128  0.00  0.00    +0.000 A 
ATOM     13  C   UNL     1      -0.789  10.858  22.400  0.00  0.00    +0.000 A 
BRANCH  12  14
ATOM     14  N   UNL     1      -1.588  12.466  20.861  0.00  0.00    +0.000 N 
ATOM     15  C   UNL     1      -1.133  13.467  19.872  0.00  0.00    +0.000 C 
ATOM     16  C   UNL     1      -1.549  14.865  20.354  0.00  0.00    +0.000 C 
ATOM     17  O   UNL     1      -2.971  14.954  20.544  0.00  0.00    +0.000 OA
ATOM     18  C   UNL     1      -3.411  13.981  21.508  0.00  0.00    +0.000 C 
ATOM     19  C   UNL     1      -3.049  12.555  21.073  0.00  0.00    +0.000 C 
ENDBRANCH  12  14
ENDBRANCH   1  10
BRANCH   4  20
ATOM     20  C   UNL     1       4.017   6.057  17.069  0.00  0.00    +0.000 A 
ATOM     21  C   UNL     1       3.919   4.659  17.137  0.00  0.00    +0.000 A 
ATOM     22  C   UNL     1       4.635   3.841  16.260  0.00  0.00    +0.000 A 
ATOM     23  C   UNL     1       5.443   4.395  15.266  0.00  0.00    +0.000 A 
ATOM     24  C   UNL     1       5.568   5.778  15.191  0.00  0.00    +0.000 A 
ATOM     25  C   UNL     1       4.854   6.595  16.075  0.00  0.00    +0.000 A 
BRANCH  23  26
ATOM     26  O   UNL     1       6.087   3.486  14.489  0.00  0.00    +0.000 OA
BRANCH  26  27
ATOM     27  C   UNL     1       5.988   3.577  13.077  0.00  0.00    +0.000 C 
ATOM     28  F   UNL     1       6.853   4.445  12.512  0.00  0.00    +0.000 F 
ATOM     29  F   UNL     1       6.177   2.356  12.533  0.00  0.00    +0.000 F 
ATOM     30  F   UNL     1       4.736   3.987  12.766  0.00  0.00    +0.000 F 
ENDBRANCH  26  27
ENDBRANCH  23  26
ENDBRANCH   4  20
TORSDOF 5
ENDMDL
MODEL 6
REMARK VINA RESULT:      -8.2      1.517      2.219
REMARK  Name = 
REMARK  5 active torsions:
REMARK  status: ('A' for Active; 'I' for Inactive)
REMARK    1  A    between atoms: C_4  and  C_5
REMARK    2  A    between atoms: C_8  and  C_9
REMARK    3  A    between atoms: C_12  and  O_13
REMARK    4  A    between atoms: O_13  and  C_14
REMARK    5  A    between atoms: C_23  and  N_24
REMARK                            x       y       z     vdW  Elec       q    Type
REMARK                         _______ _______ _______ _____ _____    ______ ____
ROOT
ATOM      1  C   UNL     1       0.909   9.720  19.717  0.00  0.00    +0.000 A 
ATOM      2  C   UNL     1       1.298   8.612  20.470  0.00  0.00    +0.000 A 
ATOM      3  C   UNL     1       2.036   7.588  19.875  0.00  0.00    +0.000 A 
ATOM      4  C   UNL     1       2.401   7.643  18.519  0.00  0.00    +0.000 A 
ATOM      5  C   UNL     1       1.934   8.734  17.762  0.00  0.00    +0.000 A 
ATOM      6  C   UNL     1       1.209   9.770  18.353  0.00  0.00    +0.000 A 
ENDROOT
BRANCH   1  10
ATOM      7  O   UNL     1      -1.249  11.555  23.508  0.00  0.00    +0.000 OA
ATOM      8  C   UNL     1      -0.812  11.763  22.379  0.00  0.00    +0.000 A 
ATOM      9  C   UNL     1      -0.143  10.699  21.636  0.00  0.00    +0.000 A 
ATOM     10  C   UNL     1       0.267  10.856  20.377  0.00  0.00    +0.000 A 
ATOM     11  S   UNL     1       0.061  12.241  19.393  0.00  0.00    +0.000 S 
ATOM     12  C   UNL     1      -0.545  13.440  20.524  0.00  0.00    +0.000 A 
ATOM     13  C   UNL     1      -0.907  13.095  21.775  0.00  0.00    +0.000 A 
BRANCH  12  14
ATOM     14  N   UNL     1      -0.636  14.787  20.144  0.00  0.00    +0.000 N 
ATOM     15  C   UNL     1      -1.279  15.809  20.999  0.00  0.00    +0.000 C 
ATOM     16  C   UNL     1      -1.957  16.854  20.100  0.00  0.00    +0.000 C 
ATOM     17  O   UNL     1      -1.014  17.466  19.202  0.00  0.00    +0.000 OA
ATOM     18  C   UNL     1      -0.392  16.470  18.371  0.00  0.00    +0.000 C 
ATOM     19  C   UNL     1       0.328  15.407  19.210  0.00  0.00    +0.000 C 
ENDBRANCH  12  14
ENDBRANCH   1  10
BRANCH   4  20
ATOM     20  C   UNL     1       3.305   6.630  17.934  0.00  0.00    +0.000 A 
ATOM     21  C   UNL     1       4.545   6.979  17.379  0.00  0.00    +0.000 A 
ATOM     22  C   UNL     1       5.346   6.026  16.745  0.00  0.00    +0.000 A 
ATOM     23  C   UNL     1       4.948   4.690  16.676  0.00  0.00    +0.000 A 
ATOM     24  C   UNL     1       3.715   4.326  17.206  0.00  0.00    +0.000 A 
ATOM     25  C   UNL     1       2.913   5.283  17.836  0.00  0.00    +0.000 A 
BRANCH  23  26
ATOM     26  O   UNL     1       5.817   3.874  16.026  0.00  0.00    +0.000 OA
BRANCH  26  27
ATOM     27  C   UNL     1       6.184   4.167  14.687  0.00  0.00    +0.000 C 
ATOM     28  F   UNL     1       5.272   4.891  14.005  0.00  0.00    +0.000 F 
ATOM     29  F   UNL     1       7.362   4.826  14.677  0.00  0.00    +0.000 F 
ATOM     30  F   UNL     1       6.351   2.996  14.028  0.00  0.00    +0.000 F 
ENDBRANCH  26  27
ENDBRANCH  23  26
ENDBRANCH   4  20
TORSDOF 5
ENDMDL
MODEL 7
REMARK VINA RESULT:      -8.2      8.068     10.411
REMARK  Name = 
REMARK  5 active torsions:
REMARK  status: ('A' for Active; 'I' for Inactive)
REMARK    1  A    between atoms: C_4  and  C_5
REMARK    2  A    between atoms: C_8  and  C_9
REMARK    3  A    between atoms: C_12  and  O_13
REMARK    4  A    between atoms: O_13  and  C_14
REMARK    5  A    between atoms: C_23  and  N_24
REMARK                            x       y       z     vdW  Elec       q    Type
REMARK                         _______ _______ _______ _____ _____    ______ ____
ROOT
ATOM      1  C   UNL     1       7.143   6.957  17.699  0.00  0.00    +0.000 A 
ATOM      2  C   UNL     1       8.083   6.858  18.726  0.00  0.00    +0.000 A 
ATOM      3  C   UNL     1       8.814   7.981  19.114  0.00  0.00    +0.000 A 
ATOM      4  C   UNL     1       8.629   9.225  18.487  0.00  0.00    +0.000 A 
ATOM      5  C   UNL     1       7.732   9.284  17.405  0.00  0.00    +0.000 A 
ATOM      6  C   UNL     1       6.984   8.169  17.021  0.00  0.00    +0.000 A 
ENDROOT
BRANCH   1  10
ATOM      7  O   UNL     1       5.852   3.475  14.766  0.00  0.00    +0.000 OA
ATOM      8  C   UNL     1       5.674   4.014  15.856  0.00  0.00    +0.000 A 
ATOM      9  C   UNL     1       6.493   5.151  16.262  0.00  0.00    +0.000 A 
ATOM     10  C   UNL     1       6.276   5.819  17.396  0.00  0.00    +0.000 A 
ATOM     11  S   UNL     1       5.027   5.540  18.531  0.00  0.00    +0.000 S 
ATOM     12  C   UNL     1       4.322   4.030  17.976  0.00  0.00    +0.000 A 
ATOM     13  C   UNL     1       4.673   3.493  16.792  0.00  0.00    +0.000 A 
BRANCH  12  14
ATOM     14  N   UNL     1       3.396   3.346  18.777  0.00  0.00    +0.000 N 
ATOM     15  C   UNL     1       2.213   2.661  18.211  0.00  0.00    +0.000 C 
ATOM     16  C   UNL     1       1.055   2.759  19.215  0.00  0.00    +0.000 C 
ATOM     17  O   UNL     1       1.410   2.187  20.485  0.00  0.00    +0.000 OA
ATOM     18  C   UNL     1       2.559   2.857  21.034  0.00  0.00    +0.000 C 
ATOM     19  C   UNL     1       3.764   2.773  20.089  0.00  0.00    +0.000 C 
ENDBRANCH  12  14
ENDBRANCH   1  10
BRANCH   4  20
ATOM     20  C   UNL     1       9.299  10.440  19.000  0.00  0.00    +0.000 A 
ATOM     21  C   UNL     1       9.999  11.311  18.152  0.00  0.00    +0.000 A 
ATOM     22  C   UNL     1      10.707  12.401  18.663  0.00  0.00    +0.000 A 
ATOM     23  C   UNL     1      10.708  12.675  20.031  0.00  0.00    +0.000 A 
ATOM     24  C   UNL     1      10.034  11.815  20.891  0.00  0.00    +0.000 A 
ATOM     25  C   UNL     1       9.330  10.720  20.378  0.00  0.00    +0.000 A 
BRANCH  23  26
ATOM     26  O   UNL     1      11.442  13.759  20.391  0.00  0.00    +0.000 OA
BRANCH  26  27
ATOM     27  C   UNL     1      10.873  15.055  20.291  0.00  0.00    +0.000 C 
ATOM     28  F   UNL     1       9.527  15.065  20.182  0.00  0.00    +0.000 F 
ATOM     29  F   UNL     1      11.229  15.787  21.368  0.00  0.00    +0.000 F 
ATOM     30  F   UNL     1      11.377  15.655  19.188  0.00  0.00    +0.000 F 
ENDBRANCH  26  27
ENDBRANCH  23  26
ENDBRANCH   4  20
TORSDOF 5
ENDMDL
MODEL 8
REMARK VINA RESULT:      -8.2      0.519      1.282
REMARK  Name = 
REMARK  5 active torsions:
REMARK  status: ('A' for Active; 'I' for Inactive)
REMARK    1  A    between atoms: C_4  and  C_5
REMARK    2  A    between atoms: C_8  and  C_9
REMARK    3  A    between atoms: C_12  and  O_13
REMARK    4  A    between atoms: O_13  and  C_14
REMARK    5  A    between atoms: C_23  and  N_24
REMARK                            x       y       z     vdW  Elec       q    Type
REMARK                         _______ _______ _______ _____ _____    ______ ____
ROOT
ATOM      1  C   UNL     1       1.256   8.477  19.909  0.00  0.00    +0.000 A 
ATOM      2  C   UNL     1       1.750   7.233  20.303  0.00  0.00    +0.000 A 
ATOM      3  C   UNL     1       2.518   6.475  19.419  0.00  0.00    +0.000 A 
ATOM      4  C   UNL     1       2.807   6.936  18.123  0.00  0.00    +0.000 A 
ATOM      5  C   UNL     1       2.236   8.157  17.721  0.00  0.00    +0.000 A 
ATOM      6  C   UNL     1       1.480   8.929  18.605  0.00  0.00    +0.000 A 
ENDROOT
BRANCH   1  10
ATOM      7  O   UNL     1       0.243   9.526  24.411  0.00  0.00    +0.000 OA
ATOM      8  C   UNL     1       0.117   9.849  23.232  0.00  0.00    +0.000 A 
ATOM      9  C   UNL     1       0.760   9.069  22.179  0.00  0.00    +0.000 A 
ATOM     10  C   UNL     1       0.579   9.332  20.884  0.00  0.00    +0.000 A 
ATOM     11  S   UNL     1      -0.432  10.536  20.209  0.00  0.00    +0.000 S 
ATOM     12  C   UNL     1      -0.917  11.473  21.614  0.00  0.00    +0.000 A 
ATOM     13  C   UNL     1      -0.636  11.051  22.862  0.00  0.00    +0.000 A 
BRANCH  12  14
ATOM     14  N   UNL     1      -1.585  12.695  21.452  0.00  0.00    +0.000 N 
ATOM     15  C   UNL     1      -2.992  12.890  21.866  0.00  0.00    +0.000 C 
ATOM     16  C   UNL     1      -3.663  13.875  20.897  0.00  0.00    +0.000 C 
ATOM     17  O   UNL     1      -2.968  15.133  20.861  0.00  0.00    +0.000 OA
ATOM     18  C   UNL     1      -1.602  14.941  20.456  0.00  0.00    +0.000 C 
ATOM     19  C   UNL     1      -0.863  13.985  21.401  0.00  0.00    +0.000 C 
ENDBRANCH  12  14
ENDBRANCH   1  10
BRANCH   4  20
ATOM     20  C   UNL     1       3.740   6.197  17.246  0.00  0.00    +0.000 A 
ATOM     21  C   UNL     1       3.769   4.794  17.212  0.00  0.00    +0.000 A 
ATOM     22  C   UNL     1       4.720   4.110  16.452  0.00  0.00    +0.000 A 
ATOM     23  C   UNL     1       5.647   4.803  15.674  0.00  0.00    +0.000 A 
ATOM     24  C   UNL     1       5.647   6.194  15.705  0.00  0.00    +0.000 A 
ATOM     25  C   UNL     1       4.697   6.877  16.472  0.00  0.00    +0.000 A 
BRANCH  23  26
ATOM     26  O   UNL     1       6.517   4.014  14.992  0.00  0.00    +0.000 OA
BRANCH  26  27
ATOM     27  C   UNL     1       6.425   3.929  13.579  0.00  0.00    +0.000 C 
ATOM     28  F   UNL     1       6.768   2.727  13.070  0.00  0.00    +0.000 F 
ATOM     29  F   UNL     1       5.165   4.224  13.192  0.00  0.00    +0.000 F 
ATOM     30  F   UNL     1       7.257   4.852  13.043  0.00  0.00    +0.000 F 
ENDBRANCH  26  27
ENDBRANCH  23  26
ENDBRANCH   4  20
TORSDOF 5
ENDMDL
MODEL 9
REMARK VINA RESULT:      -8.2      0.875      1.426
REMARK  Name = 
REMARK  5 active torsions:
REMARK  status: ('A' for Active; 'I' for Inactive)
REMARK    1  A    between atoms: C_4  and  C_5
REMARK    2  A    between atoms: C_8  and  C_9
REMARK    3  A    between atoms: C_12  and  O_13
REMARK    4  A    between atoms: O_13  and  C_14
REMARK    5  A    between atoms: C_23  and  N_24
REMARK                            x       y       z     vdW  Elec       q    Type
REMARK                         _______ _______ _______ _____ _____    ______ ____
ROOT
ATOM      1  C   UNL     1       1.998   8.251  19.362  0.00  0.00    +0.000 A 
ATOM      2  C   UNL     1       2.539   8.777  18.188  0.00  0.00    +0.000 A 
ATOM      3  C   UNL     1       3.371   7.992  17.389  0.00  0.00    +0.000 A 
ATOM      4  C   UNL     1       3.687   6.669  17.742  0.00  0.00    +0.000 A 
ATOM      5  C   UNL     1       3.192   6.184  18.967  0.00  0.00    +0.000 A 
ATOM      6  C   UNL     1       2.345   6.958  19.764  0.00  0.00    +0.000 A 
ENDROOT
BRANCH   1  10
ATOM      7  O   UNL     1      -0.856   8.669  23.113  0.00  0.00    +0.000 OA
ATOM      8  C   UNL     1      -0.420   9.200  22.095  0.00  0.00    +0.000 A 
ATOM      9  C   UNL     1       0.576   8.520  21.273  0.00  0.00    +0.000 A 
ATOM     10  C   UNL     1       1.011   9.022  20.116  0.00  0.00    +0.000 A 
ATOM     11  S   UNL     1       0.486  10.462  19.357  0.00  0.00    +0.000 S 
ATOM     12  C   UNL     1      -0.517  11.212  20.589  0.00  0.00    +0.000 A 
ATOM     13  C   UNL     1      -0.852  10.548  21.712  0.00  0.00    +0.000 A 
BRANCH  12  14
ATOM     14  N   UNL     1      -0.964  12.532  20.429  0.00  0.00    +0.000 N 
ATOM     15  C   UNL     1      -0.491  13.400  19.328  0.00  0.00    +0.000 C 
ATOM     16  C   UNL     1      -0.436  14.851  19.829  0.00  0.00    +0.000 C 
ATOM     17  O   UNL     1      -1.720  15.292  20.304  0.00  0.00    +0.000 OA
ATOM     18  C   UNL     1      -2.176  14.448  21.375  0.00  0.00    +0.000 C 
ATOM     19  C   UNL     1      -2.280  12.983  20.932  0.00  0.00    +0.000 C 
ENDBRANCH  12  14
ENDBRANCH   1  10
BRANCH   4  20
ATOM     20  C   UNL     1       4.447   5.799  16.820  0.00  0.00    +0.000 A 
ATOM     21  C   UNL     1       5.212   6.326  15.769  0.00  0.00    +0.000 A 
ATOM     22  C   UNL     1       5.847   5.489  14.848  0.00  0.00    +0.000 A 
ATOM     23  C   UNL     1       5.767   4.101  14.970  0.00  0.00    +0.000 A 
ATOM     24  C   UNL     1       5.002   3.558  15.996  0.00  0.00    +0.000 A 
ATOM     25  C   UNL     1       4.362   4.398  16.913  0.00  0.00    +0.000 A 
BRANCH  23  26
ATOM     26  O   UNL     1       6.425   3.410  14.004  0.00  0.00    +0.000 OA
BRANCH  26  27
ATOM     27  C   UNL     1       5.940   3.436  12.671  0.00  0.00    +0.000 C 
ATOM     28  F   UNL     1       4.662   3.853  12.551  0.00  0.00    +0.000 F 
ATOM     29  F   UNL     1       6.732   4.232  11.920  0.00  0.00    +0.000 F 
ATOM     30  F   UNL     1       6.009   2.181  12.170  0.00  0.00    +0.000 F 
ENDBRANCH  26  27
ENDBRANCH  23  26
ENDBRANCH   4  20
TORSDOF 5
ENDMDL
