MODEL 1
REMARK VINA RESULT:      -8.7      0.000      0.000
REMARK  Name = 
REMARK  5 active torsions:
REMARK  status: ('A' for Active; 'I' for Inactive)
REMARK    1  A    between atoms: C_2  and  C_3
REMARK    2  A    between atoms: C_3  and  C_4
REMARK    3  A    between atoms: C_12  and  C_13
REMARK    4  A    between atoms: N_21  and  C_22
REMARK    5  A    between atoms: C_22  and  C_23
REMARK                            x       y       z     vdW  Elec       q    Type
REMARK                         _______ _______ _______ _____ _____    ______ ____
ROOT
ATOM      1  O   UNL     1       2.499  10.252  17.453  0.00  0.00    +0.000 OA
ATOM      2  C   UNL     1       2.105   9.272  18.079  0.00  0.00    +0.000 C 
ATOM      3  N   UNL     1       2.671   8.024  17.903  0.00  0.00    +0.000 N 
ATOM      4  C   UNL     1       3.788   7.838  17.016  0.00  0.00    +0.000 C 
ATOM      5  C   UNL     1       4.491   6.614  17.599  0.00  0.00    +0.000 C 
ATOM      6  C   UNL     1       3.334   5.738  18.198  0.00  0.00    +0.000 C 
ATOM      7  C   UNL     1       3.685   5.290  19.638  0.00  0.00    +0.000 C 
ATOM      8  C   UNL     1       4.731   4.175  19.630  0.00  0.00    +0.000 C 
ATOM      9  N   UNL     1       4.268   2.968  18.917  0.00  0.00    +0.000 NA
ATOM     10  C   UNL     1       3.940   3.313  17.526  0.00  0.00    +0.000 C 
ATOM     11  C   UNL     1       2.946   4.479  17.386  0.00  0.00    +0.000 C 
ATOM     12  C   UNL     1       2.138   6.731  18.286  0.00  0.00    +0.000 C 
ENDROOT
BRANCH   5  13
ATOM     13  C   UNL     1       5.406   6.020  16.596  0.00  0.00    +0.000 A 
ATOM     14  N   UNL     1       5.285   6.000  15.284  0.00  0.00    +0.000 NA
ATOM     15  C   UNL     1       6.301   5.175  14.872  0.00  0.00    +0.000 A 
ATOM     16  C   UNL     1       7.027   4.753  15.955  0.00  0.00    +0.000 A 
ATOM     17  O   UNL     1       6.468   5.296  17.069  0.00  0.00    +0.000 OA
ENDBRANCH   5  13
BRANCH   2  18
ATOM     18  C   UNL     1       1.025   9.414  19.151  0.00  0.00    +0.000 C 
BRANCH  18  19
ATOM     19  C   UNL     1      -0.197  10.177  18.704  0.00  0.00    +0.000 A 
ATOM     20  C   UNL     1      -0.574  11.375  19.328  0.00  0.00    +0.000 A 
ATOM     21  C   UNL     1      -1.726  12.054  18.923  0.00  0.00    +0.000 A 
ATOM     22  C   UNL     1      -2.495  11.560  17.872  0.00  0.00    +0.000 A 
ATOM     23  C   UNL     1      -2.102  10.399  17.210  0.00  0.00    +0.000 A 
ATOM     24  C   UNL     1      -0.961   9.711  17.624  0.00  0.00    +0.000 A 
ENDBRANCH  18  19
ENDBRANCH   2  18
BRANCH   9  25
ATOM     25  C   UNL     1       3.166   2.283  19.611  0.00  0.00    +0.000 C 
BRANCH  25  26
ATOM     26  C   UNL     1       2.547   3.136  20.692  0.00  0.00    +0.000 C 
ATOM     27  C   UNL     1       1.065   3.431  20.687  0.00  0.00    +0.000 C 
ATOM     28  C   UNL     1       1.633   2.502  21.716  0.00  0.00    +0.000 C 
ENDBRANCH  25  26
ENDBRANCH   9  25
TORSDOF 5
ENDMDL
MODEL 2
REMARK VINA RESULT:      -8.4      0.636      1.169
REMARK  Name = 
REMARK  5 active torsions:
REMARK  status: ('A' for Active; 'I' for Inactive)
REMARK    1  A    between atoms: C_2  and  C_3
REMARK    2  A    between atoms: C_3  and  C_4
REMARK    3  A    between atoms: C_12  and  C_13
REMARK    4  A    between atoms: N_21  and  C_22
REMARK    5  A    between atoms: C_22  and  C_23
REMARK                            x       y       z     vdW  Elec       q    Type
REMARK                         _______ _______ _______ _____ _____    ______ ____
ROOT
ATOM      1  O   UNL     1       2.619  10.074  17.428  0.00  0.00    +0.000 OA
ATOM      2  C   UNL     1       2.203   9.116  18.075  0.00  0.00    +0.000 C 
ATOM      3  N   UNL     1       2.737   7.851  17.922  0.00  0.00    +0.000 N 
ATOM      4  C   UNL     1       3.845   7.620  17.036  0.00  0.00    +0.000 C 
ATOM      5  C   UNL     1       4.520   6.390  17.641  0.00  0.00    +0.000 C 
ATOM      6  C   UNL     1       3.343   5.556  18.260  0.00  0.00    +0.000 C 
ATOM      7  C   UNL     1       3.689   5.127  19.708  0.00  0.00    +0.000 C 
ATOM      8  C   UNL     1       4.707   3.987  19.719  0.00  0.00    +0.000 C 
ATOM      9  N   UNL     1       4.211   2.778  19.032  0.00  0.00    +0.000 NA
ATOM     10  C   UNL     1       3.886   3.103  17.635  0.00  0.00    +0.000 C 
ATOM     11  C   UNL     1       2.921   4.291  17.475  0.00  0.00    +0.000 C 
ATOM     12  C   UNL     1       2.173   6.579  18.332  0.00  0.00    +0.000 C 
ENDROOT
BRANCH   5  13
ATOM     13  C   UNL     1       5.416   5.753  16.647  0.00  0.00    +0.000 A 
ATOM     14  N   UNL     1       6.600   5.207  16.839  0.00  0.00    +0.000 NA
ATOM     15  C   UNL     1       7.052   4.946  15.570  0.00  0.00    +0.000 A 
ATOM     16  C   UNL     1       6.101   5.312  14.652  0.00  0.00    +0.000 A 
ATOM     17  O   UNL     1       5.041   5.825  15.331  0.00  0.00    +0.000 OA
ENDBRANCH   5  13
BRANCH   2  18
ATOM     18  C   UNL     1       1.131   9.306  19.148  0.00  0.00    +0.000 C 
BRANCH  18  19
ATOM     19  C   UNL     1      -0.077  10.084  18.687  0.00  0.00    +0.000 A 
ATOM     20  C   UNL     1      -0.855   9.644  17.607  0.00  0.00    +0.000 A 
ATOM     21  C   UNL     1      -1.953  10.391  17.172  0.00  0.00    +0.000 A 
ATOM     22  C   UNL     1      -2.302  11.569  17.830  0.00  0.00    +0.000 A 
ATOM     23  C   UNL     1      -1.568  11.988  18.938  0.00  0.00    +0.000 A 
ATOM     24  C   UNL     1      -0.462  11.251  19.363  0.00  0.00    +0.000 A 
ENDBRANCH  18  19
ENDBRANCH   2  18
BRANCH   9  25
ATOM     25  C   UNL     1       3.094   2.135  19.743  0.00  0.00    +0.000 C 
BRANCH  25  26
ATOM     26  C   UNL     1       2.530   3.007  20.838  0.00  0.00    +0.000 C 
ATOM     27  C   UNL     1       1.070   3.396  20.838  0.00  0.00    +0.000 C 
ATOM     28  C   UNL     1       1.576   2.415  21.850  0.00  0.00    +0.000 C 
ENDBRANCH  25  26
ENDBRANCH   9  25
TORSDOF 5
ENDMDL
MODEL 3
REMARK VINA RESULT:      -8.2      0.527      1.128
REMARK  Name = 
REMARK  5 active torsions:
REMARK  status: ('A' for Active; 'I' for Inactive)
REMARK    1  A    between atoms: C_2  and  C_3
REMARK    2  A    between atoms: C_3  and  C_4
REMARK    3  A    between atoms: C_12  and  C_13
REMARK    4  A    between atoms: N_21  and  C_22
REMARK    5  A    between atoms: C_22  and  C_23
REMARK                            x       y       z     vdW  Elec       q    Type
REMARK                         _______ _______ _______ _____ _____    ______ ____
ROOT
ATOM      1  O   UNL     1       2.544  10.177  17.471  0.00  0.00    +0.000 OA
ATOM      2  C   UNL     1       2.158   9.193  18.096  0.00  0.00    +0.000 C 
ATOM      3  N   UNL     1       2.724   7.947  17.908  0.00  0.00    +0.000 N 
ATOM      4  C   UNL     1       3.832   7.768  17.009  0.00  0.00    +0.000 C 
ATOM      5  C   UNL     1       4.544   6.541  17.578  0.00  0.00    +0.000 C 
ATOM      6  C   UNL     1       3.394   5.661  18.184  0.00  0.00    +0.000 C 
ATOM      7  C   UNL     1       3.762   5.206  19.619  0.00  0.00    +0.000 C 
ATOM      8  C   UNL     1       4.809   4.093  19.594  0.00  0.00    +0.000 C 
ATOM      9  N   UNL     1       4.341   2.889  18.880  0.00  0.00    +0.000 NA
ATOM     10  C   UNL     1       3.997   3.240  17.494  0.00  0.00    +0.000 C 
ATOM     11  C   UNL     1       3.000   4.405  17.370  0.00  0.00    +0.000 C 
ATOM     12  C   UNL     1       2.198   6.651  18.290  0.00  0.00    +0.000 C 
ENDROOT
BRANCH   5  13
ATOM     13  C   UNL     1       5.449   5.954  16.562  0.00  0.00    +0.000 A 
ATOM     14  N   UNL     1       5.326   5.963  15.250  0.00  0.00    +0.000 NA
ATOM     15  C   UNL     1       6.330   5.130  14.820  0.00  0.00    +0.000 A 
ATOM     16  C   UNL     1       7.050   4.676  15.895  0.00  0.00    +0.000 A 
ATOM     17  O   UNL     1       6.500   5.204  17.020  0.00  0.00    +0.000 OA
ENDBRANCH   5  13
BRANCH   2  18
ATOM     18  C   UNL     1       1.090   9.328  19.181  0.00  0.00    +0.000 C 
BRANCH  18  19
ATOM     19  C   UNL     1       0.262  10.586  19.083  0.00  0.00    +0.000 A 
ATOM     20  C   UNL     1      -0.871  10.647  18.258  0.00  0.00    +0.000 A 
ATOM     21  C   UNL     1      -1.610  11.828  18.154  0.00  0.00    +0.000 A 
ATOM     22  C   UNL     1      -1.243  12.949  18.896  0.00  0.00    +0.000 A 
ATOM     23  C   UNL     1      -0.151  12.884  19.759  0.00  0.00    +0.000 A 
ATOM     24  C   UNL     1       0.597  11.710  19.851  0.00  0.00    +0.000 A 
ENDBRANCH  18  19
ENDBRANCH   2  18
BRANCH   9  25
ATOM     25  C   UNL     1       3.247   2.198  19.582  0.00  0.00    +0.000 C 
BRANCH  25  26
ATOM     26  C   UNL     1       2.570   3.081  20.603  0.00  0.00    +0.000 C 
ATOM     27  C   UNL     1       1.063   3.188  20.651  0.00  0.00    +0.000 C 
ATOM     28  C   UNL     1       1.790   2.454  21.735  0.00  0.00    +0.000 C 
ENDBRANCH  25  26
ENDBRANCH   9  25
TORSDOF 5
ENDMDL
MODEL 4
REMARK VINA RESULT:      -8.1      2.144      4.578
REMARK  Name = 
REMARK  5 active torsions:
REMARK  status: ('A' for Active; 'I' for Inactive)
REMARK    1  A    between atoms: C_2  and  C_3
REMARK    2  A    between atoms: C_3  and  C_4
REMARK    3  A    between atoms: C_12  and  C_13
REMARK    4  A    between atoms: N_21  and  C_22
REMARK    5  A    between atoms: C_22  and  C_23
REMARK                            x       y       z     vdW  Elec       q    Type
REMARK                         _______ _______ _______ _____ _____    ______ ____
ROOT
ATOM      1  O   UNL     1       0.017   9.045  21.816  0.00  0.00    +0.000 OA
ATOM      2  C   UNL     1       0.747   8.987  20.831  0.00  0.00    +0.000 C 
ATOM      3  N   UNL     1       1.382   7.815  20.468  0.00  0.00    +0.000 N 
ATOM      4  C   UNL     1       1.164   6.599  21.203  0.00  0.00    +0.000 C 
ATOM      5  C   UNL     1       1.438   5.513  20.163  0.00  0.00    +0.000 C 
ATOM      6  C   UNL     1       2.553   6.120  19.241  0.00  0.00    +0.000 C 
ATOM      7  C   UNL     1       2.173   5.945  17.749  0.00  0.00    +0.000 C 
ATOM      8  C   UNL     1       2.370   4.499  17.294  0.00  0.00    +0.000 C 
ATOM      9  N   UNL     1       3.769   4.048  17.426  0.00  0.00    +0.000 NA
ATOM     10  C   UNL     1       4.194   4.160  18.829  0.00  0.00    +0.000 C 
ATOM     11  C   UNL     1       3.981   5.556  19.440  0.00  0.00    +0.000 C 
ATOM     12  C   UNL     1       2.507   7.640  19.569  0.00  0.00    +0.000 C 
ENDROOT
BRANCH   5  13
ATOM     13  C   UNL     1       1.676   4.211  20.830  0.00  0.00    +0.000 A 
ATOM     14  N   UNL     1       2.361   3.964  21.929  0.00  0.00    +0.000 NA
ATOM     15  C   UNL     1       2.411   2.593  21.984  0.00  0.00    +0.000 A 
ATOM     16  C   UNL     1       1.717   2.059  20.930  0.00  0.00    +0.000 A 
ATOM     17  O   UNL     1       1.232   3.087  20.184  0.00  0.00    +0.000 OA
ENDBRANCH   5  13
BRANCH   2  18
ATOM     18  C   UNL     1       0.912  10.195  19.909  0.00  0.00    +0.000 C 
BRANCH  18  19
ATOM     19  C   UNL     1      -0.320  10.534  19.105  0.00  0.00    +0.000 A 
ATOM     20  C   UNL     1      -0.631   9.841  17.926  0.00  0.00    +0.000 A 
ATOM     21  C   UNL     1      -1.758  10.186  17.176  0.00  0.00    +0.000 A 
ATOM     22  C   UNL     1      -2.601  11.207  17.612  0.00  0.00    +0.000 A 
ATOM     23  C   UNL     1      -2.331  11.867  18.809  0.00  0.00    +0.000 A 
ATOM     24  C   UNL     1      -1.197  11.533  19.551  0.00  0.00    +0.000 A 
ENDBRANCH  18  19
ENDBRANCH   2  18
BRANCH   9  25
ATOM     25  C   UNL     1       4.680   4.736  16.497  0.00  0.00    +0.000 C 
BRANCH  25  26
ATOM     26  C   UNL     1       6.000   4.019  16.348  0.00  0.00    +0.000 C 
ATOM     27  C   UNL     1       7.067   4.553  15.420  0.00  0.00    +0.000 C 
ATOM     28  C   UNL     1       7.259   4.644  16.903  0.00  0.00    +0.000 C 
ENDBRANCH  25  26
ENDBRANCH   9  25
TORSDOF 5
ENDMDL
MODEL 5
REMARK VINA RESULT:      -7.9      2.019      4.604
REMARK  Name = 
REMARK  5 active torsions:
REMARK  status: ('A' for Active; 'I' for Inactive)
REMARK    1  A    between atoms: C_2  and  C_3
REMARK    2  A    between atoms: C_3  and  C_4
REMARK    3  A    between atoms: C_12  and  C_13
REMARK    4  A    between atoms: N_21  and  C_22
REMARK    5  A    between atoms: C_22  and  C_23
REMARK                            x       y       z     vdW  Elec       q    Type
REMARK                         _______ _______ _______ _____ _____    ______ ____
ROOT
ATOM      1  O   UNL     1      -0.050   8.576  21.349  0.00  0.00    +0.000 OA
ATOM      2  C   UNL     1       0.836   8.613  20.499  0.00  0.00    +0.000 C 
ATOM      3  N   UNL     1       1.592   7.497  20.193  0.00  0.00    +0.000 N 
ATOM      4  C   UNL     1       1.328   6.231  20.821  0.00  0.00    +0.000 C 
ATOM      5  C   UNL     1       1.836   5.222  19.792  0.00  0.00    +0.000 C 
ATOM      6  C   UNL     1       3.050   5.938  19.101  0.00  0.00    +0.000 C 
ATOM      7  C   UNL     1       2.935   5.830  17.560  0.00  0.00    +0.000 C 
ATOM      8  C   UNL     1       3.291   4.424  17.076  0.00  0.00    +0.000 C 
ATOM      9  N   UNL     1       4.673   4.039  17.420  0.00  0.00    +0.000 NA
ATOM     10  C   UNL     1       4.852   4.092  18.879  0.00  0.00    +0.000 C 
ATOM     11  C   UNL     1       4.457   5.438  19.511  0.00  0.00    +0.000 C 
ATOM     12  C   UNL     1       2.859   7.432  19.490  0.00  0.00    +0.000 C 
ENDROOT
BRANCH   5  13
ATOM     13  C   UNL     1       2.039   3.898  20.426  0.00  0.00    +0.000 A 
ATOM     14  N   UNL     1       1.954   2.704  19.876  0.00  0.00    +0.000 NA
ATOM     15  C   UNL     1       2.051   1.844  20.942  0.00  0.00    +0.000 A 
ATOM     16  C   UNL     1       2.230   2.556  22.100  0.00  0.00    +0.000 A 
ATOM     17  O   UNL     1       2.232   3.877  21.781  0.00  0.00    +0.000 OA
ENDBRANCH   5  13
BRANCH   2  18
ATOM     18  C   UNL     1       1.078   9.878  19.677  0.00  0.00    +0.000 C 
BRANCH  18  19
ATOM     19  C   UNL     1      -0.163  10.446  19.033  0.00  0.00    +0.000 A 
ATOM     20  C   UNL     1      -0.720   9.859  17.888  0.00  0.00    +0.000 A 
ATOM     21  C   UNL     1      -1.851  10.414  17.285  0.00  0.00    +0.000 A 
ATOM     22  C   UNL     1      -2.455  11.542  17.837  0.00  0.00    +0.000 A 
ATOM     23  C   UNL     1      -1.941  12.103  19.004  0.00  0.00    +0.000 A 
ATOM     24  C   UNL     1      -0.802  11.559  19.599  0.00  0.00    +0.000 A 
ENDBRANCH  18  19
ENDBRANCH   2  18
BRANCH   9  25
ATOM     25  C   UNL     1       5.683   4.825  16.693  0.00  0.00    +0.000 C 
BRANCH  25  26
ATOM     26  C   UNL     1       6.294   4.058  15.545  0.00  0.00    +0.000 C 
ATOM     27  C   UNL     1       5.706   4.149  14.156  0.00  0.00    +0.000 C 
ATOM     28  C   UNL     1       7.021   4.801  14.449  0.00  0.00    +0.000 C 
ENDBRANCH  25  26
ENDBRANCH   9  25
TORSDOF 5
ENDMDL
MODEL 6
REMARK VINA RESULT:      -7.2      2.078      4.592
REMARK  Name = 
REMARK  5 active torsions:
REMARK  status: ('A' for Active; 'I' for Inactive)
REMARK    1  A    between atoms: C_2  and  C_3
REMARK    2  A    between atoms: C_3  and  C_4
REMARK    3  A    between atoms: C_12  and  C_13
REMARK    4  A    between atoms: N_21  and  C_22
REMARK    5  A    between atoms: C_22  and  C_23
REMARK                            x       y       z     vdW  Elec       q    Type
REMARK                         _______ _______ _______ _____ _____    ______ ____
ROOT
ATOM      1  O   UNL     1       0.428   9.283  20.397  0.00  0.00    +0.000 OA
ATOM      2  C   UNL     1       1.329   9.041  19.599  0.00  0.00    +0.000 C 
ATOM      3  N   UNL     1       1.935   7.800  19.545  0.00  0.00    +0.000 N 
ATOM      4  C   UNL     1       1.490   6.724  20.388  0.00  0.00    +0.000 C 
ATOM      5  C   UNL     1       1.880   5.478  19.593  0.00  0.00    +0.000 C 
ATOM      6  C   UNL     1       3.194   5.886  18.837  0.00  0.00    +0.000 C 
ATOM      7  C   UNL     1       3.098   5.497  17.341  0.00  0.00    +0.000 C 
ATOM      8  C   UNL     1       3.273   3.990  17.149  0.00  0.00    +0.000 C 
ATOM      9  N   UNL     1       4.583   3.506  17.624  0.00  0.00    +0.000 NA
ATOM     10  C   UNL     1       4.736   3.818  19.053  0.00  0.00    +0.000 C 
ATOM     11  C   UNL     1       4.511   5.300  19.400  0.00  0.00    +0.000 C 
ATOM     12  C   UNL     1       3.196   7.439  18.926  0.00  0.00    +0.000 C 
ENDROOT
BRANCH   5  13
ATOM     13  C   UNL     1       1.890   4.287  20.475  0.00  0.00    +0.000 A 
ATOM     14  N   UNL     1       2.345   4.182  21.707  0.00  0.00    +0.000 NA
ATOM     15  C   UNL     1       2.274   2.836  21.970  0.00  0.00    +0.000 A 
ATOM     16  C   UNL     1       1.739   2.179  20.893  0.00  0.00    +0.000 A 
ATOM     17  O   UNL     1       1.479   3.101  19.928  0.00  0.00    +0.000 OA
ENDBRANCH   5  13
BRANCH   2  18
ATOM     18  C   UNL     1       1.755  10.082  18.564  0.00  0.00    +0.000 C 
BRANCH  18  19
ATOM     19  C   UNL     1       1.029  11.399  18.675  0.00  0.00    +0.000 A 
ATOM     20  C   UNL     1      -0.365  11.475  18.532  0.00  0.00    +0.000 A 
ATOM     21  C   UNL     1      -1.020  12.706  18.606  0.00  0.00    +0.000 A 
ATOM     22  C   UNL     1      -0.295  13.870  18.853  0.00  0.00    +0.000 A 
ATOM     23  C   UNL     1       1.083  13.801  19.049  0.00  0.00    +0.000 A 
ATOM     24  C   UNL     1       1.741  12.574  18.959  0.00  0.00    +0.000 A 
ENDBRANCH  18  19
ENDBRANCH   2  18
BRANCH   9  25
ATOM     25  C   UNL     1       5.704   4.002  16.809  0.00  0.00    +0.000 C 
BRANCH  25  26
ATOM     26  C   UNL     1       5.323   4.193  15.360  0.00  0.00    +0.000 C 
ATOM     27  C   UNL     1       6.032   5.218  14.506  0.00  0.00    +0.000 C 
ATOM     28  C   UNL     1       6.278   3.760  14.271  0.00  0.00    +0.000 C 
ENDBRANCH  25  26
ENDBRANCH   9  25
TORSDOF 5
ENDMDL
MODEL 7
REMARK VINA RESULT:      -7.1      3.955      9.655
REMARK  Name = 
REMARK  5 active torsions:
REMARK  status: ('A' for Active; 'I' for Inactive)
REMARK    1  A    between atoms: C_2  and  C_3
REMARK    2  A    between atoms: C_3  and  C_4
REMARK    3  A    between atoms: C_12  and  C_13
REMARK    4  A    between atoms: N_21  and  C_22
REMARK    5  A    between atoms: C_22  and  C_23
REMARK                            x       y       z     vdW  Elec       q    Type
REMARK                         _______ _______ _______ _____ _____    ______ ____
ROOT
ATOM      1  O   UNL     1       1.067   7.356  20.894  0.00  0.00    +0.000 OA
ATOM      2  C   UNL     1       1.408   8.221  20.092  0.00  0.00    +0.000 C 
ATOM      3  N   UNL     1       0.968   9.526  20.204  0.00  0.00    +0.000 N 
ATOM      4  C   UNL     1       0.137   9.934  21.305  0.00  0.00    +0.000 C 
ATOM      5  C   UNL     1       0.447  11.424  21.439  0.00  0.00    +0.000 C 
ATOM      6  C   UNL     1       0.737  11.902  19.972  0.00  0.00    +0.000 C 
ATOM      7  C   UNL     1       2.044  12.733  19.924  0.00  0.00    +0.000 C 
ATOM      8  C   UNL     1       1.831  14.132  20.501  0.00  0.00    +0.000 C 
ATOM      9  N   UNL     1       0.816  14.904  19.758  0.00  0.00    +0.000 NA
ATOM     10  C   UNL     1      -0.467  14.186  19.783  0.00  0.00    +0.000 C 
ATOM     11  C   UNL     1      -0.381  12.730  19.294  0.00  0.00    +0.000 C 
ATOM     12  C   UNL     1       0.988  10.574  19.201  0.00  0.00    +0.000 C 
ENDROOT
BRANCH   5  13
ATOM     13  C   UNL     1      -0.610  12.100  22.227  0.00  0.00    +0.000 A 
ATOM     14  N   UNL     1      -0.489  13.106  23.070  0.00  0.00    +0.000 NA
ATOM     15  C   UNL     1      -1.732  13.205  23.645  0.00  0.00    +0.000 A 
ATOM     16  C   UNL     1      -2.574  12.273  23.095  0.00  0.00    +0.000 A 
ATOM     17  O   UNL     1      -1.868  11.562  22.177  0.00  0.00    +0.000 OA
ENDBRANCH   5  13
BRANCH   2  18
ATOM     18  C   UNL     1       2.410   7.906  18.982  0.00  0.00    +0.000 C 
BRANCH  18  19
ATOM     19  C   UNL     1       2.686   6.434  18.796  0.00  0.00    +0.000 A 
ATOM     20  C   UNL     1       3.737   5.800  19.475  0.00  0.00    +0.000 A 
ATOM     21  C   UNL     1       3.999   4.444  19.268  0.00  0.00    +0.000 A 
ATOM     22  C   UNL     1       3.197   3.701  18.405  0.00  0.00    +0.000 A 
ATOM     23  C   UNL     1       2.118   4.307  17.765  0.00  0.00    +0.000 A 
ATOM     24  C   UNL     1       1.865   5.665  17.958  0.00  0.00    +0.000 A 
ENDBRANCH  18  19
ENDBRANCH   2  18
BRANCH   9  25
ATOM     25  C   UNL     1       1.249  15.251  18.394  0.00  0.00    +0.000 C 
BRANCH  25  26
ATOM     26  C   UNL     1       2.558  16.004  18.379  0.00  0.00    +0.000 C 
ATOM     27  C   UNL     1       3.667  15.603  17.434  0.00  0.00    +0.000 C 
ATOM     28  C   UNL     1       2.909  16.872  17.193  0.00  0.00    +0.000 C 
ENDBRANCH  25  26
ENDBRANCH   9  25
TORSDOF 5
ENDMDL
MODEL 8
REMARK VINA RESULT:      -7.1      2.219      4.624
REMARK  Name = 
REMARK  5 active torsions:
REMARK  status: ('A' for Active; 'I' for Inactive)
REMARK    1  A    between atoms: C_2  and  C_3
REMARK    2  A    between atoms: C_3  and  C_4
REMARK    3  A    between atoms: C_12  and  C_13
REMARK    4  A    between atoms: N_21  and  C_22
REMARK    5  A    between atoms: C_22  and  C_23
REMARK                            x       y       z     vdW  Elec       q    Type
REMARK                         _______ _______ _______ _____ _____    ______ ____
ROOT
ATOM      1  O   UNL     1       0.506   9.510  20.007  0.00  0.00    +0.000 OA
ATOM      2  C   UNL     1       1.412   9.195  19.240  0.00  0.00    +0.000 C 
ATOM      3  N   UNL     1       1.988   7.940  19.277  0.00  0.00    +0.000 N 
ATOM      4  C   UNL     1       1.505   6.931  20.181  0.00  0.00    +0.000 C 
ATOM      5  C   UNL     1       1.876   5.628  19.475  0.00  0.00    +0.000 C 
ATOM      6  C   UNL     1       3.210   5.954  18.715  0.00  0.00    +0.000 C 
ATOM      7  C   UNL     1       3.126   5.470  17.246  0.00  0.00    +0.000 C 
ATOM      8  C   UNL     1       3.267   3.951  17.155  0.00  0.00    +0.000 C 
ATOM      9  N   UNL     1       4.558   3.468  17.681  0.00  0.00    +0.000 NA
ATOM     10  C   UNL     1       4.698   3.869  19.090  0.00  0.00    +0.000 C 
ATOM     11  C   UNL     1       4.505   5.375  19.336  0.00  0.00    +0.000 C 
ATOM     12  C   UNL     1       3.249   7.509  18.703  0.00  0.00    +0.000 C 
ENDROOT
BRANCH   5  13
ATOM     13  C   UNL     1       1.844   4.497  20.433  0.00  0.00    +0.000 A 
ATOM     14  N   UNL     1       2.360   4.432  21.643  0.00  0.00    +0.000 NA
ATOM     15  C   UNL     1       2.199   3.115  21.999  0.00  0.00    +0.000 A 
ATOM     16  C   UNL     1       1.553   2.438  20.997  0.00  0.00    +0.000 A 
ATOM     17  O   UNL     1       1.311   3.316  19.988  0.00  0.00    +0.000 OA
ENDBRANCH   5  13
BRANCH   2  18
ATOM     18  C   UNL     1       1.879  10.156  18.148  0.00  0.00    +0.000 C 
BRANCH  18  19
ATOM     19  C   UNL     1       1.512  11.599  18.392  0.00  0.00    +0.000 A 
ATOM     20  C   UNL     1       2.480  12.612  18.346  0.00  0.00    +0.000 A 
ATOM     21  C   UNL     1       2.130  13.940  18.605  0.00  0.00    +0.000 A 
ATOM     22  C   UNL     1       0.806  14.272  18.883  0.00  0.00    +0.000 A 
ATOM     23  C   UNL     1      -0.174  13.281  18.879  0.00  0.00    +0.000 A 
ATOM     24  C   UNL     1       0.177  11.953  18.636  0.00  0.00    +0.000 A 
ENDBRANCH  18  19
ENDBRANCH   2  18
BRANCH   9  25
ATOM     25  C   UNL     1       5.703   3.883  16.854  0.00  0.00    +0.000 C 
BRANCH  25  26
ATOM     26  C   UNL     1       5.313   4.135  15.417  0.00  0.00    +0.000 C 
ATOM     27  C   UNL     1       5.932   5.274  14.640  0.00  0.00    +0.000 C 
ATOM     28  C   UNL     1       6.307   3.862  14.312  0.00  0.00    +0.000 C 
ENDBRANCH  25  26
ENDBRANCH   9  25
TORSDOF 5
ENDMDL
MODEL 9
REMARK VINA RESULT:      -7.1      1.325      2.081
REMARK  Name = 
REMARK  5 active torsions:
REMARK  status: ('A' for Active; 'I' for Inactive)
REMARK    1  A    between atoms: C_2  and  C_3
REMARK    2  A    between atoms: C_3  and  C_4
REMARK    3  A    between atoms: C_12  and  C_13
REMARK    4  A    between atoms: N_21  and  C_22
REMARK    5  A    between atoms: C_22  and  C_23
REMARK                            x       y       z     vdW  Elec       q    Type
REMARK                         _______ _______ _______ _____ _____    ______ ____
ROOT
ATOM      1  O   UNL     1       2.244  10.384  17.348  0.00  0.00    +0.000 OA
ATOM      2  C   UNL     1       1.761   9.350  17.801  0.00  0.00    +0.000 C 
ATOM      3  N   UNL     1       2.464   8.160  17.796  0.00  0.00    +0.000 N 
ATOM      4  C   UNL     1       3.817   8.103  17.311  0.00  0.00    +0.000 C 
ATOM      5  C   UNL     1       4.407   6.915  18.071  0.00  0.00    +0.000 C 
ATOM      6  C   UNL     1       3.203   5.925  18.254  0.00  0.00    +0.000 C 
ATOM      7  C   UNL     1       3.118   5.445  19.725  0.00  0.00    +0.000 C 
ATOM      8  C   UNL     1       4.208   4.420  20.035  0.00  0.00    +0.000 C 
ATOM      9  N   UNL     1       4.106   3.211  19.194  0.00  0.00    +0.000 NA
ATOM     10  C   UNL     1       4.207   3.587  17.776  0.00  0.00    +0.000 C 
ATOM     11  C   UNL     1       3.208   4.674  17.342  0.00  0.00    +0.000 C 
ATOM     12  C   UNL     1       1.957   6.813  17.970  0.00  0.00    +0.000 C 
ENDROOT
BRANCH   5  13
ATOM     13  C   UNL     1       5.642   6.441  17.404  0.00  0.00    +0.000 A 
ATOM     14  N   UNL     1       5.898   6.356  16.114  0.00  0.00    +0.000 NA
ATOM     15  C   UNL     1       7.097   5.689  16.060  0.00  0.00    +0.000 A 
ATOM     16  C   UNL     1       7.542   5.429  17.330  0.00  0.00    +0.000 A 
ATOM     17  O   UNL     1       6.621   5.914  18.204  0.00  0.00    +0.000 OA
ENDBRANCH   5  13
BRANCH   2  18
ATOM     18  C   UNL     1       0.389   9.358  18.473  0.00  0.00    +0.000 C 
BRANCH  18  19
ATOM     19  C   UNL     1       0.434   9.543  19.970  0.00  0.00    +0.000 A 
ATOM     20  C   UNL     1      -0.295  10.564  20.597  0.00  0.00    +0.000 A 
ATOM     21  C   UNL     1      -0.220  10.743  21.981  0.00  0.00    +0.000 A 
ATOM     22  C   UNL     1       0.560   9.885  22.755  0.00  0.00    +0.000 A 
ATOM     23  C   UNL     1       1.246   8.835  22.149  0.00  0.00    +0.000 A 
ATOM     24  C   UNL     1       1.184   8.665  20.766  0.00  0.00    +0.000 A 
ENDBRANCH  18  19
ENDBRANCH   2  18
BRANCH   9  25
ATOM     25  C   UNL     1       2.907   2.410  19.489  0.00  0.00    +0.000 C 
BRANCH  25  26
ATOM     26  C   UNL     1       1.910   3.158  20.341  0.00  0.00    +0.000 C 
ATOM     27  C   UNL     1       0.458   2.741  20.372  0.00  0.00    +0.000 C 
ATOM     28  C   UNL     1       1.326   2.494  21.567  0.00  0.00    +0.000 C 
ENDBRANCH  25  26
ENDBRANCH   9  25
TORSDOF 5
ENDMDL
