MODEL 1
REMARK VINA RESULT:      -8.8      0.000      0.000
REMARK  Name = 
REMARK  10 active torsions:
REMARK  status: ('A' for Active; 'I' for Inactive)
REMARK    1  A    between atoms: C_1  and  C_2
REMARK    2  A    between atoms: C_5  and  C_6
REMARK    3  A    between atoms: C_9  and  C_10
REMARK    4  A    between atoms: C_14  and  C_15
REMARK    5  A    between atoms: C_15  and  O_16
REMARK    6  A    between atoms: O_16  and  C_17
REMARK    7  A    between atoms: C_21  and  C_22
REMARK    8  A    between atoms: C_22  and  C_23
REMARK    9  A    between atoms: C_23  and  C_24
REMARK   10  A    between atoms: C_24  and  O_26
REMARK                            x       y       z     vdW  Elec       q    Type
REMARK                         _______ _______ _______ _____ _____    ______ ____
ROOT
ATOM      1  C   UNL     1       4.449   3.616  18.598  0.00  0.00    +0.000 A 
ATOM      2  N   UNL     1       4.767   2.478  19.235  0.00  0.00    +0.000 NA
ATOM      3  O   UNL     1       3.880   2.350  20.281  0.00  0.00    +0.000 OA
ATOM      4  C   UNL     1       3.010   3.392  20.280  0.00  0.00    +0.000 A 
ATOM      5  C   UNL     1       3.311   4.229  19.224  0.00  0.00    +0.000 A 
ENDROOT
BRANCH   1  10
ATOM      6  C   UNL     1       7.495   5.111  13.898  0.00  0.00    +0.000 C 
ATOM      7  C   UNL     1       6.704   4.775  15.125  0.00  0.00    +0.000 A 
ATOM      8  C   UNL     1       7.235   4.939  16.409  0.00  0.00    +0.000 A 
ATOM      9  C   UNL     1       6.490   4.582  17.541  0.00  0.00    +0.000 A 
ATOM     10  C   UNL     1       5.195   4.059  17.411  0.00  0.00    +0.000 A 
ATOM     11  C   UNL     1       4.654   3.950  16.124  0.00  0.00    +0.000 A 
ATOM     12  C   UNL     1       5.405   4.282  14.992  0.00  0.00    +0.000 A 
ENDBRANCH   1  10
BRANCH   4  13
ATOM     13  C   UNL     1       1.991   3.396  21.350  0.00  0.00    +0.000 C 
ATOM     14  F   UNL     1       2.355   4.151  22.420  0.00  0.00    +0.000 F 
ATOM     15  F   UNL     1       0.805   3.898  20.913  0.00  0.00    +0.000 F 
ATOM     16  F   UNL     1       1.746   2.149  21.829  0.00  0.00    +0.000 F 
ENDBRANCH   4  13
BRANCH   5  17
ATOM     17  C   UNL     1       2.627   5.476  18.789  0.00  0.00    +0.000 C 
BRANCH  17  18
ATOM     18  O   UNL     1       3.005   6.631  19.532  0.00  0.00    +0.000 OA
BRANCH  18  19
ATOM     19  C   UNL     1       2.191   7.727  19.368  0.00  0.00    +0.000 A 
ATOM     20  C   UNL     1       2.058   8.512  18.218  0.00  0.00    +0.000 A 
ATOM     21  F   UNL     1       2.766   8.257  17.106  0.00  0.00    +0.000 F 
ATOM     22  C   UNL     1       1.191   9.603  18.171  0.00  0.00    +0.000 A 
ATOM     23  C   UNL     1       0.415   9.940  19.285  0.00  0.00    +0.000 A 
ATOM     24  C   UNL     1       0.544   9.167  20.446  0.00  0.00    +0.000 A 
ATOM     25  C   UNL     1       1.421   8.080  20.476  0.00  0.00    +0.000 A 
ATOM     26  F   UNL     1       1.520   7.373  21.614  0.00  0.00    +0.000 F 
BRANCH  23  27
ATOM     27  C   UNL     1      -0.504  11.135  19.254  0.00  0.00    +0.000 C 
BRANCH  27  28
ATOM     28  C   UNL     1       0.241  12.466  19.375  0.00  0.00    +0.000 C 
BRANCH  28  29
ATOM     29  C   UNL     1      -0.335  13.491  18.430  0.00  0.00    +0.000 C 
ATOM     30  O   UNL     1      -0.216  14.700  18.546  0.00  0.00    +0.000 OA
BRANCH  29  31
ATOM     31  O   UNL     1      -1.010  12.926  17.404  0.00  0.00    +0.000 OA
ATOM     32  H   UNL     1      -1.740  12.339  17.680  0.00  0.00    +0.000 HD
ENDBRANCH  29  31
ENDBRANCH  28  29
ENDBRANCH  27  28
ENDBRANCH  23  27
ENDBRANCH  18  19
ENDBRANCH  17  18
ENDBRANCH   5  17
TORSDOF 9
ENDMDL
MODEL 2
REMARK VINA RESULT:      -8.8      1.017      2.069
REMARK  Name = 
REMARK  10 active torsions:
REMARK  status: ('A' for Active; 'I' for Inactive)
REMARK    1  A    between atoms: C_1  and  C_2
REMARK    2  A    between atoms: C_5  and  C_6
REMARK    3  A    between atoms: C_9  and  C_10
REMARK    4  A    between atoms: C_14  and  C_15
REMARK    5  A    between atoms: C_15  and  O_16
REMARK    6  A    between atoms: O_16  and  C_17
REMARK    7  A    between atoms: C_21  and  C_22
REMARK    8  A    between atoms: C_22  and  C_23
REMARK    9  A    between atoms: C_23  and  C_24
REMARK   10  A    between atoms: C_24  and  O_26
REMARK                            x       y       z     vdW  Elec       q    Type
REMARK                         _______ _______ _______ _____ _____    ______ ____
ROOT
ATOM      1  C   UNL     1       4.458   3.736  18.621  0.00  0.00    +0.000 A 
ATOM      2  N   UNL     1       4.832   2.669  19.344  0.00  0.00    +0.000 NA
ATOM      3  O   UNL     1       3.918   2.545  20.367  0.00  0.00    +0.000 OA
ATOM      4  C   UNL     1       2.976   3.517  20.267  0.00  0.00    +0.000 A 
ATOM      5  C   UNL     1       3.256   4.303  19.166  0.00  0.00    +0.000 A 
ENDROOT
BRANCH   1  10
ATOM      6  C   UNL     1       7.551   5.136  13.923  0.00  0.00    +0.000 C 
ATOM      7  C   UNL     1       6.746   4.824  15.148  0.00  0.00    +0.000 A 
ATOM      8  C   UNL     1       7.249   5.049  16.434  0.00  0.00    +0.000 A 
ATOM      9  C   UNL     1       6.492   4.715  17.565  0.00  0.00    +0.000 A 
ATOM     10  C   UNL     1       5.214   4.155  17.431  0.00  0.00    +0.000 A 
ATOM     11  C   UNL     1       4.699   3.984  16.140  0.00  0.00    +0.000 A 
ATOM     12  C   UNL     1       5.462   4.294  15.010  0.00  0.00    +0.000 A 
ENDBRANCH   1  10
BRANCH   4  13
ATOM     13  C   UNL     1       1.920   3.515  21.300  0.00  0.00    +0.000 C 
ATOM     14  F   UNL     1       1.590   2.262  21.712  0.00  0.00    +0.000 F 
ATOM     15  F   UNL     1       2.305   4.195  22.413  0.00  0.00    +0.000 F 
ATOM     16  F   UNL     1       0.770   4.087  20.859  0.00  0.00    +0.000 F 
ENDBRANCH   4  13
BRANCH   5  17
ATOM     17  C   UNL     1       2.502   5.464  18.626  0.00  0.00    +0.000 C 
BRANCH  17  18
ATOM     18  O   UNL     1       3.089   6.727  18.928  0.00  0.00    +0.000 OA
BRANCH  18  19
ATOM     19  C   UNL     1       2.201   7.732  19.226  0.00  0.00    +0.000 A 
ATOM     20  C   UNL     1       1.511   7.916  20.429  0.00  0.00    +0.000 A 
ATOM     21  F   UNL     1       1.656   7.068  21.461  0.00  0.00    +0.000 F 
ATOM     22  C   UNL     1       0.634   8.984  20.616  0.00  0.00    +0.000 A 
ATOM     23  C   UNL     1       0.424   9.915  19.594  0.00  0.00    +0.000 A 
ATOM     24  C   UNL     1       1.101   9.738  18.381  0.00  0.00    +0.000 A 
ATOM     25  C   UNL     1       1.974   8.661  18.211  0.00  0.00    +0.000 A 
ATOM     26  F   UNL     1       2.594   8.524  17.027  0.00  0.00    +0.000 F 
BRANCH  23  27
ATOM     27  C   UNL     1      -0.546  11.056  19.775  0.00  0.00    +0.000 C 
BRANCH  27  28
ATOM     28  C   UNL     1      -1.031  11.646  18.449  0.00  0.00    +0.000 C 
BRANCH  28  29
ATOM     29  C   UNL     1      -2.413  11.144  18.113  0.00  0.00    +0.000 C 
ATOM     30  O   UNL     1      -2.679  10.016  17.732  0.00  0.00    +0.000 OA
BRANCH  29  31
ATOM     31  O   UNL     1      -3.363  12.091  18.288  0.00  0.00    +0.000 OA
ATOM     32  H   UNL     1      -4.054  12.098  17.598  0.00  0.00    +0.000 HD
ENDBRANCH  29  31
ENDBRANCH  28  29
ENDBRANCH  27  28
ENDBRANCH  23  27
ENDBRANCH  18  19
ENDBRANCH  17  18
ENDBRANCH   5  17
TORSDOF 9
ENDMDL
MODEL 3
REMARK VINA RESULT:      -8.7      0.918      1.338
REMARK  Name = 
REMARK  10 active torsions:
REMARK  status: ('A' for Active; 'I' for Inactive)
REMARK    1  A    between atoms: C_1  and  C_2
REMARK    2  A    between atoms: C_5  and  C_6
REMARK    3  A    between atoms: C_9  and  C_10
REMARK    4  A    between atoms: C_14  and  C_15
REMARK    5  A    between atoms: C_15  and  O_16
REMARK    6  A    between atoms: O_16  and  C_17
REMARK    7  A    between atoms: C_21  and  C_22
REMARK    8  A    between atoms: C_22  and  C_23
REMARK    9  A    between atoms: C_23  and  C_24
REMARK   10  A    between atoms: C_24  and  O_26
REMARK                            x       y       z     vdW  Elec       q    Type
REMARK                         _______ _______ _______ _____ _____    ______ ____
ROOT
ATOM      1  C   UNL     1       4.445   3.616  18.603  0.00  0.00    +0.000 A 
ATOM      2  N   UNL     1       4.726   2.505  19.303  0.00  0.00    +0.000 NA
ATOM      3  O   UNL     1       3.806   2.439  20.325  0.00  0.00    +0.000 OA
ATOM      4  C   UNL     1       2.951   3.491  20.248  0.00  0.00    +0.000 A 
ATOM      5  C   UNL     1       3.297   4.273  19.163  0.00  0.00    +0.000 A 
ENDROOT
BRANCH   1  10
ATOM      6  C   UNL     1       7.441   5.350  13.953  0.00  0.00    +0.000 C 
ATOM      7  C   UNL     1       6.675   4.852  15.141  0.00  0.00    +0.000 A 
ATOM      8  C   UNL     1       5.427   4.234  15.004  0.00  0.00    +0.000 A 
ATOM      9  C   UNL     1       4.712   3.811  16.133  0.00  0.00    +0.000 A 
ATOM     10  C   UNL     1       5.235   3.993  17.421  0.00  0.00    +0.000 A 
ATOM     11  C   UNL     1       6.507   4.563  17.543  0.00  0.00    +0.000 A 
ATOM     12  C   UNL     1       7.212   5.009  16.420  0.00  0.00    +0.000 A 
ENDBRANCH   1  10
BRANCH   4  13
ATOM     13  C   UNL     1       1.900   3.559  21.283  0.00  0.00    +0.000 C 
ATOM     14  F   UNL     1       2.287   4.263  22.380  0.00  0.00    +0.000 F 
ATOM     15  F   UNL     1       0.774   4.164  20.818  0.00  0.00    +0.000 F 
ATOM     16  F   UNL     1       1.539   2.328  21.728  0.00  0.00    +0.000 F 
ENDBRANCH   4  13
BRANCH   5  17
ATOM     17  C   UNL     1       2.646   5.506  18.649  0.00  0.00    +0.000 C 
BRANCH  17  18
ATOM     18  O   UNL     1       3.113   6.705  19.261  0.00  0.00    +0.000 OA
BRANCH  18  19
ATOM     19  C   UNL     1       2.215   7.746  19.275  0.00  0.00    +0.000 A 
ATOM     20  C   UNL     1       1.950   8.643  18.234  0.00  0.00    +0.000 A 
ATOM     21  F   UNL     1       2.597   8.570  17.060  0.00  0.00    +0.000 F 
ATOM     22  C   UNL     1       1.008   9.662  18.367  0.00  0.00    +0.000 A 
ATOM     23  C   UNL     1       0.287   9.810  19.557  0.00  0.00    +0.000 A 
ATOM     24  C   UNL     1       0.549   8.925  20.609  0.00  0.00    +0.000 A 
ATOM     25  C   UNL     1       1.499   7.912  20.460  0.00  0.00    +0.000 A 
ATOM     26  F   UNL     1       1.725   7.092  21.499  0.00  0.00    +0.000 F 
BRANCH  23  27
ATOM     27  C   UNL     1      -0.713  10.927  19.720  0.00  0.00    +0.000 C 
BRANCH  27  28
ATOM     28  C   UNL     1      -0.791  11.844  18.498  0.00  0.00    +0.000 C 
BRANCH  28  29
ATOM     29  C   UNL     1      -2.127  11.707  17.809  0.00  0.00    +0.000 C 
ATOM     30  O   UNL     1      -3.199  11.575  18.375  0.00  0.00    +0.000 OA
BRANCH  29  31
ATOM     31  O   UNL     1      -2.020  11.753  16.462  0.00  0.00    +0.000 OA
ATOM     32  H   UNL     1      -1.751  10.908  16.052  0.00  0.00    +0.000 HD
ENDBRANCH  29  31
ENDBRANCH  28  29
ENDBRANCH  27  28
ENDBRANCH  23  27
ENDBRANCH  18  19
ENDBRANCH  17  18
ENDBRANCH   5  17
TORSDOF 9
ENDMDL
MODEL 4
REMARK VINA RESULT:      -8.6      1.014      1.297
REMARK  Name = 
REMARK  10 active torsions:
REMARK  status: ('A' for Active; 'I' for Inactive)
REMARK    1  A    between atoms: C_1  and  C_2
REMARK    2  A    between atoms: C_5  and  C_6
REMARK    3  A    between atoms: C_9  and  C_10
REMARK    4  A    between atoms: C_14  and  C_15
REMARK    5  A    between atoms: C_15  and  O_16
REMARK    6  A    between atoms: O_16  and  C_17
REMARK    7  A    between atoms: C_21  and  C_22
REMARK    8  A    between atoms: C_22  and  C_23
REMARK    9  A    between atoms: C_23  and  C_24
REMARK   10  A    between atoms: C_24  and  O_26
REMARK                            x       y       z     vdW  Elec       q    Type
REMARK                         _______ _______ _______ _____ _____    ______ ____
ROOT
ATOM      1  C   UNL     1       4.414   3.671  18.600  0.00  0.00    +0.000 A 
ATOM      2  N   UNL     1       4.738   2.545  19.255  0.00  0.00    +0.000 NA
ATOM      3  O   UNL     1       3.837   2.417  20.288  0.00  0.00    +0.000 OA
ATOM      4  C   UNL     1       2.952   3.446  20.262  0.00  0.00    +0.000 A 
ATOM      5  C   UNL     1       3.258   4.275  19.201  0.00  0.00    +0.000 A 
ENDROOT
BRANCH   1  10
ATOM      6  C   UNL     1       7.500   5.151  13.921  0.00  0.00    +0.000 C 
ATOM      7  C   UNL     1       6.700   4.819  15.144  0.00  0.00    +0.000 A 
ATOM      8  C   UNL     1       7.238   4.942  16.429  0.00  0.00    +0.000 A 
ATOM      9  C   UNL     1       6.483   4.589  17.556  0.00  0.00    +0.000 A 
ATOM     10  C   UNL     1       5.173   4.111  17.419  0.00  0.00    +0.000 A 
ATOM     11  C   UNL     1       4.626   4.043  16.132  0.00  0.00    +0.000 A 
ATOM     12  C   UNL     1       5.385   4.371  15.004  0.00  0.00    +0.000 A 
ENDBRANCH   1  10
BRANCH   4  13
ATOM     13  C   UNL     1       1.917   3.448  21.316  0.00  0.00    +0.000 C 
ATOM     14  F   UNL     1       1.568   2.194  21.711  0.00  0.00    +0.000 F 
ATOM     15  F   UNL     1       2.338   4.098  22.433  0.00  0.00    +0.000 F 
ATOM     16  F   UNL     1       0.771   4.052  20.908  0.00  0.00    +0.000 F 
ENDBRANCH   4  13
BRANCH   5  17
ATOM     17  C   UNL     1       2.564   5.507  18.741  0.00  0.00    +0.000 C 
BRANCH  17  18
ATOM     18  O   UNL     1       3.045   6.703  19.349  0.00  0.00    +0.000 OA
BRANCH  18  19
ATOM     19  C   UNL     1       2.185   7.775  19.298  0.00  0.00    +0.000 A 
ATOM     20  C   UNL     1       1.964   8.624  18.209  0.00  0.00    +0.000 A 
ATOM     21  F   UNL     1       2.620   8.467  17.048  0.00  0.00    +0.000 F 
ATOM     22  C   UNL     1       1.058   9.682  18.277  0.00  0.00    +0.000 A 
ATOM     23  C   UNL     1       0.331   9.918  19.449  0.00  0.00    +0.000 A 
ATOM     24  C   UNL     1       0.550   9.080  20.549  0.00  0.00    +0.000 A 
ATOM     25  C   UNL     1       1.464   8.027  20.464  0.00  0.00    +0.000 A 
ATOM     26  F   UNL     1       1.649   7.255  21.548  0.00  0.00    +0.000 F 
BRANCH  23  27
ATOM     27  C   UNL     1      -0.629  11.078  19.542  0.00  0.00    +0.000 C 
BRANCH  27  28
ATOM     28  C   UNL     1      -1.219  11.475  18.188  0.00  0.00    +0.000 C 
BRANCH  28  29
ATOM     29  C   UNL     1      -2.686  11.805  18.318  0.00  0.00    +0.000 C 
ATOM     30  O   UNL     1      -3.269  12.016  19.368  0.00  0.00    +0.000 OA
BRANCH  29  31
ATOM     31  O   UNL     1      -3.312  11.854  17.120  0.00  0.00    +0.000 OA
ATOM     32  H   UNL     1      -3.121  11.095  16.536  0.00  0.00    +0.000 HD
ENDBRANCH  29  31
ENDBRANCH  28  29
ENDBRANCH  27  28
ENDBRANCH  23  27
ENDBRANCH  18  19
ENDBRANCH  17  18
ENDBRANCH   5  17
TORSDOF 9
ENDMDL
MODEL 5
REMARK VINA RESULT:      -8.6      0.623      1.746
REMARK  Name = 
REMARK  10 active torsions:
REMARK  status: ('A' for Active; 'I' for Inactive)
REMARK    1  A    between atoms: C_1  and  C_2
REMARK    2  A    between atoms: C_5  and  C_6
REMARK    3  A    between atoms: C_9  and  C_10
REMARK    4  A    between atoms: C_14  and  C_15
REMARK    5  A    between atoms: C_15  and  O_16
REMARK    6  A    between atoms: O_16  and  C_17
REMARK    7  A    between atoms: C_21  and  C_22
REMARK    8  A    between atoms: C_22  and  C_23
REMARK    9  A    between atoms: C_23  and  C_24
REMARK   10  A    between atoms: C_24  and  O_26
REMARK                            x       y       z     vdW  Elec       q    Type
REMARK                         _______ _______ _______ _____ _____    ______ ____
ROOT
ATOM      1  C   UNL     1       4.193   3.557  18.277  0.00  0.00    +0.000 A 
ATOM      2  N   UNL     1       3.923   2.251  18.427  0.00  0.00    +0.000 NA
ATOM      3  O   UNL     1       3.094   2.143  19.521  0.00  0.00    +0.000 OA
ATOM      4  C   UNL     1       2.838   3.374  20.033  0.00  0.00    +0.000 A 
ATOM      5  C   UNL     1       3.500   4.321  19.276  0.00  0.00    +0.000 A 
ENDROOT
BRANCH   1  10
ATOM      6  C   UNL     1       7.655   5.192  13.924  0.00  0.00    +0.000 C 
ATOM      7  C   UNL     1       6.761   4.818  15.067  0.00  0.00    +0.000 A 
ATOM      8  C   UNL     1       7.232   4.774  16.384  0.00  0.00    +0.000 A 
ATOM      9  C   UNL     1       6.387   4.385  17.432  0.00  0.00    +0.000 A 
ATOM     10  C   UNL     1       5.052   4.038  17.184  0.00  0.00    +0.000 A 
ATOM     11  C   UNL     1       4.577   4.137  15.870  0.00  0.00    +0.000 A 
ATOM     12  C   UNL     1       5.424   4.502  14.820  0.00  0.00    +0.000 A 
ENDBRANCH   1  10
BRANCH   4  13
ATOM     13  C   UNL     1       1.957   3.421  21.218  0.00  0.00    +0.000 C 
ATOM     14  F   UNL     1       1.738   2.194  21.759  0.00  0.00    +0.000 F 
ATOM     15  F   UNL     1       2.488   4.187  22.208  0.00  0.00    +0.000 F 
ATOM     16  F   UNL     1       0.734   3.934  20.927  0.00  0.00    +0.000 F 
ENDBRANCH   4  13
BRANCH   5  17
ATOM     17  C   UNL     1       3.505   5.801  19.420  0.00  0.00    +0.000 C 
BRANCH  17  18
ATOM     18  O   UNL     1       2.604   6.470  18.541  0.00  0.00    +0.000 OA
BRANCH  18  19
ATOM     19  C   UNL     1       2.050   7.627  19.036  0.00  0.00    +0.000 A 
ATOM     20  C   UNL     1       1.491   7.815  20.304  0.00  0.00    +0.000 A 
ATOM     21  F   UNL     1       1.432   6.820  21.204  0.00  0.00    +0.000 F 
ATOM     22  C   UNL     1       0.961   9.044  20.696  0.00  0.00    +0.000 A 
ATOM     23  C   UNL     1       0.982  10.136  19.822  0.00  0.00    +0.000 A 
ATOM     24  C   UNL     1       1.531   9.958  18.546  0.00  0.00    +0.000 A 
ATOM     25  C   UNL     1       2.055   8.719  18.169  0.00  0.00    +0.000 A 
ATOM     26  F   UNL     1       2.562   8.591  16.932  0.00  0.00    +0.000 F 
BRANCH  23  27
ATOM     27  C   UNL     1       0.384  11.461  20.225  0.00  0.00    +0.000 C 
BRANCH  27  28
ATOM     28  C   UNL     1      -0.949  11.752  19.532  0.00  0.00    +0.000 C 
BRANCH  28  29
ATOM     29  C   UNL     1      -0.796  12.860  18.520  0.00  0.00    +0.000 C 
ATOM     30  O   UNL     1      -0.271  13.940  18.734  0.00  0.00    +0.000 OA
BRANCH  29  31
ATOM     31  O   UNL     1      -1.304  12.529  17.311  0.00  0.00    +0.000 OA
ATOM     32  H   UNL     1      -2.279  12.484  17.285  0.00  0.00    +0.000 HD
ENDBRANCH  29  31
ENDBRANCH  28  29
ENDBRANCH  27  28
ENDBRANCH  23  27
ENDBRANCH  18  19
ENDBRANCH  17  18
ENDBRANCH   5  17
TORSDOF 9
ENDMDL
MODEL 6
REMARK VINA RESULT:      -8.5      1.705      2.766
REMARK  Name = 
REMARK  10 active torsions:
REMARK  status: ('A' for Active; 'I' for Inactive)
REMARK    1  A    between atoms: C_1  and  C_2
REMARK    2  A    between atoms: C_5  and  C_6
REMARK    3  A    between atoms: C_9  and  C_10
REMARK    4  A    between atoms: C_14  and  C_15
REMARK    5  A    between atoms: C_15  and  O_16
REMARK    6  A    between atoms: O_16  and  C_17
REMARK    7  A    between atoms: C_21  and  C_22
REMARK    8  A    between atoms: C_22  and  C_23
REMARK    9  A    between atoms: C_23  and  C_24
REMARK   10  A    between atoms: C_24  and  O_26
REMARK                            x       y       z     vdW  Elec       q    Type
REMARK                         _______ _______ _______ _____ _____    ______ ____
ROOT
ATOM      1  C   UNL     1       4.631   4.428  19.041  0.00  0.00    +0.000 A 
ATOM      2  N   UNL     1       4.993   3.179  19.371  0.00  0.00    +0.000 NA
ATOM      3  O   UNL     1       3.842   2.518  19.737  0.00  0.00    +0.000 OA
ATOM      4  C   UNL     1       2.773   3.347  19.618  0.00  0.00    +0.000 A 
ATOM      5  C   UNL     1       3.208   4.578  19.166  0.00  0.00    +0.000 A 
ENDROOT
BRANCH   1  10
ATOM      6  C   UNL     1       8.438   8.492  17.429  0.00  0.00    +0.000 C 
ATOM      7  C   UNL     1       7.462   7.418  17.800  0.00  0.00    +0.000 A 
ATOM      8  C   UNL     1       6.223   7.298  17.161  0.00  0.00    +0.000 A 
ATOM      9  C   UNL     1       5.311   6.308  17.551  0.00  0.00    +0.000 A 
ATOM     10  C   UNL     1       5.623   5.415  18.585  0.00  0.00    +0.000 A 
ATOM     11  C   UNL     1       6.886   5.510  19.182  0.00  0.00    +0.000 A 
ATOM     12  C   UNL     1       7.788   6.512  18.811  0.00  0.00    +0.000 A 
ENDBRANCH   1  10
BRANCH   4  13
ATOM     13  C   UNL     1       1.458   2.779  19.978  0.00  0.00    +0.000 C 
ATOM     14  F   UNL     1       1.562   1.632  20.701  0.00  0.00    +0.000 F 
ATOM     15  F   UNL     1       0.727   3.642  20.732  0.00  0.00    +0.000 F 
ATOM     16  F   UNL     1       0.716   2.473  18.883  0.00  0.00    +0.000 F 
ENDBRANCH   4  13
BRANCH   5  17
ATOM     17  C   UNL     1       2.416   5.796  18.850  0.00  0.00    +0.000 C 
BRANCH  17  18
ATOM     18  O   UNL     1       2.872   6.971  19.514  0.00  0.00    +0.000 OA
BRANCH  18  19
ATOM     19  C   UNL     1       1.974   8.011  19.552  0.00  0.00    +0.000 A 
ATOM     20  C   UNL     1       1.182   8.399  20.637  0.00  0.00    +0.000 A 
ATOM     21  F   UNL     1       1.222   7.744  21.809  0.00  0.00    +0.000 F 
ATOM     22  C   UNL     1       0.305   9.481  20.556  0.00  0.00    +0.000 A 
ATOM     23  C   UNL     1       0.201  10.220  19.373  0.00  0.00    +0.000 A 
ATOM     24  C   UNL     1       0.982   9.837  18.276  0.00  0.00    +0.000 A 
ATOM     25  C   UNL     1       1.852   8.748  18.374  0.00  0.00    +0.000 A 
ATOM     26  F   UNL     1       2.574   8.410  17.294  0.00  0.00    +0.000 F 
BRANCH  23  27
ATOM     27  C   UNL     1      -0.766  11.373  19.265  0.00  0.00    +0.000 C 
BRANCH  27  28
ATOM     28  C   UNL     1      -2.119  10.967  18.677  0.00  0.00    +0.000 C 
BRANCH  28  29
ATOM     29  C   UNL     1      -2.197  11.326  17.214  0.00  0.00    +0.000 C 
ATOM     30  O   UNL     1      -2.799  10.689  16.365  0.00  0.00    +0.000 OA
BRANCH  29  31
ATOM     31  O   UNL     1      -1.521  12.461  16.924  0.00  0.00    +0.000 OA
ATOM     32  H   UNL     1      -1.901  13.266  17.325  0.00  0.00    +0.000 HD
ENDBRANCH  29  31
ENDBRANCH  28  29
ENDBRANCH  27  28
ENDBRANCH  23  27
ENDBRANCH  18  19
ENDBRANCH  17  18
ENDBRANCH   5  17
TORSDOF 9
ENDMDL
MODEL 7
REMARK VINA RESULT:      -8.4      0.879      1.270
REMARK  Name = 
REMARK  10 active torsions:
REMARK  status: ('A' for Active; 'I' for Inactive)
REMARK    1  A    between atoms: C_1  and  C_2
REMARK    2  A    between atoms: C_5  and  C_6
REMARK    3  A    between atoms: C_9  and  C_10
REMARK    4  A    between atoms: C_14  and  C_15
REMARK    5  A    between atoms: C_15  and  O_16
REMARK    6  A    between atoms: O_16  and  C_17
REMARK    7  A    between atoms: C_21  and  C_22
REMARK    8  A    between atoms: C_22  and  C_23
REMARK    9  A    between atoms: C_23  and  C_24
REMARK   10  A    between atoms: C_24  and  O_26
REMARK                            x       y       z     vdW  Elec       q    Type
REMARK                         _______ _______ _______ _____ _____    ______ ____
ROOT
ATOM      1  C   UNL     1       4.470   3.583  18.665  0.00  0.00    +0.000 A 
ATOM      2  N   UNL     1       4.814   2.451  19.300  0.00  0.00    +0.000 NA
ATOM      3  O   UNL     1       3.930   2.300  20.344  0.00  0.00    +0.000 OA
ATOM      4  C   UNL     1       3.035   3.320  20.346  0.00  0.00    +0.000 A 
ATOM      5  C   UNL     1       3.317   4.166  19.291  0.00  0.00    +0.000 A 
ENDROOT
BRANCH   1  10
ATOM      6  C   UNL     1       7.469   5.158  13.961  0.00  0.00    +0.000 C 
ATOM      7  C   UNL     1       6.691   4.800  15.191  0.00  0.00    +0.000 A 
ATOM      8  C   UNL     1       7.251   4.903  16.469  0.00  0.00    +0.000 A 
ATOM      9  C   UNL     1       6.517   4.527  17.603  0.00  0.00    +0.000 A 
ATOM     10  C   UNL     1       5.206   4.047  17.479  0.00  0.00    +0.000 A 
ATOM     11  C   UNL     1       4.637   3.999  16.201  0.00  0.00    +0.000 A 
ATOM     12  C   UNL     1       5.376   4.350  15.067  0.00  0.00    +0.000 A 
ENDBRANCH   1  10
BRANCH   4  13
ATOM     13  C   UNL     1       2.015   3.296  21.415  0.00  0.00    +0.000 C 
ATOM     14  F   UNL     1       0.777   3.632  20.966  0.00  0.00    +0.000 F 
ATOM     15  F   UNL     1       1.899   2.061  21.971  0.00  0.00    +0.000 F 
ATOM     16  F   UNL     1       2.305   4.163  22.419  0.00  0.00    +0.000 F 
ENDBRANCH   4  13
BRANCH   5  17
ATOM     17  C   UNL     1       2.604   5.397  18.859  0.00  0.00    +0.000 C 
BRANCH  17  18
ATOM     18  O   UNL     1       3.006   6.574  19.555  0.00  0.00    +0.000 OA
BRANCH  18  19
ATOM     19  C   UNL     1       2.265   7.699  19.285  0.00  0.00    +0.000 A 
ATOM     20  C   UNL     1       2.241   8.423  18.088  0.00  0.00    +0.000 A 
ATOM     21  F   UNL     1       2.993   8.068  17.035  0.00  0.00    +0.000 F 
ATOM     22  C   UNL     1       1.440   9.554  17.932  0.00  0.00    +0.000 A 
ATOM     23  C   UNL     1       0.623   9.994  18.979  0.00  0.00    +0.000 A 
ATOM     24  C   UNL     1       0.645   9.284  20.185  0.00  0.00    +0.000 A 
ATOM     25  C   UNL     1       1.456   8.155  20.325  0.00  0.00    +0.000 A 
ATOM     26  F   UNL     1       1.453   7.511  21.504  0.00  0.00    +0.000 F 
BRANCH  23  27
ATOM     27  C   UNL     1      -0.225  11.233  18.829  0.00  0.00    +0.000 C 
BRANCH  27  28
ATOM     28  C   UNL     1      -0.961  11.613  20.115  0.00  0.00    +0.000 C 
BRANCH  28  29
ATOM     29  C   UNL     1      -0.359  12.851  20.732  0.00  0.00    +0.000 C 
ATOM     30  O   UNL     1      -0.580  13.995  20.373  0.00  0.00    +0.000 OA
BRANCH  29  31
ATOM     31  O   UNL     1       0.471  12.563  21.761  0.00  0.00    +0.000 OA
ATOM     32  H   UNL     1       1.133  11.874  21.562  0.00  0.00    +0.000 HD
ENDBRANCH  29  31
ENDBRANCH  28  29
ENDBRANCH  27  28
ENDBRANCH  23  27
ENDBRANCH  18  19
ENDBRANCH  17  18
ENDBRANCH   5  17
TORSDOF 9
ENDMDL
MODEL 8
REMARK VINA RESULT:      -8.4      1.380      2.133
REMARK  Name = 
REMARK  10 active torsions:
REMARK  status: ('A' for Active; 'I' for Inactive)
REMARK    1  A    between atoms: C_1  and  C_2
REMARK    2  A    between atoms: C_5  and  C_6
REMARK    3  A    between atoms: C_9  and  C_10
REMARK    4  A    between atoms: C_14  and  C_15
REMARK    5  A    between atoms: C_15  and  O_16
REMARK    6  A    between atoms: O_16  and  C_17
REMARK    7  A    between atoms: C_21  and  C_22
REMARK    8  A    between atoms: C_22  and  C_23
REMARK    9  A    between atoms: C_23  and  C_24
REMARK   10  A    between atoms: C_24  and  O_26
REMARK                            x       y       z     vdW  Elec       q    Type
REMARK                         _______ _______ _______ _____ _____    ______ ____
ROOT
ATOM      1  C   UNL     1       4.445   3.672  18.558  0.00  0.00    +0.000 A 
ATOM      2  N   UNL     1       4.852   2.632  19.303  0.00  0.00    +0.000 NA
ATOM      3  O   UNL     1       3.932   2.490  20.317  0.00  0.00    +0.000 OA
ATOM      4  C   UNL     1       2.953   3.422  20.190  0.00  0.00    +0.000 A 
ATOM      5  C   UNL     1       3.215   4.199  19.079  0.00  0.00    +0.000 A 
ENDROOT
BRANCH   1  10
ATOM      6  C   UNL     1       7.512   5.104  13.852  0.00  0.00    +0.000 C 
ATOM      7  C   UNL     1       6.717   4.784  15.081  0.00  0.00    +0.000 A 
ATOM      8  C   UNL     1       7.261   4.919  16.363  0.00  0.00    +0.000 A 
ATOM      9  C   UNL     1       6.510   4.578  17.497  0.00  0.00    +0.000 A 
ATOM     10  C   UNL     1       5.199   4.100  17.369  0.00  0.00    +0.000 A 
ATOM     11  C   UNL     1       4.646   4.020  16.085  0.00  0.00    +0.000 A 
ATOM     12  C   UNL     1       5.401   4.337  14.952  0.00  0.00    +0.000 A 
ENDBRANCH   1  10
BRANCH   4  13
ATOM     13  C   UNL     1       1.886   3.396  21.211  0.00  0.00    +0.000 C 
ATOM     14  F   UNL     1       2.251   4.009  22.368  0.00  0.00    +0.000 F 
ATOM     15  F   UNL     1       0.762   4.029  20.780  0.00  0.00    +0.000 F 
ATOM     16  F   UNL     1       1.529   2.130  21.547  0.00  0.00    +0.000 F 
ENDBRANCH   4  13
BRANCH   5  17
ATOM     17  C   UNL     1       2.422   5.321  18.511  0.00  0.00    +0.000 C 
BRANCH  17  18
ATOM     18  O   UNL     1       3.018   6.603  18.695  0.00  0.00    +0.000 OA
BRANCH  18  19
ATOM     19  C   UNL     1       2.189   7.567  19.217  0.00  0.00    +0.000 A 
ATOM     20  C   UNL     1       1.628   7.589  20.498  0.00  0.00    +0.000 A 
ATOM     21  F   UNL     1       1.853   6.605  21.384  0.00  0.00    +0.000 F 
ATOM     22  C   UNL     1       0.800   8.630  20.917  0.00  0.00    +0.000 A 
ATOM     23  C   UNL     1       0.513   9.697  20.059  0.00  0.00    +0.000 A 
ATOM     24  C   UNL     1       1.061   9.682  18.771  0.00  0.00    +0.000 A 
ATOM     25  C   UNL     1       1.886   8.629  18.366  0.00  0.00    +0.000 A 
ATOM     26  F   UNL     1       2.382   8.651  17.119  0.00  0.00    +0.000 F 
BRANCH  23  27
ATOM     27  C   UNL     1      -0.405  10.813  20.493  0.00  0.00    +0.000 C 
BRANCH  27  28
ATOM     28  C   UNL     1       0.345  12.013  21.074  0.00  0.00    +0.000 C 
BRANCH  28  29
ATOM     29  C   UNL     1      -0.439  12.641  22.199  0.00  0.00    +0.000 C 
ATOM     30  O   UNL     1      -0.938  12.035  23.132  0.00  0.00    +0.000 OA
BRANCH  29  31
ATOM     31  O   UNL     1      -0.531  13.985  22.076  0.00  0.00    +0.000 OA
ATOM     32  H   UNL     1      -0.543  14.465  22.927  0.00  0.00    +0.000 HD
ENDBRANCH  29  31
ENDBRANCH  28  29
ENDBRANCH  27  28
ENDBRANCH  23  27
ENDBRANCH  18  19
ENDBRANCH  17  18
ENDBRANCH   5  17
TORSDOF 9
ENDMDL
MODEL 9
REMARK VINA RESULT:      -8.4      1.198      1.585
REMARK  Name = 
REMARK  10 active torsions:
REMARK  status: ('A' for Active; 'I' for Inactive)
REMARK    1  A    between atoms: C_1  and  C_2
REMARK    2  A    between atoms: C_5  and  C_6
REMARK    3  A    between atoms: C_9  and  C_10
REMARK    4  A    between atoms: C_14  and  C_15
REMARK    5  A    between atoms: C_15  and  O_16
REMARK    6  A    between atoms: O_16  and  C_17
REMARK    7  A    between atoms: C_21  and  C_22
REMARK    8  A    between atoms: C_22  and  C_23
REMARK    9  A    between atoms: C_23  and  C_24
REMARK   10  A    between atoms: C_24  and  O_26
REMARK                            x       y       z     vdW  Elec       q    Type
REMARK                         _______ _______ _______ _____ _____    ______ ____
ROOT
ATOM      1  C   UNL     1       4.164   3.859  18.001  0.00  0.00    +0.000 A 
ATOM      2  N   UNL     1       4.187   2.617  18.510  0.00  0.00    +0.000 NA
ATOM      3  O   UNL     1       3.280   2.598  19.546  0.00  0.00    +0.000 OA
ATOM      4  C   UNL     1       2.687   3.813  19.666  0.00  0.00    +0.000 A 
ATOM      5  C   UNL     1       3.198   4.659  18.701  0.00  0.00    +0.000 A 
ENDROOT
BRANCH   1  10
ATOM      6  C   UNL     1       7.626   5.081  13.516  0.00  0.00    +0.000 C 
ATOM      7  C   UNL     1       6.724   4.816  14.683  0.00  0.00    +0.000 A 
ATOM      8  C   UNL     1       7.115   5.110  15.994  0.00  0.00    +0.000 A 
ATOM      9  C   UNL     1       6.269   4.818  17.073  0.00  0.00    +0.000 A 
ATOM     10  C   UNL     1       5.013   4.232  16.860  0.00  0.00    +0.000 A 
ATOM     11  C   UNL     1       4.611   3.993  15.540  0.00  0.00    +0.000 A 
ATOM     12  C   UNL     1       5.463   4.260  14.464  0.00  0.00    +0.000 A 
ENDBRANCH   1  10
BRANCH   4  13
ATOM     13  C   UNL     1       1.683   3.950  20.741  0.00  0.00    +0.000 C 
ATOM     14  F   UNL     1       0.548   4.569  20.323  0.00  0.00    +0.000 F 
ATOM     15  F   UNL     1       1.301   2.739  21.228  0.00  0.00    +0.000 F 
ATOM     16  F   UNL     1       2.150   4.675  21.789  0.00  0.00    +0.000 F 
ENDBRANCH   4  13
BRANCH   5  17
ATOM     17  C   UNL     1       2.843   6.073  18.410  0.00  0.00    +0.000 C 
BRANCH  17  18
ATOM     18  O   UNL     1       2.814   6.912  19.561  0.00  0.00    +0.000 OA
BRANCH  18  19
ATOM     19  C   UNL     1       1.973   7.996  19.478  0.00  0.00    +0.000 A 
ATOM     20  C   UNL     1       1.808   8.851  18.384  0.00  0.00    +0.000 A 
ATOM     21  F   UNL     1       2.508   8.687  17.249  0.00  0.00    +0.000 F 
ATOM     22  C   UNL     1       0.914   9.921  18.418  0.00  0.00    +0.000 A 
ATOM     23  C   UNL     1       0.144  10.165  19.560  0.00  0.00    +0.000 A 
ATOM     24  C   UNL     1       0.306   9.322  20.666  0.00  0.00    +0.000 A 
ATOM     25  C   UNL     1       1.208   8.256  20.615  0.00  0.00    +0.000 A 
ATOM     26  F   UNL     1       1.338   7.479  21.703  0.00  0.00    +0.000 F 
BRANCH  23  27
ATOM     27  C   UNL     1      -0.804  11.338  19.617  0.00  0.00    +0.000 C 
BRANCH  27  28
ATOM     28  C   UNL     1      -1.314  11.761  18.238  0.00  0.00    +0.000 C 
BRANCH  28  29
ATOM     29  C   UNL     1      -2.689  11.197  17.979  0.00  0.00    +0.000 C 
ATOM     30  O   UNL     1      -2.924  10.055  17.620  0.00  0.00    +0.000 OA
BRANCH  29  31
ATOM     31  O   UNL     1      -3.669  12.103  18.198  0.00  0.00    +0.000 OA
ATOM     32  H   UNL     1      -4.402  11.774  18.754  0.00  0.00    +0.000 HD
ENDBRANCH  29  31
ENDBRANCH  28  29
ENDBRANCH  27  28
ENDBRANCH  23  27
ENDBRANCH  18  19
ENDBRANCH  17  18
ENDBRANCH   5  17
TORSDOF 9
ENDMDL
