MODEL 1
REMARK VINA RESULT:      -7.8      0.000      0.000
REMARK  Name = 
REMARK  1 active torsions:
REMARK  status: ('A' for Active; 'I' for Inactive)
REMARK    1  A    between atoms: C_7  and  C_8
REMARK                            x       y       z     vdW  Elec       q    Type
REMARK                         _______ _______ _______ _____ _____    ______ ____
ROOT
ATOM      1  C   UNL     1       4.681   5.792  17.842  0.00  0.00    +0.000 C 
ATOM      2  O   UNL     1       3.251   5.615  17.746  0.00  0.00    +0.000 OA
ATOM      3  O   UNL     1       2.901   4.219  18.051  0.00  0.00    +0.000 OA
ATOM      4  C   UNL     1       3.397   3.894  19.357  0.00  0.00    +0.000 C 
ATOM      5  C   UNL     1       2.763   4.764  20.460  0.00  0.00    +0.000 C 
ATOM      6  C   UNL     1       1.256   4.537  20.585  0.00  0.00    +0.000 C 
ATOM      7  C   UNL     1       0.922   3.065  20.803  0.00  0.00    +0.000 C 
ATOM      8  C   UNL     1       1.543   2.182  19.725  0.00  0.00    +0.000 C 
ATOM      9  C   UNL     1       3.049   2.418  19.608  0.00  0.00    +0.000 C 
ATOM     10  O   UNL     1       4.831   3.975  19.341  0.00  0.00    +0.000 OA
ATOM     11  O   UNL     1       5.202   5.375  19.116  0.00  0.00    +0.000 OA
ENDROOT
BRANCH   1  18
ATOM     12 CL   UNL     1       7.566   6.926  17.489  0.00  0.00    +0.000 Cl
ATOM     13  C   UNL     1       6.790   5.819  16.408  0.00  0.00    +0.000 A 
ATOM     14  C   UNL     1       7.506   5.451  15.261  0.00  0.00    +0.000 A 
ATOM     15  C   UNL     1       6.956   4.562  14.343  0.00  0.00    +0.000 A 
ATOM     16  C   UNL     1       5.696   4.025  14.580  0.00  0.00    +0.000 A 
ATOM     17  C   UNL     1       4.974   4.397  15.718  0.00  0.00    +0.000 A 
ATOM     18  C   UNL     1       5.493   5.320  16.644  0.00  0.00    +0.000 A 
ENDBRANCH   1  18
TORSDOF 1
ENDMDL
MODEL 2
REMARK VINA RESULT:      -7.7      1.779      2.786
REMARK  Name = 
REMARK  1 active torsions:
REMARK  status: ('A' for Active; 'I' for Inactive)
REMARK    1  A    between atoms: C_7  and  C_8
REMARK                            x       y       z     vdW  Elec       q    Type
REMARK                         _______ _______ _______ _____ _____    ______ ____
ROOT
ATOM      1  C   UNL     1       4.720   4.612  17.533  0.00  0.00    +0.000 C 
ATOM      2  O   UNL     1       4.676   3.421  18.349  0.00  0.00    +0.000 OA
ATOM      3  O   UNL     1       4.113   3.743  19.669  0.00  0.00    +0.000 OA
ATOM      4  C   UNL     1       2.812   4.319  19.488  0.00  0.00    +0.000 C 
ATOM      5  C   UNL     1       1.828   3.347  18.809  0.00  0.00    +0.000 C 
ATOM      6  C   UNL     1       1.553   2.108  19.661  0.00  0.00    +0.000 C 
ATOM      7  C   UNL     1       1.064   2.479  21.057  0.00  0.00    +0.000 C 
ATOM      8  C   UNL     1       2.020   3.446  21.749  0.00  0.00    +0.000 C 
ATOM      9  C   UNL     1       2.288   4.679  20.888  0.00  0.00    +0.000 C 
ATOM     10  O   UNL     1       2.950   5.558  18.775  0.00  0.00    +0.000 OA
ATOM     11  O   UNL     1       3.437   5.253  17.427  0.00  0.00    +0.000 OA
ENDROOT
BRANCH   1  18
ATOM     12 CL   UNL     1       5.140   7.002  15.573  0.00  0.00    +0.000 Cl
ATOM     13  C   UNL     1       6.144   6.643  16.936  0.00  0.00    +0.000 A 
ATOM     14  C   UNL     1       7.259   7.468  17.134  0.00  0.00    +0.000 A 
ATOM     15  C   UNL     1       8.114   7.249  18.209  0.00  0.00    +0.000 A 
ATOM     16  C   UNL     1       7.845   6.216  19.100  0.00  0.00    +0.000 A 
ATOM     17  C   UNL     1       6.739   5.384  18.901  0.00  0.00    +0.000 A 
ATOM     18  C   UNL     1       5.878   5.562  17.803  0.00  0.00    +0.000 A 
ENDBRANCH   1  18
TORSDOF 1
ENDMDL
MODEL 3
REMARK VINA RESULT:      -7.2      2.368      5.640
REMARK  Name = 
REMARK  1 active torsions:
REMARK  status: ('A' for Active; 'I' for Inactive)
REMARK    1  A    between atoms: C_7  and  C_8
REMARK                            x       y       z     vdW  Elec       q    Type
REMARK                         _______ _______ _______ _____ _____    ______ ____
ROOT
ATOM      1  C   UNL     1       2.999   5.349  17.800  0.00  0.00    +0.000 C 
ATOM      2  O   UNL     1       3.644   6.420  18.521  0.00  0.00    +0.000 OA
ATOM      3  O   UNL     1       4.946   5.964  19.032  0.00  0.00    +0.000 OA
ATOM      4  C   UNL     1       5.739   5.503  17.930  0.00  0.00    +0.000 C 
ATOM      5  C   UNL     1       6.029   6.619  16.907  0.00  0.00    +0.000 C 
ATOM      6  C   UNL     1       6.869   7.750  17.503  0.00  0.00    +0.000 C 
ATOM      7  C   UNL     1       8.166   7.229  18.112  0.00  0.00    +0.000 C 
ATOM      8  C   UNL     1       7.906   6.118  19.125  0.00  0.00    +0.000 C 
ATOM      9  C   UNL     1       7.065   4.995  18.520  0.00  0.00    +0.000 C 
ATOM     10  O   UNL     1       5.094   4.363  17.340  0.00  0.00    +0.000 OA
ATOM     11  O   UNL     1       3.828   4.812  16.754  0.00  0.00    +0.000 OA
ENDROOT
BRANCH   1  18
ATOM     12 CL   UNL     1       1.730   6.257  20.501  0.00  0.00    +0.000 Cl
ATOM     13  C   UNL     1       1.739   4.634  19.900  0.00  0.00    +0.000 A 
ATOM     14  C   UNL     1       1.174   3.653  20.726  0.00  0.00    +0.000 A 
ATOM     15  C   UNL     1       1.138   2.324  20.314  0.00  0.00    +0.000 A 
ATOM     16  C   UNL     1       1.649   1.978  19.069  0.00  0.00    +0.000 A 
ATOM     17  C   UNL     1       2.223   2.952  18.247  0.00  0.00    +0.000 A 
ATOM     18  C   UNL     1       2.303   4.297  18.652  0.00  0.00    +0.000 A 
ENDBRANCH   1  18
TORSDOF 1
ENDMDL
MODEL 4
REMARK VINA RESULT:      -7.0      1.668      5.780
REMARK  Name = 
REMARK  1 active torsions:
REMARK  status: ('A' for Active; 'I' for Inactive)
REMARK    1  A    between atoms: C_7  and  C_8
REMARK                            x       y       z     vdW  Elec       q    Type
REMARK                         _______ _______ _______ _____ _____    ______ ____
ROOT
ATOM      1  C   UNL     1       4.618   5.041  19.241  0.00  0.00    +0.000 C 
ATOM      2  O   UNL     1       5.653   4.191  18.703  0.00  0.00    +0.000 OA
ATOM      3  O   UNL     1       5.335   3.839  17.311  0.00  0.00    +0.000 OA
ATOM      4  C   UNL     1       5.184   5.048  16.553  0.00  0.00    +0.000 C 
ATOM      5  C   UNL     1       6.477   5.885  16.517  0.00  0.00    +0.000 C 
ATOM      6  C   UNL     1       7.620   5.160  15.806  0.00  0.00    +0.000 C 
ATOM      7  C   UNL     1       7.224   4.722  14.400  0.00  0.00    +0.000 C 
ATOM      8  C   UNL     1       5.942   3.895  14.408  0.00  0.00    +0.000 C 
ATOM      9  C   UNL     1       4.808   4.628  15.122  0.00  0.00    +0.000 C 
ATOM     10  O   UNL     1       4.061   5.779  17.069  0.00  0.00    +0.000 OA
ATOM     11  O   UNL     1       4.389   6.208  18.432  0.00  0.00    +0.000 OA
ENDROOT
BRANCH   1  18
ATOM     12 CL   UNL     1       2.193   6.804  20.103  0.00  0.00    +0.000 Cl
ATOM     13  C   UNL     1       2.229   5.074  20.136  0.00  0.00    +0.000 A 
ATOM     14  C   UNL     1       1.092   4.429  20.641  0.00  0.00    +0.000 A 
ATOM     15  C   UNL     1       1.039   3.040  20.698  0.00  0.00    +0.000 A 
ATOM     16  C   UNL     1       2.116   2.293  20.234  0.00  0.00    +0.000 A 
ATOM     17  C   UNL     1       3.256   2.933  19.739  0.00  0.00    +0.000 A 
ATOM     18  C   UNL     1       3.349   4.336  19.701  0.00  0.00    +0.000 A 
ENDBRANCH   1  18
TORSDOF 1
ENDMDL
MODEL 5
REMARK VINA RESULT:      -6.9      1.472      1.636
REMARK  Name = 
REMARK  1 active torsions:
REMARK  status: ('A' for Active; 'I' for Inactive)
REMARK    1  A    between atoms: C_7  and  C_8
REMARK                            x       y       z     vdW  Elec       q    Type
REMARK                         _______ _______ _______ _____ _____    ______ ____
ROOT
ATOM      1  C   UNL     1       5.384   4.938  18.864  0.00  0.00    +0.000 C 
ATOM      2  O   UNL     1       4.102   5.451  19.287  0.00  0.00    +0.000 OA
ATOM      3  O   UNL     1       3.039   4.511  18.904  0.00  0.00    +0.000 OA
ATOM      4  C   UNL     1       3.323   3.230  19.484  0.00  0.00    +0.000 C 
ATOM      5  C   UNL     1       3.345   3.274  21.024  0.00  0.00    +0.000 C 
ATOM      6  C   UNL     1       1.982   3.638  21.615  0.00  0.00    +0.000 C 
ATOM      7  C   UNL     1       0.884   2.703  21.119  0.00  0.00    +0.000 C 
ATOM      8  C   UNL     1       0.845   2.638  19.596  0.00  0.00    +0.000 C 
ATOM      9  C   UNL     1       2.212   2.276  19.017  0.00  0.00    +0.000 C 
ATOM     10  O   UNL     1       4.548   2.731  18.925  0.00  0.00    +0.000 OA
ATOM     11  O   UNL     1       5.636   3.612  19.360  0.00  0.00    +0.000 OA
ENDROOT
BRANCH   1  18
ATOM     12 CL   UNL     1       4.013   7.291  17.343  0.00  0.00    +0.000 Cl
ATOM     13  C   UNL     1       5.119   6.159  16.640  0.00  0.00    +0.000 A 
ATOM     14  C   UNL     1       5.368   6.290  15.268  0.00  0.00    +0.000 A 
ATOM     15  C   UNL     1       6.248   5.423  14.628  0.00  0.00    +0.000 A 
ATOM     16  C   UNL     1       6.894   4.435  15.362  0.00  0.00    +0.000 A 
ATOM     17  C   UNL     1       6.639   4.294  16.730  0.00  0.00    +0.000 A 
ATOM     18  C   UNL     1       5.729   5.136  17.395  0.00  0.00    +0.000 A 
ENDBRANCH   1  18
TORSDOF 1
ENDMDL
MODEL 6
REMARK VINA RESULT:      -6.9      1.751      5.794
REMARK  Name = 
REMARK  1 active torsions:
REMARK  status: ('A' for Active; 'I' for Inactive)
REMARK    1  A    between atoms: C_7  and  C_8
REMARK                            x       y       z     vdW  Elec       q    Type
REMARK                         _______ _______ _______ _____ _____    ______ ____
ROOT
ATOM      1  C   UNL     1       4.654   4.991  19.403  0.00  0.00    +0.000 C 
ATOM      2  O   UNL     1       5.613   4.092  18.806  0.00  0.00    +0.000 OA
ATOM      3  O   UNL     1       5.232   3.813  17.412  0.00  0.00    +0.000 OA
ATOM      4  C   UNL     1       5.144   5.055  16.701  0.00  0.00    +0.000 C 
ATOM      5  C   UNL     1       6.490   5.803  16.654  0.00  0.00    +0.000 C 
ATOM      6  C   UNL     1       7.560   5.028  15.884  0.00  0.00    +0.000 C 
ATOM      7  C   UNL     1       7.095   4.669  14.477  0.00  0.00    +0.000 C 
ATOM      8  C   UNL     1       5.760   3.931  14.496  0.00  0.00    +0.000 C 
ATOM      9  C   UNL     1       4.700   4.715  15.269  0.00  0.00    +0.000 C 
ATOM     10  O   UNL     1       4.090   5.844  17.276  0.00  0.00    +0.000 OA
ATOM     11  O   UNL     1       4.485   6.200  18.642  0.00  0.00    +0.000 OA
ENDROOT
BRANCH   1  18
ATOM     12 CL   UNL     1       4.724   2.011  20.323  0.00  0.00    +0.000 Cl
ATOM     13  C   UNL     1       3.309   3.007  20.275  0.00  0.00    +0.000 A 
ATOM     14  C   UNL     1       2.098   2.398  20.629  0.00  0.00    +0.000 A 
ATOM     15  C   UNL     1       0.914   3.130  20.620  0.00  0.00    +0.000 A 
ATOM     16  C   UNL     1       0.944   4.476  20.274  0.00  0.00    +0.000 A 
ATOM     17  C   UNL     1       2.148   5.084  19.910  0.00  0.00    +0.000 A 
ATOM     18  C   UNL     1       3.353   4.359  19.878  0.00  0.00    +0.000 A 
ENDBRANCH   1  18
TORSDOF 1
ENDMDL
MODEL 7
REMARK VINA RESULT:      -6.9      1.918      2.901
REMARK  Name = 
REMARK  1 active torsions:
REMARK  status: ('A' for Active; 'I' for Inactive)
REMARK    1  A    between atoms: C_7  and  C_8
REMARK                            x       y       z     vdW  Elec       q    Type
REMARK                         _______ _______ _______ _____ _____    ______ ____
ROOT
ATOM      1  C   UNL     1       5.992   4.429  18.177  0.00  0.00    +0.000 C 
ATOM      2  O   UNL     1       5.536   4.142  19.517  0.00  0.00    +0.000 OA
ATOM      3  O   UNL     1       4.245   4.804  19.755  0.00  0.00    +0.000 OA
ATOM      4  C   UNL     1       3.309   4.362  18.763  0.00  0.00    +0.000 C 
ATOM      5  C   UNL     1       3.051   2.844  18.832  0.00  0.00    +0.000 C 
ATOM      6  C   UNL     1       2.397   2.425  20.150  0.00  0.00    +0.000 C 
ATOM      7  C   UNL     1       1.112   3.201  20.415  0.00  0.00    +0.000 C 
ATOM      8  C   UNL     1       1.340   4.708  20.346  0.00  0.00    +0.000 C 
ATOM      9  C   UNL     1       1.994   5.115  19.026  0.00  0.00    +0.000 C 
ATOM     10  O   UNL     1       3.768   4.788  17.471  0.00  0.00    +0.000 OA
ATOM     11  O   UNL     1       5.018   4.080  17.178  0.00  0.00    +0.000 OA
ENDROOT
BRANCH   1  18
ATOM     12 CL   UNL     1       8.480   5.139  19.919  0.00  0.00    +0.000 Cl
ATOM     13  C   UNL     1       7.750   6.186  18.750  0.00  0.00    +0.000 A 
ATOM     14  C   UNL     1       8.297   7.470  18.624  0.00  0.00    +0.000 A 
ATOM     15  C   UNL     1       7.771   8.371  17.704  0.00  0.00    +0.000 A 
ATOM     16  C   UNL     1       6.709   7.984  16.895  0.00  0.00    +0.000 A 
ATOM     17  C   UNL     1       6.152   6.708  17.026  0.00  0.00    +0.000 A 
ATOM     18  C   UNL     1       6.643   5.789  17.971  0.00  0.00    +0.000 A 
ENDBRANCH   1  18
TORSDOF 1
ENDMDL
MODEL 8
REMARK VINA RESULT:      -6.8      2.362      5.909
REMARK  Name = 
REMARK  1 active torsions:
REMARK  status: ('A' for Active; 'I' for Inactive)
REMARK    1  A    between atoms: C_7  and  C_8
REMARK                            x       y       z     vdW  Elec       q    Type
REMARK                         _______ _______ _______ _____ _____    ______ ____
ROOT
ATOM      1  C   UNL     1       3.047   5.121  18.259  0.00  0.00    +0.000 C 
ATOM      2  O   UNL     1       3.652   6.351  18.714  0.00  0.00    +0.000 OA
ATOM      3  O   UNL     1       5.041   6.099  19.127  0.00  0.00    +0.000 OA
ATOM      4  C   UNL     1       5.754   5.525  18.022  0.00  0.00    +0.000 C 
ATOM      5  C   UNL     1       5.815   6.471  16.806  0.00  0.00    +0.000 C 
ATOM      6  C   UNL     1       6.593   7.753  17.105  0.00  0.00    +0.000 C 
ATOM      7  C   UNL     1       7.995   7.455  17.625  0.00  0.00    +0.000 C 
ATOM      8  C   UNL     1       7.962   6.516  18.826  0.00  0.00    +0.000 C 
ATOM      9  C   UNL     1       7.181   5.239  18.517  0.00  0.00    +0.000 C 
ATOM     10  O   UNL     1       5.171   4.252  17.707  0.00  0.00    +0.000 OA
ATOM     11  O   UNL     1       3.809   4.486  17.218  0.00  0.00    +0.000 OA
ENDROOT
BRANCH   1  18
ATOM     12 CL   UNL     1       2.271   2.214  17.435  0.00  0.00    +0.000 Cl
ATOM     13  C   UNL     1       2.160   2.859  19.038  0.00  0.00    +0.000 A 
ATOM     14  C   UNL     1       1.630   2.015  20.023  0.00  0.00    +0.000 A 
ATOM     15  C   UNL     1       1.512   2.456  21.337  0.00  0.00    +0.000 A 
ATOM     16  C   UNL     1       1.940   3.735  21.672  0.00  0.00    +0.000 A 
ATOM     17  C   UNL     1       2.460   4.585  20.691  0.00  0.00    +0.000 A 
ATOM     18  C   UNL     1       2.559   4.176  19.348  0.00  0.00    +0.000 A 
ENDBRANCH   1  18
TORSDOF 1
ENDMDL
MODEL 9
REMARK VINA RESULT:      -6.6      3.243      5.603
REMARK  Name = 
REMARK  1 active torsions:
REMARK  status: ('A' for Active; 'I' for Inactive)
REMARK    1  A    between atoms: C_7  and  C_8
REMARK                            x       y       z     vdW  Elec       q    Type
REMARK                         _______ _______ _______ _____ _____    ______ ____
ROOT
ATOM      1  C   UNL     1       2.879   7.082  19.140  0.00  0.00    +0.000 C 
ATOM      2  O   UNL     1       3.381   5.984  19.932  0.00  0.00    +0.000 OA
ATOM      3  O   UNL     1       2.446   4.851  19.863  0.00  0.00    +0.000 OA
ATOM      4  C   UNL     1       2.266   4.484  18.488  0.00  0.00    +0.000 C 
ATOM      5  C   UNL     1       3.578   4.019  17.827  0.00  0.00    +0.000 C 
ATOM      6  C   UNL     1       4.132   2.745  18.466  0.00  0.00    +0.000 C 
ATOM      7  C   UNL     1       3.102   1.620  18.467  0.00  0.00    +0.000 C 
ATOM      8  C   UNL     1       1.791   2.058  19.111  0.00  0.00    +0.000 C 
ATOM      9  C   UNL     1       1.248   3.332  18.466  0.00  0.00    +0.000 C 
ATOM     10  O   UNL     1       1.652   5.581  17.793  0.00  0.00    +0.000 OA
ATOM     11  O   UNL     1       2.601   6.698  17.782  0.00  0.00    +0.000 OA
ENDROOT
BRANCH   1  18
ATOM     12 CL   UNL     1       1.971   9.676  17.665  0.00  0.00    +0.000 Cl
ATOM     13  C   UNL     1       1.362   9.132  19.191  0.00  0.00    +0.000 A 
ATOM     14  C   UNL     1       0.426   9.958  19.828  0.00  0.00    +0.000 A 
ATOM     15  C   UNL     1      -0.116   9.590  21.056  0.00  0.00    +0.000 A 
ATOM     16  C   UNL     1       0.264   8.387  21.640  0.00  0.00    +0.000 A 
ATOM     17  C   UNL     1       1.206   7.565  21.013  0.00  0.00    +0.000 A 
ATOM     18  C   UNL     1       1.794   7.929  19.788  0.00  0.00    +0.000 A 
ENDBRANCH   1  18
TORSDOF 1
ENDMDL
