MODEL 1
REMARK VINA RESULT:      -7.8      0.000      0.000
REMARK  Name = 
REMARK  2 active torsions:
REMARK  status: ('A' for Active; 'I' for Inactive)
REMARK    1  A    between atoms: C_4  and  C_5
REMARK    2  A    between atoms: C_5  and  C_6
REMARK                            x       y       z     vdW  Elec       q    Type
REMARK                         _______ _______ _______ _____ _____    ______ ____
ROOT
ATOM      1  C   UNL     1       3.730   3.867  17.717  0.00  0.00    +0.000 A 
ATOM      2  C   UNL     1       3.620   2.463  17.739  0.00  0.00    +0.000 A 
ATOM      3  C   UNL     1       2.784   1.817  18.641  0.00  0.00    +0.000 A 
ATOM      4  C   UNL     1       2.053   2.563  19.557  0.00  0.00    +0.000 A 
ATOM      5  C   UNL     1       2.163   3.959  19.595  0.00  0.00    +0.000 A 
ATOM      6  C   UNL     1       1.435   4.677  20.558  0.00  0.00    +0.000 A 
ATOM      7  C   UNL     1       1.528   6.062  20.643  0.00  0.00    +0.000 A 
ATOM      8  C   UNL     1       2.343   6.750  19.753  0.00  0.00    +0.000 A 
ATOM      9  C   UNL     1       3.065   6.051  18.777  0.00  0.00    +0.000 A 
ATOM     10  C   UNL     1       3.003   4.641  18.669  0.00  0.00    +0.000 A 
ENDROOT
BRANCH   1  11
ATOM     11  C   UNL     1       4.620   4.467  16.638  0.00  0.00    +0.000 C 
BRANCH  11  15
ATOM     12  N   UNL     1       7.668   7.655  17.225  0.00  0.00    +0.000 N 
ATOM     13  C   UNL     1       7.160   6.433  16.975  0.00  0.00    +0.000 C 
ATOM     14  N   UNL     1       6.441   5.729  17.774  0.00  0.00    +0.000 NA
ATOM     15  C   UNL     1       6.116   4.511  17.004  0.00  0.00    +0.000 C 
ATOM     16  C   UNL     1       7.006   4.611  15.770  0.00  0.00    +0.000 C 
ATOM     17  O   UNL     1       7.439   5.965  15.741  0.00  0.00    +0.000 OA
ATOM     18  H   UNL     1       7.207   8.145  17.979  0.00  0.00    +0.000 HD
ATOM     19  H   UNL     1       7.884   8.209  16.408  0.00  0.00    +0.000 HD
ENDBRANCH  11  15
ENDBRANCH   1  11
TORSDOF 2
ENDMDL
MODEL 2
REMARK VINA RESULT:      -7.7      1.451      2.870
REMARK  Name = 
REMARK  2 active torsions:
REMARK  status: ('A' for Active; 'I' for Inactive)
REMARK    1  A    between atoms: C_4  and  C_5
REMARK    2  A    between atoms: C_5  and  C_6
REMARK                            x       y       z     vdW  Elec       q    Type
REMARK                         _______ _______ _______ _____ _____    ______ ____
ROOT
ATOM      1  C   UNL     1       3.547   5.190  17.957  0.00  0.00    +0.000 A 
ATOM      2  C   UNL     1       3.488   6.575  18.211  0.00  0.00    +0.000 A 
ATOM      3  C   UNL     1       2.693   7.090  19.227  0.00  0.00    +0.000 A 
ATOM      4  C   UNL     1       1.922   6.231  20.000  0.00  0.00    +0.000 A 
ATOM      5  C   UNL     1       1.921   4.852  19.755  0.00  0.00    +0.000 A 
ATOM      6  C   UNL     1       1.101   4.019  20.534  0.00  0.00    +0.000 A 
ATOM      7  C   UNL     1       1.057   2.647  20.314  0.00  0.00    +0.000 A 
ATOM      8  C   UNL     1       1.844   2.086  19.316  0.00  0.00    +0.000 A 
ATOM      9  C   UNL     1       2.678   2.901  18.539  0.00  0.00    +0.000 A 
ATOM     10  C   UNL     1       2.740   4.302  18.728  0.00  0.00    +0.000 A 
ENDROOT
BRANCH   1  11
ATOM     11  C   UNL     1       4.507   4.735  16.868  0.00  0.00    +0.000 C 
BRANCH  11  15
ATOM     12  N   UNL     1       7.756   5.301  13.880  0.00  0.00    +0.000 N 
ATOM     13  C   UNL     1       7.139   5.279  15.078  0.00  0.00    +0.000 C 
ATOM     14  N   UNL     1       6.110   5.970  15.417  0.00  0.00    +0.000 NA
ATOM     15  C   UNL     1       5.817   5.543  16.801  0.00  0.00    +0.000 C 
ATOM     16  C   UNL     1       7.029   4.703  17.188  0.00  0.00    +0.000 C 
ATOM     17  O   UNL     1       7.679   4.410  15.957  0.00  0.00    +0.000 OA
ATOM     18  H   UNL     1       7.187   5.675  13.132  0.00  0.00    +0.000 HD
ATOM     19  H   UNL     1       8.291   4.475  13.655  0.00  0.00    +0.000 HD
ENDBRANCH  11  15
ENDBRANCH   1  11
TORSDOF 2
ENDMDL
MODEL 3
REMARK VINA RESULT:      -7.6      1.553      2.008
REMARK  Name = 
REMARK  2 active torsions:
REMARK  status: ('A' for Active; 'I' for Inactive)
REMARK    1  A    between atoms: C_4  and  C_5
REMARK    2  A    between atoms: C_5  and  C_6
REMARK                            x       y       z     vdW  Elec       q    Type
REMARK                         _______ _______ _______ _____ _____    ______ ____
ROOT
ATOM      1  C   UNL     1       4.054   4.868  17.696  0.00  0.00    +0.000 A 
ATOM      2  C   UNL     1       4.213   3.834  16.753  0.00  0.00    +0.000 A 
ATOM      3  C   UNL     1       3.373   2.728  16.744  0.00  0.00    +0.000 A 
ATOM      4  C   UNL     1       2.364   2.623  17.694  0.00  0.00    +0.000 A 
ATOM      5  C   UNL     1       2.196   3.611  18.673  0.00  0.00    +0.000 A 
ATOM      6  C   UNL     1       1.188   3.452  19.638  0.00  0.00    +0.000 A 
ATOM      7  C   UNL     1       0.998   4.400  20.639  0.00  0.00    +0.000 A 
ATOM      8  C   UNL     1       1.808   5.527  20.679  0.00  0.00    +0.000 A 
ATOM      9  C   UNL     1       2.809   5.707  19.716  0.00  0.00    +0.000 A 
ATOM     10  C   UNL     1       3.039   4.758  18.691  0.00  0.00    +0.000 A 
ENDROOT
BRANCH   1  11
ATOM     11  C   UNL     1       4.988   6.063  17.564  0.00  0.00    +0.000 C 
BRANCH  11  15
ATOM     12  N   UNL     1       8.445   5.317  20.264  0.00  0.00    +0.000 N 
ATOM     13  C   UNL     1       7.773   5.626  19.138  0.00  0.00    +0.000 C 
ATOM     14  N   UNL     1       6.956   4.863  18.506  0.00  0.00    +0.000 NA
ATOM     15  C   UNL     1       6.471   5.690  17.381  0.00  0.00    +0.000 C 
ATOM     16  C   UNL     1       7.378   6.915  17.412  0.00  0.00    +0.000 C 
ATOM     17  O   UNL     1       7.997   6.880  18.692  0.00  0.00    +0.000 OA
ATOM     18  H   UNL     1       8.049   4.542  20.779  0.00  0.00    +0.000 HD
ATOM     19  H   UNL     1       8.744   6.106  20.819  0.00  0.00    +0.000 HD
ENDBRANCH  11  15
ENDBRANCH   1  11
TORSDOF 2
ENDMDL
MODEL 4
REMARK VINA RESULT:      -7.5      1.234      2.728
REMARK  Name = 
REMARK  2 active torsions:
REMARK  status: ('A' for Active; 'I' for Inactive)
REMARK    1  A    between atoms: C_4  and  C_5
REMARK    2  A    between atoms: C_5  and  C_6
REMARK                            x       y       z     vdW  Elec       q    Type
REMARK                         _______ _______ _______ _____ _____    ______ ____
ROOT
ATOM      1  C   UNL     1       3.503   5.340  17.995  0.00  0.00    +0.000 A 
ATOM      2  C   UNL     1       3.431   6.690  18.393  0.00  0.00    +0.000 A 
ATOM      3  C   UNL     1       2.624   7.090  19.450  0.00  0.00    +0.000 A 
ATOM      4  C   UNL     1       1.854   6.149  20.122  0.00  0.00    +0.000 A 
ATOM      5  C   UNL     1       1.867   4.803  19.734  0.00  0.00    +0.000 A 
ATOM      6  C   UNL     1       1.049   3.887  20.415  0.00  0.00    +0.000 A 
ATOM      7  C   UNL     1       1.017   2.545  20.051  0.00  0.00    +0.000 A 
ATOM      8  C   UNL     1       1.817   2.098  19.007  0.00  0.00    +0.000 A 
ATOM      9  C   UNL     1       2.650   2.996  18.326  0.00  0.00    +0.000 A 
ATOM     10  C   UNL     1       2.698   4.371  18.662  0.00  0.00    +0.000 A 
ENDROOT
BRANCH   1  11
ATOM     11  C   UNL     1       4.475   5.010  16.872  0.00  0.00    +0.000 C 
BRANCH  11  15
ATOM     12  N   UNL     1       8.009   5.916  19.420  0.00  0.00    +0.000 N 
ATOM     13  C   UNL     1       7.260   5.308  18.480  0.00  0.00    +0.000 C 
ATOM     14  N   UNL     1       6.159   4.675  18.675  0.00  0.00    +0.000 NA
ATOM     15  C   UNL     1       5.733   4.246  17.327  0.00  0.00    +0.000 C 
ATOM     16  C   UNL     1       6.940   4.554  16.448  0.00  0.00    +0.000 C 
ATOM     17  O   UNL     1       7.745   5.431  17.227  0.00  0.00    +0.000 OA
ATOM     18  H   UNL     1       7.510   6.118  20.275  0.00  0.00    +0.000 HD
ATOM     19  H   UNL     1       8.615   6.650  19.081  0.00  0.00    +0.000 HD
ENDBRANCH  11  15
ENDBRANCH   1  11
TORSDOF 2
ENDMDL
MODEL 5
REMARK VINA RESULT:      -7.5      1.384      3.031
REMARK  Name = 
REMARK  2 active torsions:
REMARK  status: ('A' for Active; 'I' for Inactive)
REMARK    1  A    between atoms: C_4  and  C_5
REMARK    2  A    between atoms: C_5  and  C_6
REMARK                            x       y       z     vdW  Elec       q    Type
REMARK                         _______ _______ _______ _____ _____    ______ ____
ROOT
ATOM      1  C   UNL     1       2.944   5.974  18.390  0.00  0.00    +0.000 A 
ATOM      2  C   UNL     1       2.633   6.935  19.373  0.00  0.00    +0.000 A 
ATOM      3  C   UNL     1       1.903   6.600  20.506  0.00  0.00    +0.000 A 
ATOM      4  C   UNL     1       1.449   5.297  20.671  0.00  0.00    +0.000 A 
ATOM      5  C   UNL     1       1.703   4.321  19.699  0.00  0.00    +0.000 A 
ATOM      6  C   UNL     1       1.197   3.024  19.885  0.00  0.00    +0.000 A 
ATOM      7  C   UNL     1       1.410   2.028  18.937  0.00  0.00    +0.000 A 
ATOM      8  C   UNL     1       2.144   2.316  17.793  0.00  0.00    +0.000 A 
ATOM      9  C   UNL     1       2.668   3.601  17.599  0.00  0.00    +0.000 A 
ATOM     10  C   UNL     1       2.461   4.641  18.538  0.00  0.00    +0.000 A 
ENDROOT
BRANCH   1  11
ATOM     11  C   UNL     1       3.809   6.440  17.228  0.00  0.00    +0.000 C 
BRANCH  11  15
ATOM     12  N   UNL     1       7.614   5.226  15.266  0.00  0.00    +0.000 N 
ATOM     13  C   UNL     1       6.765   5.582  16.249  0.00  0.00    +0.000 C 
ATOM     14  N   UNL     1       6.120   6.690  16.335  0.00  0.00    +0.000 NA
ATOM     15  C   UNL     1       5.309   6.553  17.562  0.00  0.00    +0.000 C 
ATOM     16  C   UNL     1       5.848   5.286  18.216  0.00  0.00    +0.000 C 
ATOM     17  O   UNL     1       6.590   4.634  17.193  0.00  0.00    +0.000 OA
ATOM     18  H   UNL     1       7.502   5.759  14.414  0.00  0.00    +0.000 HD
ATOM     19  H   UNL     1       7.747   4.232  15.149  0.00  0.00    +0.000 HD
ENDBRANCH  11  15
ENDBRANCH   1  11
TORSDOF 2
ENDMDL
MODEL 6
REMARK VINA RESULT:      -7.5      0.998      2.495
REMARK  Name = 
REMARK  2 active torsions:
REMARK  status: ('A' for Active; 'I' for Inactive)
REMARK    1  A    between atoms: C_4  and  C_5
REMARK    2  A    between atoms: C_5  and  C_6
REMARK                            x       y       z     vdW  Elec       q    Type
REMARK                         _______ _______ _______ _____ _____    ______ ____
ROOT
ATOM      1  C   UNL     1       3.720   5.308  17.928  0.00  0.00    +0.000 A 
ATOM      2  C   UNL     1       3.329   6.649  17.737  0.00  0.00    +0.000 A 
ATOM      3  C   UNL     1       2.559   7.319  18.680  0.00  0.00    +0.000 A 
ATOM      4  C   UNL     1       2.145   6.654  19.827  0.00  0.00    +0.000 A 
ATOM      5  C   UNL     1       2.479   5.310  20.037  0.00  0.00    +0.000 A 
ATOM      6  C   UNL     1       2.012   4.662  21.193  0.00  0.00    +0.000 A 
ATOM      7  C   UNL     1       2.306   3.323  21.432  0.00  0.00    +0.000 A 
ATOM      8  C   UNL     1       3.082   2.618  20.522  0.00  0.00    +0.000 A 
ATOM      9  C   UNL     1       3.567   3.253  19.372  0.00  0.00    +0.000 A 
ATOM     10  C   UNL     1       3.279   4.610  19.090  0.00  0.00    +0.000 A 
ENDROOT
BRANCH   1  11
ATOM     11  C   UNL     1       4.622   4.702  16.863  0.00  0.00    +0.000 C 
BRANCH  11  15
ATOM     12  N   UNL     1       7.770   7.818  17.293  0.00  0.00    +0.000 N 
ATOM     13  C   UNL     1       7.222   6.602  17.100  0.00  0.00    +0.000 C 
ATOM     14  N   UNL     1       6.487   5.957  17.933  0.00  0.00    +0.000 NA
ATOM     15  C   UNL     1       6.120   4.716  17.220  0.00  0.00    +0.000 C 
ATOM     16  C   UNL     1       7.005   4.733  15.979  0.00  0.00    +0.000 C 
ATOM     17  O   UNL     1       7.480   6.071  15.887  0.00  0.00    +0.000 OA
ATOM     18  H   UNL     1       7.328   8.355  18.026  0.00  0.00    +0.000 HD
ATOM     19  H   UNL     1       7.997   8.327  16.451  0.00  0.00    +0.000 HD
ENDBRANCH  11  15
ENDBRANCH   1  11
TORSDOF 2
ENDMDL
MODEL 7
REMARK VINA RESULT:      -7.4      3.339      5.444
REMARK  Name = 
REMARK  2 active torsions:
REMARK  status: ('A' for Active; 'I' for Inactive)
REMARK    1  A    between atoms: C_4  and  C_5
REMARK    2  A    between atoms: C_5  and  C_6
REMARK                            x       y       z     vdW  Elec       q    Type
REMARK                         _______ _______ _______ _____ _____    ______ ____
ROOT
ATOM      1  C   UNL     1       3.104   4.359  17.468  0.00  0.00    +0.000 A 
ATOM      2  C   UNL     1       2.186   5.269  18.031  0.00  0.00    +0.000 A 
ATOM      3  C   UNL     1       2.497   6.616  18.171  0.00  0.00    +0.000 A 
ATOM      4  C   UNL     1       3.743   7.079  17.768  0.00  0.00    +0.000 A 
ATOM      5  C   UNL     1       4.698   6.201  17.240  0.00  0.00    +0.000 A 
ATOM      6  C   UNL     1       5.960   6.701  16.878  0.00  0.00    +0.000 A 
ATOM      7  C   UNL     1       6.944   5.862  16.366  0.00  0.00    +0.000 A 
ATOM      8  C   UNL     1       6.673   4.510  16.198  0.00  0.00    +0.000 A 
ATOM      9  C   UNL     1       5.415   3.998  16.542  0.00  0.00    +0.000 A 
ATOM     10  C   UNL     1       4.394   4.820  17.076  0.00  0.00    +0.000 A 
ENDROOT
BRANCH   1  11
ATOM     11  C   UNL     1       2.627   2.924  17.299  0.00  0.00    +0.000 C 
BRANCH  11  15
ATOM     12  N   UNL     1       1.020   2.787  21.447  0.00  0.00    +0.000 N 
ATOM     13  C   UNL     1       1.865   2.578  20.419  0.00  0.00    +0.000 C 
ATOM     14  N   UNL     1       1.607   1.928  19.341  0.00  0.00    +0.000 NA
ATOM     15  C   UNL     1       2.843   2.035  18.539  0.00  0.00    +0.000 C 
ATOM     16  C   UNL     1       3.855   2.637  19.506  0.00  0.00    +0.000 C 
ATOM     17  O   UNL     1       3.075   3.154  20.577  0.00  0.00    +0.000 OA
ATOM     18  H   UNL     1       0.046   2.661  21.210  0.00  0.00    +0.000 HD
ATOM     19  H   UNL     1       1.232   3.588  22.024  0.00  0.00    +0.000 HD
ENDBRANCH  11  15
ENDBRANCH   1  11
TORSDOF 2
ENDMDL
MODEL 8
REMARK VINA RESULT:      -7.3      1.833      3.152
REMARK  Name = 
REMARK  2 active torsions:
REMARK  status: ('A' for Active; 'I' for Inactive)
REMARK    1  A    between atoms: C_4  and  C_5
REMARK    2  A    between atoms: C_5  and  C_6
REMARK                            x       y       z     vdW  Elec       q    Type
REMARK                         _______ _______ _______ _____ _____    ______ ____
ROOT
ATOM      1  C   UNL     1       3.788   4.931  17.950  0.00  0.00    +0.000 A 
ATOM      2  C   UNL     1       3.754   6.340  17.912  0.00  0.00    +0.000 A 
ATOM      3  C   UNL     1       2.912   7.065  18.746  0.00  0.00    +0.000 A 
ATOM      4  C   UNL     1       2.069   6.395  19.623  0.00  0.00    +0.000 A 
ATOM      5  C   UNL     1       2.043   4.995  19.664  0.00  0.00    +0.000 A 
ATOM      6  C   UNL     1       1.151   4.353  20.539  0.00  0.00    +0.000 A 
ATOM      7  C   UNL     1       1.079   2.965  20.600  0.00  0.00    +0.000 A 
ATOM      8  C   UNL     1       1.911   2.200  19.792  0.00  0.00    +0.000 A 
ATOM      9  C   UNL     1       2.816   2.824  18.924  0.00  0.00    +0.000 A 
ATOM     10  C   UNL     1       2.908   4.234  18.828  0.00  0.00    +0.000 A 
ENDROOT
BRANCH   1  11
ATOM     11  C   UNL     1       4.800   4.248  17.043  0.00  0.00    +0.000 C 
BRANCH  11  15
ATOM     12  N   UNL     1       6.696   3.535  13.080  0.00  0.00    +0.000 N 
ATOM     13  C   UNL     1       6.344   4.185  14.207  0.00  0.00    +0.000 C 
ATOM     14  N   UNL     1       5.147   4.457  14.586  0.00  0.00    +0.000 NA
ATOM     15  C   UNL     1       5.316   5.131  15.890  0.00  0.00    +0.000 C 
ATOM     16  C   UNL     1       6.817   5.376  15.983  0.00  0.00    +0.000 C 
ATOM     17  O   UNL     1       7.387   4.534  14.988  0.00  0.00    +0.000 OA
ATOM     18  H   UNL     1       5.950   2.990  12.671  0.00  0.00    +0.000 HD
ATOM     19  H   UNL     1       7.603   3.091  13.104  0.00  0.00    +0.000 HD
ENDBRANCH  11  15
ENDBRANCH   1  11
TORSDOF 2
ENDMDL
MODEL 9
REMARK VINA RESULT:      -7.3      1.254      1.374
REMARK  Name = 
REMARK  2 active torsions:
REMARK  status: ('A' for Active; 'I' for Inactive)
REMARK    1  A    between atoms: C_4  and  C_5
REMARK    2  A    between atoms: C_5  and  C_6
REMARK                            x       y       z     vdW  Elec       q    Type
REMARK                         _______ _______ _______ _____ _____    ______ ____
ROOT
ATOM      1  C   UNL     1       3.646   3.756  17.620  0.00  0.00    +0.000 A 
ATOM      2  C   UNL     1       3.618   2.365  17.844  0.00  0.00    +0.000 A 
ATOM      3  C   UNL     1       2.956   1.823  18.938  0.00  0.00    +0.000 A 
ATOM      4  C   UNL     1       2.323   2.663  19.845  0.00  0.00    +0.000 A 
ATOM      5  C   UNL     1       2.360   4.054  19.680  0.00  0.00    +0.000 A 
ATOM      6  C   UNL     1       1.739   4.873  20.638  0.00  0.00    +0.000 A 
ATOM      7  C   UNL     1       1.767   6.259  20.523  0.00  0.00    +0.000 A 
ATOM      8  C   UNL     1       2.408   6.844  19.438  0.00  0.00    +0.000 A 
ATOM      9  C   UNL     1       3.021   6.042  18.467  0.00  0.00    +0.000 A 
ATOM     10  C   UNL     1       3.022   4.629  18.558  0.00  0.00    +0.000 A 
ENDROOT
BRANCH   1  11
ATOM     11  C   UNL     1       4.340   4.230  16.351  0.00  0.00    +0.000 C 
BRANCH  11  15
ATOM     12  N   UNL     1       7.949   5.505  14.082  0.00  0.00    +0.000 N 
ATOM     13  C   UNL     1       7.141   5.283  15.136  0.00  0.00    +0.000 C 
ATOM     14  N   UNL     1       5.980   5.799  15.327  0.00  0.00    +0.000 NA
ATOM     15  C   UNL     1       5.512   5.200  16.594  0.00  0.00    +0.000 C 
ATOM     16  C   UNL     1       6.744   4.486  17.137  0.00  0.00    +0.000 C 
ATOM     17  O   UNL     1       7.636   4.404  16.032  0.00  0.00    +0.000 OA
ATOM     18  H   UNL     1       7.474   5.878  13.271  0.00  0.00    +0.000 HD
ATOM     19  H   UNL     1       8.628   4.780  13.898  0.00  0.00    +0.000 HD
ENDBRANCH  11  15
ENDBRANCH   1  11
TORSDOF 2
ENDMDL
