MODEL 1
REMARK VINA RESULT:      -6.9      0.000      0.000
REMARK  Name = 
REMARK  10 active torsions:
REMARK  status: ('A' for Active; 'I' for Inactive)
REMARK    1  A    between atoms: C_1  and  C_2
REMARK    2  A    between atoms: C_2  and  C_3
REMARK    3  A    between atoms: C_2  and  C_4
REMARK    4  A    between atoms: C_2  and  N_5
REMARK    5  A    between atoms: N_5  and  N_14
REMARK    6  A    between atoms: C_6  and  C_8
REMARK    7  A    between atoms: N_14  and  S_15
REMARK    8  A    between atoms: S_15  and  O_16
REMARK    9  A    between atoms: O_16  and  C_17
REMARK   10  A    between atoms: C_24  and  C_26
REMARK                            x       y       z     vdW  Elec       q    Type
REMARK                         _______ _______ _______ _____ _____    ______ ____
ROOT
ATOM      1  N   UNL     1      -0.341  11.392  20.715  0.00  0.00    +0.000 N 
ATOM      2  C   UNL     1       0.007  10.026  20.869  0.00  0.00    +0.000 C 
ATOM      3  O   UNL     1      -0.384   9.368  21.845  0.00  0.00    +0.000 OA
ENDROOT
BRANCH   2   4
ATOM      4  C   UNL     1       0.896   9.281  19.930  0.00  0.00    +0.000 A 
ATOM      5  C   UNL     1       1.526   8.139  20.465  0.00  0.00    +0.000 A 
ATOM      6  C   UNL     1       2.339   7.323  19.679  0.00  0.00    +0.000 A 
ATOM      7  C   UNL     1       2.534   7.632  18.338  0.00  0.00    +0.000 A 
ATOM      8  C   UNL     1       1.912   8.751  17.790  0.00  0.00    +0.000 A 
ATOM      9  C   UNL     1       1.094   9.568  18.580  0.00  0.00    +0.000 A 
ENDBRANCH   2   4
BRANCH   1  10
ATOM     10  N   UNL     1       0.068  12.188  19.600  0.00  0.00    +0.000 N 
ATOM     11  C   UNL     1      -0.841  12.478  18.547  0.00  0.00    +0.000 C 
ATOM     12  O   UNL     1      -0.638  13.427  17.781  0.00  0.00    +0.000 OA
BRANCH  11  13
ATOM     13  C   UNL     1      -2.022  11.602  18.172  0.00  0.00    +0.000 A 
ATOM     14  C   UNL     1      -1.981  10.463  17.366  0.00  0.00    +0.000 A 
ATOM     15  C   UNL     1      -3.147   9.750  17.049  0.00  0.00    +0.000 A 
ATOM     16  C   UNL     1      -4.379  10.137  17.566  0.00  0.00    +0.000 A 
ATOM     17  C   UNL     1      -4.453  11.261  18.377  0.00  0.00    +0.000 A 
ATOM     18  C   UNL     1      -3.291  11.992  18.664  0.00  0.00    +0.000 A 
ENDBRANCH  11  13
BRANCH  10  20
ATOM     19  C   UNL     1       1.008  14.504  20.009  0.00  0.00    +0.000 C 
ATOM     20  C   UNL     1       1.337  13.006  19.797  0.00  0.00    +0.000 C 
ATOM     21  C   UNL     1       2.261  12.911  18.553  0.00  0.00    +0.000 C 
ATOM     22  C   UNL     1       2.227  12.524  20.977  0.00  0.00    +0.000 C 
ENDBRANCH  10  20
ENDBRANCH   1  10
BRANCH   1  23
ATOM     23  S   UNL     1      -0.744  12.193  22.212  0.00  0.00    +0.000 S 
BRANCH  23  24
ATOM     24  O   UNL     1      -1.949  13.241  21.776  0.00  0.00    +0.000 OA
BRANCH  24  25
ATOM     25  C   UNL     1      -3.154  13.135  22.450  0.00  0.00    +0.000 A 
ATOM     26  C   UNL     1      -4.274  13.564  21.726  0.00  0.00    +0.000 A 
ATOM     27  C   UNL     1      -5.552  13.530  22.294  0.00  0.00    +0.000 A 
ATOM     28  C   UNL     1      -5.727  13.050  23.590  0.00  0.00    +0.000 A 
ATOM     29 CL   UNL     1      -7.292  13.017  24.294  0.00  0.00    +0.000 Cl
ATOM     30  C   UNL     1      -4.629  12.602  24.319  0.00  0.00    +0.000 A 
ATOM     31  C   UNL     1      -3.349  12.638  23.746  0.00  0.00    +0.000 A 
ENDBRANCH  24  25
ENDBRANCH  23  24
ENDBRANCH   1  23
TORSDOF 7
ENDMDL
MODEL 2
REMARK VINA RESULT:      -6.7      0.106      1.152
REMARK  Name = 
REMARK  10 active torsions:
REMARK  status: ('A' for Active; 'I' for Inactive)
REMARK    1  A    between atoms: C_1  and  C_2
REMARK    2  A    between atoms: C_2  and  C_3
REMARK    3  A    between atoms: C_2  and  C_4
REMARK    4  A    between atoms: C_2  and  N_5
REMARK    5  A    between atoms: N_5  and  N_14
REMARK    6  A    between atoms: C_6  and  C_8
REMARK    7  A    between atoms: N_14  and  S_15
REMARK    8  A    between atoms: S_15  and  O_16
REMARK    9  A    between atoms: O_16  and  C_17
REMARK   10  A    between atoms: C_24  and  C_26
REMARK                            x       y       z     vdW  Elec       q    Type
REMARK                         _______ _______ _______ _____ _____    ______ ____
ROOT
ATOM      1  N   UNL     1      -0.346  11.440  20.701  0.00  0.00    +0.000 N 
ATOM      2  C   UNL     1      -0.013  10.073  20.877  0.00  0.00    +0.000 C 
ATOM      3  O   UNL     1      -0.412   9.435  21.862  0.00  0.00    +0.000 OA
ENDROOT
BRANCH   2   4
ATOM      4  C   UNL     1       0.867   9.303  19.950  0.00  0.00    +0.000 A 
ATOM      5  C   UNL     1       1.493   8.169  20.506  0.00  0.00    +0.000 A 
ATOM      6  C   UNL     1       2.299   7.332  19.734  0.00  0.00    +0.000 A 
ATOM      7  C   UNL     1       2.490   7.612  18.386  0.00  0.00    +0.000 A 
ATOM      8  C   UNL     1       1.872   8.722  17.817  0.00  0.00    +0.000 A 
ATOM      9  C   UNL     1       1.062   9.561  18.593  0.00  0.00    +0.000 A 
ENDBRANCH   2   4
BRANCH   1  10
ATOM     10  N   UNL     1       0.073  12.214  19.574  0.00  0.00    +0.000 N 
ATOM     11  C   UNL     1      -0.845  12.535  18.536  0.00  0.00    +0.000 C 
ATOM     12  O   UNL     1      -0.619  13.471  17.761  0.00  0.00    +0.000 OA
BRANCH  11  13
ATOM     13  C   UNL     1      -2.066  11.704  18.189  0.00  0.00    +0.000 A 
ATOM     14  C   UNL     1      -3.364  11.908  18.660  0.00  0.00    +0.000 A 
ATOM     15  C   UNL     1      -4.414  11.049  18.304  0.00  0.00    +0.000 A 
ATOM     16  C   UNL     1      -4.199   9.987  17.433  0.00  0.00    +0.000 A 
ATOM     17  C   UNL     1      -2.922   9.761  16.940  0.00  0.00    +0.000 A 
ATOM     18  C   UNL     1      -1.866  10.601  17.324  0.00  0.00    +0.000 A 
ENDBRANCH  11  13
BRANCH  10  20
ATOM     19  C   UNL     1       2.138  12.517  21.007  0.00  0.00    +0.000 C 
ATOM     20  C   UNL     1       1.376  12.982  19.742  0.00  0.00    +0.000 C 
ATOM     21  C   UNL     1       1.111  14.504  19.900  0.00  0.00    +0.000 C 
ATOM     22  C   UNL     1       2.335  12.882  18.523  0.00  0.00    +0.000 C 
ENDBRANCH  10  20
ENDBRANCH   1  10
BRANCH   1  23
ATOM     23  S   UNL     1      -0.741  12.269  22.184  0.00  0.00    +0.000 S 
BRANCH  23  24
ATOM     24  O   UNL     1      -1.966  13.290  21.741  0.00  0.00    +0.000 OA
BRANCH  24  25
ATOM     25  C   UNL     1      -3.165  13.174  22.425  0.00  0.00    +0.000 A 
ATOM     26  C   UNL     1      -4.290  13.616  21.718  0.00  0.00    +0.000 A 
ATOM     27  C   UNL     1      -5.564  13.573  22.297  0.00  0.00    +0.000 A 
ATOM     28  C   UNL     1      -5.727  13.072  23.587  0.00  0.00    +0.000 A 
ATOM     29 CL   UNL     1      -7.285  13.029  24.305  0.00  0.00    +0.000 Cl
ATOM     30  C   UNL     1      -4.623  12.611  24.298  0.00  0.00    +0.000 A 
ATOM     31  C   UNL     1      -3.348  12.656  23.714  0.00  0.00    +0.000 A 
ENDBRANCH  24  25
ENDBRANCH  23  24
ENDBRANCH   1  23
TORSDOF 7
ENDMDL
MODEL 3
REMARK VINA RESULT:      -6.7      0.147      1.158
REMARK  Name = 
REMARK  10 active torsions:
REMARK  status: ('A' for Active; 'I' for Inactive)
REMARK    1  A    between atoms: C_1  and  C_2
REMARK    2  A    between atoms: C_2  and  C_3
REMARK    3  A    between atoms: C_2  and  C_4
REMARK    4  A    between atoms: C_2  and  N_5
REMARK    5  A    between atoms: N_5  and  N_14
REMARK    6  A    between atoms: C_6  and  C_8
REMARK    7  A    between atoms: N_14  and  S_15
REMARK    8  A    between atoms: S_15  and  O_16
REMARK    9  A    between atoms: O_16  and  C_17
REMARK   10  A    between atoms: C_24  and  C_26
REMARK                            x       y       z     vdW  Elec       q    Type
REMARK                         _______ _______ _______ _____ _____    ______ ____
ROOT
ATOM      1  N   UNL     1      -0.305  11.409  20.685  0.00  0.00    +0.000 N 
ATOM      2  C   UNL     1       0.039  10.044  20.855  0.00  0.00    +0.000 C 
ATOM      3  O   UNL     1      -0.347   9.401  21.842  0.00  0.00    +0.000 OA
ENDROOT
BRANCH   2   4
ATOM      4  C   UNL     1       0.917   9.283  19.919  0.00  0.00    +0.000 A 
ATOM      5  C   UNL     1       1.535   8.137  20.459  0.00  0.00    +0.000 A 
ATOM      6  C   UNL     1       2.337   7.307  19.677  0.00  0.00    +0.000 A 
ATOM      7  C   UNL     1       2.533   7.606  18.334  0.00  0.00    +0.000 A 
ATOM      8  C   UNL     1       1.923   8.728  17.780  0.00  0.00    +0.000 A 
ATOM      9  C   UNL     1       1.116   9.560  18.567  0.00  0.00    +0.000 A 
ENDBRANCH   2   4
BRANCH   1  10
ATOM     10  N   UNL     1       0.098  12.189  19.557  0.00  0.00    +0.000 N 
ATOM     11  C   UNL     1      -0.820  12.475  18.510  0.00  0.00    +0.000 C 
ATOM     12  O   UNL     1      -0.618  13.413  17.731  0.00  0.00    +0.000 OA
BRANCH  11  13
ATOM     13  C   UNL     1      -2.013  11.605  18.159  0.00  0.00    +0.000 A 
ATOM     14  C   UNL     1      -1.994  10.464  17.355  0.00  0.00    +0.000 A 
ATOM     15  C   UNL     1      -3.169   9.757  17.061  0.00  0.00    +0.000 A 
ATOM     16  C   UNL     1      -4.389  10.153  17.599  0.00  0.00    +0.000 A 
ATOM     17  C   UNL     1      -4.442  11.279  18.408  0.00  0.00    +0.000 A 
ATOM     18  C   UNL     1      -3.270  12.004  18.673  0.00  0.00    +0.000 A 
ENDBRANCH  11  13
BRANCH  10  20
ATOM     19  C   UNL     1       2.132  12.577  21.014  0.00  0.00    +0.000 C 
ATOM     20  C   UNL     1       1.376  12.997  19.730  0.00  0.00    +0.000 C 
ATOM     21  C   UNL     1       1.064  14.513  19.858  0.00  0.00    +0.000 C 
ATOM     22  C   UNL     1       2.355  12.905  18.527  0.00  0.00    +0.000 C 
ENDBRANCH  10  20
ENDBRANCH   1  10
BRANCH   1  23
ATOM     23  S   UNL     1      -0.693  12.231  22.174  0.00  0.00    +0.000 S 
BRANCH  23  24
ATOM     24  O   UNL     1      -1.768  13.398  21.702  0.00  0.00    +0.000 OA
BRANCH  24  25
ATOM     25  C   UNL     1      -3.049  13.329  22.224  0.00  0.00    +0.000 A 
ATOM     26  C   UNL     1      -3.134  12.753  23.498  0.00  0.00    +0.000 A 
ATOM     27  C   UNL     1      -4.372  12.603  24.136  0.00  0.00    +0.000 A 
ATOM     28  C   UNL     1      -5.536  13.043  23.511  0.00  0.00    +0.000 A 
ATOM     29 CL   UNL     1      -7.056  12.851  24.285  0.00  0.00    +0.000 Cl
ATOM     30  C   UNL     1      -5.469  13.634  22.253  0.00  0.00    +0.000 A 
ATOM     31  C   UNL     1      -4.228  13.782  21.617  0.00  0.00    +0.000 A 
ENDBRANCH  24  25
ENDBRANCH  23  24
ENDBRANCH   1  23
TORSDOF 7
ENDMDL
MODEL 4
REMARK VINA RESULT:      -6.6      0.305      1.482
REMARK  Name = 
REMARK  10 active torsions:
REMARK  status: ('A' for Active; 'I' for Inactive)
REMARK    1  A    between atoms: C_1  and  C_2
REMARK    2  A    between atoms: C_2  and  C_3
REMARK    3  A    between atoms: C_2  and  C_4
REMARK    4  A    between atoms: C_2  and  N_5
REMARK    5  A    between atoms: N_5  and  N_14
REMARK    6  A    between atoms: C_6  and  C_8
REMARK    7  A    between atoms: N_14  and  S_15
REMARK    8  A    between atoms: S_15  and  O_16
REMARK    9  A    between atoms: O_16  and  C_17
REMARK   10  A    between atoms: C_24  and  C_26
REMARK                            x       y       z     vdW  Elec       q    Type
REMARK                         _______ _______ _______ _____ _____    ______ ____
ROOT
ATOM      1  N   UNL     1      -0.236  11.634  20.684  0.00  0.00    +0.000 N 
ATOM      2  C   UNL     1       0.059  10.266  20.918  0.00  0.00    +0.000 C 
ATOM      3  O   UNL     1      -0.331   9.690  21.944  0.00  0.00    +0.000 OA
ENDROOT
BRANCH   2   4
ATOM      4  C   UNL     1       0.886   9.424  20.006  0.00  0.00    +0.000 A 
ATOM      5  C   UNL     1       1.474   8.286  20.595  0.00  0.00    +0.000 A 
ATOM      6  C   UNL     1       2.227   7.385  19.841  0.00  0.00    +0.000 A 
ATOM      7  C   UNL     1       2.401   7.604  18.480  0.00  0.00    +0.000 A 
ATOM      8  C   UNL     1       1.820   8.717  17.879  0.00  0.00    +0.000 A 
ATOM      9  C   UNL     1       1.063   9.619  18.636  0.00  0.00    +0.000 A 
ENDBRANCH   2   4
BRANCH   1  10
ATOM     10  N   UNL     1       0.173  12.337  19.509  0.00  0.00    +0.000 N 
ATOM     11  C   UNL     1      -0.759  12.618  18.473  0.00  0.00    +0.000 C 
ATOM     12  O   UNL     1      -0.533  13.507  17.643  0.00  0.00    +0.000 OA
BRANCH  11  13
ATOM     13  C   UNL     1      -2.001  11.793  18.195  0.00  0.00    +0.000 A 
ATOM     14  C   UNL     1      -3.273  12.009  18.730  0.00  0.00    +0.000 A 
ATOM     15  C   UNL     1      -4.345  11.154  18.435  0.00  0.00    +0.000 A 
ATOM     16  C   UNL     1      -4.180  10.083  17.563  0.00  0.00    +0.000 A 
ATOM     17  C   UNL     1      -2.930   9.845  17.008  0.00  0.00    +0.000 A 
ATOM     18  C   UNL     1      -1.852  10.681  17.331  0.00  0.00    +0.000 A 
ENDBRANCH  11  13
BRANCH  10  20
ATOM     19  C   UNL     1       2.413  12.766  18.407  0.00  0.00    +0.000 C 
ATOM     20  C   UNL     1       1.493  13.089  19.610  0.00  0.00    +0.000 C 
ATOM     21  C   UNL     1       2.265  12.690  20.897  0.00  0.00    +0.000 C 
ATOM     22  C   UNL     1       1.340  14.632  19.714  0.00  0.00    +0.000 C 
ENDBRANCH  10  20
ENDBRANCH   1  10
BRANCH   1  23
ATOM     23  S   UNL     1      -0.559  12.546  22.135  0.00  0.00    +0.000 S 
BRANCH  23  24
ATOM     24  O   UNL     1      -1.706  13.639  21.656  0.00  0.00    +0.000 OA
BRANCH  24  25
ATOM     25  C   UNL     1      -2.973  13.507  22.201  0.00  0.00    +0.000 A 
ATOM     26  C   UNL     1      -3.026  12.777  23.396  0.00  0.00    +0.000 A 
ATOM     27  C   UNL     1      -4.247  12.552  24.044  0.00  0.00    +0.000 A 
ATOM     28  C   UNL     1      -5.425  13.069  23.511  0.00  0.00    +0.000 A 
ATOM     29 CL   UNL     1      -6.924  12.784  24.298  0.00  0.00    +0.000 Cl
ATOM     30  C   UNL     1      -5.390  13.811  22.335  0.00  0.00    +0.000 A 
ATOM     31  C   UNL     1      -4.165  14.035  21.688  0.00  0.00    +0.000 A 
ENDBRANCH  24  25
ENDBRANCH  23  24
ENDBRANCH   1  23
TORSDOF 7
ENDMDL
MODEL 5
REMARK VINA RESULT:      -6.5      3.152      6.552
REMARK  Name = 
REMARK  10 active torsions:
REMARK  status: ('A' for Active; 'I' for Inactive)
REMARK    1  A    between atoms: C_1  and  C_2
REMARK    2  A    between atoms: C_2  and  C_3
REMARK    3  A    between atoms: C_2  and  C_4
REMARK    4  A    between atoms: C_2  and  N_5
REMARK    5  A    between atoms: N_5  and  N_14
REMARK    6  A    between atoms: C_6  and  C_8
REMARK    7  A    between atoms: N_14  and  S_15
REMARK    8  A    between atoms: S_15  and  O_16
REMARK    9  A    between atoms: O_16  and  C_17
REMARK   10  A    between atoms: C_24  and  C_26
REMARK                            x       y       z     vdW  Elec       q    Type
REMARK                         _______ _______ _______ _____ _____    ______ ____
ROOT
ATOM      1  N   UNL     1       0.366  11.625  20.653  0.00  0.00    +0.000 N 
ATOM      2  C   UNL     1      -0.329  12.023  21.823  0.00  0.00    +0.000 C 
ATOM      3  O   UNL     1      -0.454  11.257  22.790  0.00  0.00    +0.000 OA
ENDROOT
BRANCH   2   4
ATOM      4  C   UNL     1      -1.005  13.343  21.982  0.00  0.00    +0.000 A 
ATOM      5  C   UNL     1      -2.398  13.344  21.765  0.00  0.00    +0.000 A 
ATOM      6  C   UNL     1      -3.159  14.501  21.935  0.00  0.00    +0.000 A 
ATOM      7  C   UNL     1      -2.540  15.680  22.330  0.00  0.00    +0.000 A 
ATOM      8  C   UNL     1      -1.166  15.697  22.558  0.00  0.00    +0.000 A 
ATOM      9  C   UNL     1      -0.404  14.534  22.390  0.00  0.00    +0.000 A 
ENDBRANCH   2   4
BRANCH   1  10
ATOM     10  N   UNL     1       0.554  12.476  19.520  0.00  0.00    +0.000 N 
ATOM     11  C   UNL     1      -0.516  12.726  18.618  0.00  0.00    +0.000 C 
ATOM     12  O   UNL     1      -0.491  13.706  17.865  0.00  0.00    +0.000 OA
BRANCH  11  13
ATOM     13  C   UNL     1      -1.676  11.776  18.385  0.00  0.00    +0.000 A 
ATOM     14  C   UNL     1      -1.613  10.540  17.739  0.00  0.00    +0.000 A 
ATOM     15  C   UNL     1      -2.762   9.759  17.541  0.00  0.00    +0.000 A 
ATOM     16  C   UNL     1      -3.997  10.179  18.022  0.00  0.00    +0.000 A 
ATOM     17  C   UNL     1      -4.093  11.400  18.675  0.00  0.00    +0.000 A 
ATOM     18  C   UNL     1      -2.949  12.194  18.842  0.00  0.00    +0.000 A 
ENDBRANCH  11  13
BRANCH  10  20
ATOM     19  C   UNL     1       2.579  13.171  20.872  0.00  0.00    +0.000 C 
ATOM     20  C   UNL     1       1.779  13.379  19.563  0.00  0.00    +0.000 C 
ATOM     21  C   UNL     1       1.370  14.876  19.510  0.00  0.00    +0.000 C 
ATOM     22  C   UNL     1       2.744  13.199  18.359  0.00  0.00    +0.000 C 
ENDBRANCH  10  20
ENDBRANCH   1  10
BRANCH   1  23
ATOM     23  S   UNL     1       0.427   9.897  20.420  0.00  0.00    +0.000 S 
BRANCH  23  24
ATOM     24  O   UNL     1       1.403   9.721  19.095  0.00  0.00    +0.000 OA
BRANCH  24  25
ATOM     25  C   UNL     1       2.031   8.498  18.929  0.00  0.00    +0.000 A 
ATOM     26  C   UNL     1       1.856   7.598  19.988  0.00  0.00    +0.000 A 
ATOM     27  C   UNL     1       2.452   6.331  19.959  0.00  0.00    +0.000 A 
ATOM     28  C   UNL     1       3.218   5.946  18.861  0.00  0.00    +0.000 A 
ATOM     29 CL   UNL     1       3.960   4.398  18.828  0.00  0.00    +0.000 Cl
ATOM     30  C   UNL     1       3.389   6.819  17.792  0.00  0.00    +0.000 A 
ATOM     31  C   UNL     1       2.790   8.088  17.824  0.00  0.00    +0.000 A 
ENDBRANCH  24  25
ENDBRANCH  23  24
ENDBRANCH   1  23
TORSDOF 7
ENDMDL
MODEL 6
REMARK VINA RESULT:      -6.5      3.149      6.482
REMARK  Name = 
REMARK  10 active torsions:
REMARK  status: ('A' for Active; 'I' for Inactive)
REMARK    1  A    between atoms: C_1  and  C_2
REMARK    2  A    between atoms: C_2  and  C_3
REMARK    3  A    between atoms: C_2  and  C_4
REMARK    4  A    between atoms: C_2  and  N_5
REMARK    5  A    between atoms: N_5  and  N_14
REMARK    6  A    between atoms: C_6  and  C_8
REMARK    7  A    between atoms: N_14  and  S_15
REMARK    8  A    between atoms: S_15  and  O_16
REMARK    9  A    between atoms: O_16  and  C_17
REMARK   10  A    between atoms: C_24  and  C_26
REMARK                            x       y       z     vdW  Elec       q    Type
REMARK                         _______ _______ _______ _____ _____    ______ ____
ROOT
ATOM      1  N   UNL     1       0.085  11.597  20.715  0.00  0.00    +0.000 N 
ATOM      2  C   UNL     1      -0.666  11.969  21.860  0.00  0.00    +0.000 C 
ATOM      3  O   UNL     1      -0.860  11.172  22.789  0.00  0.00    +0.000 OA
ENDROOT
BRANCH   2   4
ATOM      4  C   UNL     1      -1.321  13.298  22.031  0.00  0.00    +0.000 A 
ATOM      5  C   UNL     1      -0.605  14.234  22.806  0.00  0.00    +0.000 A 
ATOM      6  C   UNL     1      -1.080  15.532  22.999  0.00  0.00    +0.000 A 
ATOM      7  C   UNL     1      -2.280  15.919  22.415  0.00  0.00    +0.000 A 
ATOM      8  C   UNL     1      -2.996  15.012  21.639  0.00  0.00    +0.000 A 
ATOM      9  C   UNL     1      -2.517  13.710  21.444  0.00  0.00    +0.000 A 
ENDBRANCH   2   4
BRANCH   1  10
ATOM     10  N   UNL     1       0.353  12.485  19.627  0.00  0.00    +0.000 N 
ATOM     11  C   UNL     1      -0.645  12.754  18.651  0.00  0.00    +0.000 C 
ATOM     12  O   UNL     1      -0.570  13.756  17.931  0.00  0.00    +0.000 OA
BRANCH  11  13
ATOM     13  C   UNL     1      -1.773  11.803  18.298  0.00  0.00    +0.000 A 
ATOM     14  C   UNL     1      -3.096  11.892  18.736  0.00  0.00    +0.000 A 
ATOM     15  C   UNL     1      -4.051  10.928  18.379  0.00  0.00    +0.000 A 
ATOM     16  C   UNL     1      -3.714   9.873  17.539  0.00  0.00    +0.000 A 
ATOM     17  C   UNL     1      -2.410   9.759  17.079  0.00  0.00    +0.000 A 
ATOM     18  C   UNL     1      -1.449  10.704  17.465  0.00  0.00    +0.000 A 
ENDBRANCH  11  13
BRANCH  10  20
ATOM     19  C   UNL     1       1.138  14.884  19.828  0.00  0.00    +0.000 C 
ATOM     20  C   UNL     1       1.561  13.395  19.794  0.00  0.00    +0.000 C 
ATOM     21  C   UNL     1       2.553  13.228  18.611  0.00  0.00    +0.000 C 
ATOM     22  C   UNL     1       2.414  13.094  21.058  0.00  0.00    +0.000 C 
ENDBRANCH  10  20
ENDBRANCH   1  10
BRANCH   1  23
ATOM     23  S   UNL     1       0.122   9.878  20.421  0.00  0.00    +0.000 S 
BRANCH  23  24
ATOM     24  O   UNL     1       1.353   9.700  19.329  0.00  0.00    +0.000 OA
BRANCH  24  25
ATOM     25  C   UNL     1       1.876   8.428  19.166  0.00  0.00    +0.000 A 
ATOM     26  C   UNL     1       1.723   7.583  20.273  0.00  0.00    +0.000 A 
ATOM     27  C   UNL     1       2.223   6.275  20.251  0.00  0.00    +0.000 A 
ATOM     28  C   UNL     1       2.867   5.794  19.114  0.00  0.00    +0.000 A 
ATOM     29 CL   UNL     1       3.491   4.195  19.088  0.00  0.00    +0.000 Cl
ATOM     30  C   UNL     1       3.013   6.613  17.998  0.00  0.00    +0.000 A 
ATOM     31  C   UNL     1       2.511   7.923  18.024  0.00  0.00    +0.000 A 
ENDBRANCH  24  25
ENDBRANCH  23  24
ENDBRANCH   1  23
TORSDOF 7
ENDMDL
MODEL 7
REMARK VINA RESULT:      -6.4      3.246      6.421
REMARK  Name = 
REMARK  10 active torsions:
REMARK  status: ('A' for Active; 'I' for Inactive)
REMARK    1  A    between atoms: C_1  and  C_2
REMARK    2  A    between atoms: C_2  and  C_3
REMARK    3  A    between atoms: C_2  and  C_4
REMARK    4  A    between atoms: C_2  and  N_5
REMARK    5  A    between atoms: N_5  and  N_14
REMARK    6  A    between atoms: C_6  and  C_8
REMARK    7  A    between atoms: N_14  and  S_15
REMARK    8  A    between atoms: S_15  and  O_16
REMARK    9  A    between atoms: O_16  and  C_17
REMARK   10  A    between atoms: C_24  and  C_26
REMARK                            x       y       z     vdW  Elec       q    Type
REMARK                         _______ _______ _______ _____ _____    ______ ____
ROOT
ATOM      1  N   UNL     1       0.126  12.385  20.202  0.00  0.00    +0.000 N 
ATOM      2  C   UNL     1       1.018  13.106  19.369  0.00  0.00    +0.000 C 
ATOM      3  O   UNL     1       2.061  12.589  18.941  0.00  0.00    +0.000 OA
ENDROOT
BRANCH   2   4
ATOM      4  C   UNL     1       0.824  14.533  18.977  0.00  0.00    +0.000 A 
ATOM      5  C   UNL     1       2.003  15.299  18.868  0.00  0.00    +0.000 A 
ATOM      6  C   UNL     1       1.966  16.632  18.457  0.00  0.00    +0.000 A 
ATOM      7  C   UNL     1       0.749  17.223  18.144  0.00  0.00    +0.000 A 
ATOM      8  C   UNL     1      -0.425  16.479  18.237  0.00  0.00    +0.000 A 
ATOM      9  C   UNL     1      -0.387  15.140  18.647  0.00  0.00    +0.000 A 
ENDBRANCH   2   4
BRANCH   1  10
ATOM     10  N   UNL     1      -1.097  12.929  20.704  0.00  0.00    +0.000 N 
ATOM     11  C   UNL     1      -2.349  12.416  20.269  0.00  0.00    +0.000 C 
ATOM     12  O   UNL     1      -3.375  12.610  20.930  0.00  0.00    +0.000 OA
BRANCH  11  13
ATOM     13  C   UNL     1      -2.576  11.740  18.930  0.00  0.00    +0.000 A 
ATOM     14  C   UNL     1      -1.644  10.980  18.220  0.00  0.00    +0.000 A 
ATOM     15  C   UNL     1      -1.951  10.433  16.965  0.00  0.00    +0.000 A 
ATOM     16  C   UNL     1      -3.213  10.600  16.407  0.00  0.00    +0.000 A 
ATOM     17  C   UNL     1      -4.166  11.344  17.090  0.00  0.00    +0.000 A 
ATOM     18  C   UNL     1      -3.846  11.918  18.329  0.00  0.00    +0.000 A 
ENDBRANCH  11  13
BRANCH  10  20
ATOM     19  C   UNL     1      -1.352  12.931  23.223  0.00  0.00    +0.000 C 
ATOM     20  C   UNL     1      -0.982  13.764  21.972  0.00  0.00    +0.000 C 
ATOM     21  C   UNL     1      -1.946  14.980  21.928  0.00  0.00    +0.000 C 
ATOM     22  C   UNL     1       0.422  14.392  22.194  0.00  0.00    +0.000 C 
ENDBRANCH  10  20
ENDBRANCH   1  10
BRANCH   1  23
ATOM     23  S   UNL     1       0.876  11.071  21.071  0.00  0.00    +0.000 S 
BRANCH  23  24
ATOM     24  O   UNL     1       0.242   9.721  20.351  0.00  0.00    +0.000 OA
BRANCH  24  25
ATOM     25  C   UNL     1       1.133   8.843  19.758  0.00  0.00    +0.000 A 
ATOM     26  C   UNL     1       1.534   9.195  18.463  0.00  0.00    +0.000 A 
ATOM     27  C   UNL     1       2.418   8.385  17.740  0.00  0.00    +0.000 A 
ATOM     28  C   UNL     1       2.923   7.220  18.313  0.00  0.00    +0.000 A 
ATOM     29 CL   UNL     1       3.997   6.218  17.425  0.00  0.00    +0.000 Cl
ATOM     30  C   UNL     1       2.550   6.862  19.605  0.00  0.00    +0.000 A 
ATOM     31  C   UNL     1       1.664   7.676  20.326  0.00  0.00    +0.000 A 
ENDBRANCH  24  25
ENDBRANCH  23  24
ENDBRANCH   1  23
TORSDOF 7
ENDMDL
MODEL 8
REMARK VINA RESULT:      -6.4      3.252      6.526
REMARK  Name = 
REMARK  10 active torsions:
REMARK  status: ('A' for Active; 'I' for Inactive)
REMARK    1  A    between atoms: C_1  and  C_2
REMARK    2  A    between atoms: C_2  and  C_3
REMARK    3  A    between atoms: C_2  and  C_4
REMARK    4  A    between atoms: C_2  and  N_5
REMARK    5  A    between atoms: N_5  and  N_14
REMARK    6  A    between atoms: C_6  and  C_8
REMARK    7  A    between atoms: N_14  and  S_15
REMARK    8  A    between atoms: S_15  and  O_16
REMARK    9  A    between atoms: O_16  and  C_17
REMARK   10  A    between atoms: C_24  and  C_26
REMARK                            x       y       z     vdW  Elec       q    Type
REMARK                         _______ _______ _______ _____ _____    ______ ____
ROOT
ATOM      1  N   UNL     1       0.163  11.570  20.648  0.00  0.00    +0.000 N 
ATOM      2  C   UNL     1      -0.591  11.965  21.783  0.00  0.00    +0.000 C 
ATOM      3  O   UNL     1      -0.771  11.193  22.736  0.00  0.00    +0.000 OA
ENDROOT
BRANCH   2   4
ATOM      4  C   UNL     1      -1.266  13.289  21.915  0.00  0.00    +0.000 A 
ATOM      5  C   UNL     1      -0.585  14.244  22.698  0.00  0.00    +0.000 A 
ATOM      6  C   UNL     1      -1.079  15.538  22.858  0.00  0.00    +0.000 A 
ATOM      7  C   UNL     1      -2.265  15.904  22.233  0.00  0.00    +0.000 A 
ATOM      8  C   UNL     1      -2.947  14.978  21.449  0.00  0.00    +0.000 A 
ATOM      9  C   UNL     1      -2.448  13.679  21.287  0.00  0.00    +0.000 A 
ENDBRANCH   2   4
BRANCH   1  10
ATOM     10  N   UNL     1       0.416  12.428  19.533  0.00  0.00    +0.000 N 
ATOM     11  C   UNL     1      -0.590  12.658  18.555  0.00  0.00    +0.000 C 
ATOM     12  O   UNL     1      -0.530  13.640  17.806  0.00  0.00    +0.000 OA
BRANCH  11  13
ATOM     13  C   UNL     1      -1.710  11.685  18.236  0.00  0.00    +0.000 A 
ATOM     14  C   UNL     1      -1.580  10.472  17.556  0.00  0.00    +0.000 A 
ATOM     15  C   UNL     1      -2.696   9.668  17.278  0.00  0.00    +0.000 A 
ATOM     16  C   UNL     1      -3.964  10.039  17.712  0.00  0.00    +0.000 A 
ATOM     17  C   UNL     1      -4.126  11.234  18.397  0.00  0.00    +0.000 A 
ATOM     18  C   UNL     1      -3.014  12.053  18.644  0.00  0.00    +0.000 A 
ENDBRANCH  11  13
BRANCH  10  20
ATOM     19  C   UNL     1       2.396  13.073  20.973  0.00  0.00    +0.000 C 
ATOM     20  C   UNL     1       1.615  13.356  19.667  0.00  0.00    +0.000 C 
ATOM     21  C   UNL     1       1.168  14.843  19.713  0.00  0.00    +0.000 C 
ATOM     22  C   UNL     1       2.608  13.288  18.473  0.00  0.00    +0.000 C 
ENDBRANCH  10  20
ENDBRANCH   1  10
BRANCH   1  23
ATOM     23  S   UNL     1       0.226   9.844  20.406  0.00  0.00    +0.000 S 
BRANCH  23  24
ATOM     24  O   UNL     1       1.357   9.663  19.212  0.00  0.00    +0.000 OA
BRANCH  24  25
ATOM     25  C   UNL     1       1.968   8.425  19.101  0.00  0.00    +0.000 A 
ATOM     26  C   UNL     1       2.686   8.226  17.915  0.00  0.00    +0.000 A 
ATOM     27  C   UNL     1       3.337   7.012  17.665  0.00  0.00    +0.000 A 
ATOM     28  C   UNL     1       3.290   5.989  18.608  0.00  0.00    +0.000 A 
ATOM     29 CL   UNL     1       4.078   4.495  18.299  0.00  0.00    +0.000 Cl
ATOM     30  C   UNL     1       2.598   6.173  19.801  0.00  0.00    +0.000 A 
ATOM     31  C   UNL     1       1.946   7.391  20.048  0.00  0.00    +0.000 A 
ENDBRANCH  24  25
ENDBRANCH  23  24
ENDBRANCH   1  23
TORSDOF 7
ENDMDL
MODEL 9
REMARK VINA RESULT:      -6.4      0.545      1.258
REMARK  Name = 
REMARK  10 active torsions:
REMARK  status: ('A' for Active; 'I' for Inactive)
REMARK    1  A    between atoms: C_1  and  C_2
REMARK    2  A    between atoms: C_2  and  C_3
REMARK    3  A    between atoms: C_2  and  C_4
REMARK    4  A    between atoms: C_2  and  N_5
REMARK    5  A    between atoms: N_5  and  N_14
REMARK    6  A    between atoms: C_6  and  C_8
REMARK    7  A    between atoms: N_14  and  S_15
REMARK    8  A    between atoms: S_15  and  O_16
REMARK    9  A    between atoms: O_16  and  C_17
REMARK   10  A    between atoms: C_24  and  C_26
REMARK                            x       y       z     vdW  Elec       q    Type
REMARK                         _______ _______ _______ _____ _____    ______ ____
ROOT
ATOM      1  N   UNL     1      -0.287  11.617  20.716  0.00  0.00    +0.000 N 
ATOM      2  C   UNL     1       0.039  10.252  20.921  0.00  0.00    +0.000 C 
ATOM      3  O   UNL     1      -0.322   9.651  21.942  0.00  0.00    +0.000 OA
ENDROOT
BRANCH   2   4
ATOM      4  C   UNL     1       0.869   9.443  19.981  0.00  0.00    +0.000 A 
ATOM      5  C   UNL     1       1.464   8.290  20.532  0.00  0.00    +0.000 A 
ATOM      6  C   UNL     1       2.219   7.417  19.749  0.00  0.00    +0.000 A 
ATOM      7  C   UNL     1       2.391   7.680  18.396  0.00  0.00    +0.000 A 
ATOM      8  C   UNL     1       1.803   8.809  17.831  0.00  0.00    +0.000 A 
ATOM      9  C   UNL     1       1.043   9.683  18.618  0.00  0.00    +0.000 A 
ENDBRANCH   2   4
BRANCH   1  10
ATOM     10  N   UNL     1       0.089  12.350  19.546  0.00  0.00    +0.000 N 
ATOM     11  C   UNL     1      -0.846  12.568  18.498  0.00  0.00    +0.000 C 
ATOM     12  O   UNL     1      -0.670  13.471  17.673  0.00  0.00    +0.000 OA
BRANCH  11  13
ATOM     13  C   UNL     1      -2.025  11.659  18.202  0.00  0.00    +0.000 A 
ATOM     14  C   UNL     1      -1.984  10.461  17.485  0.00  0.00    +0.000 A 
ATOM     15  C   UNL     1      -3.148   9.720  17.235  0.00  0.00    +0.000 A 
ATOM     16  C   UNL     1      -4.377  10.138  17.732  0.00  0.00    +0.000 A 
ATOM     17  C   UNL     1      -4.451  11.320  18.455  0.00  0.00    +0.000 A 
ATOM     18  C   UNL     1      -3.291  12.078  18.675  0.00  0.00    +0.000 A 
ENDBRANCH  11  13
BRANCH  10  20
ATOM     19  C   UNL     1       2.221  13.077  18.391  0.00  0.00    +0.000 C 
ATOM     20  C   UNL     1       1.352  13.191  19.667  0.00  0.00    +0.000 C 
ATOM     21  C   UNL     1       2.226  12.717  20.860  0.00  0.00    +0.000 C 
ATOM     22  C   UNL     1       1.090  14.695  19.954  0.00  0.00    +0.000 C 
ENDBRANCH  10  20
ENDBRANCH   1  10
BRANCH   1  23
ATOM     23  S   UNL     1      -0.606  12.497  22.188  0.00  0.00    +0.000 S 
BRANCH  23  24
ATOM     24  O   UNL     1      -1.841  11.645  22.887  0.00  0.00    +0.000 OA
BRANCH  24  25
ATOM     25  C   UNL     1      -3.084  12.253  22.930  0.00  0.00    +0.000 A 
ATOM     26  C   UNL     1      -3.714  12.216  24.181  0.00  0.00    +0.000 A 
ATOM     27  C   UNL     1      -4.984  12.777  24.361  0.00  0.00    +0.000 A 
ATOM     28  C   UNL     1      -5.631  13.396  23.293  0.00  0.00    +0.000 A 
ATOM     29 CL   UNL     1      -7.193  14.074  23.508  0.00  0.00    +0.000 Cl
ATOM     30  C   UNL     1      -5.014  13.458  22.048  0.00  0.00    +0.000 A 
ATOM     31  C   UNL     1      -3.741  12.894  21.871  0.00  0.00    +0.000 A 
ENDBRANCH  24  25
ENDBRANCH  23  24
ENDBRANCH   1  23
TORSDOF 7
ENDMDL
