MODEL 1
REMARK VINA RESULT:      -7.9      0.000      0.000
REMARK  Name = 
REMARK  4 active torsions:
REMARK  status: ('A' for Active; 'I' for Inactive)
REMARK    1  A    between atoms: C_1  and  C_2
REMARK    2  A    between atoms: C_6  and  C_8
REMARK    3  A    between atoms: C_8  and  N_9
REMARK    4  A    between atoms: C_11  and  C_12
REMARK                            x       y       z     vdW  Elec       q    Type
REMARK                         _______ _______ _______ _____ _____    ______ ____
ROOT
ATOM      1  C   UNL     1       4.696   3.692  19.297  0.00  0.00    +0.000 C 
ENDROOT
BRANCH   1   7
ATOM      2  C   UNL     1       7.344   4.800  12.440  0.00  0.00    +0.000 C 
ATOM      3  C   UNL     1       6.972   4.673  13.859  0.00  0.00    +0.000 A 
ATOM      4  C   UNL     1       5.891   4.171  14.543  0.00  0.00    +0.000 A 
ATOM      5  C   UNL     1       6.204   4.372  15.909  0.00  0.00    +0.000 A 
ATOM      6  N   UNL     1       5.384   4.001  16.960  0.00  0.00    +0.000 N 
ATOM      7  C   UNL     1       5.684   4.233  18.288  0.00  0.00    +0.000 C 
ATOM      8  O   UNL     1       6.707   4.773  18.715  0.00  0.00    +0.000 OA
ATOM      9  N   UNL     1       7.397   4.963  16.029  0.00  0.00    +0.000 NA
ATOM     10  O   UNL     1       7.876   5.147  14.752  0.00  0.00    +0.000 OA
ATOM     11  H   UNL     1       4.506   3.550  16.715  0.00  0.00    +0.000 HD
ENDBRANCH   1   7
BRANCH   1  12
ATOM     12  N   UNL     1       3.606   4.586  19.612  0.00  0.00    +0.000 N 
ATOM     13  C   UNL     1       3.420   5.855  19.159  0.00  0.00    +0.000 A 
ATOM     14  C   UNL     1       2.352   6.317  19.896  0.00  0.00    +0.000 A 
ATOM     15  N   UNL     1       1.924   5.322  20.738  0.00  0.00    +0.000 NA
ATOM     16  N   UNL     1       2.694   4.258  20.549  0.00  0.00    +0.000 NA
BRANCH  14  17
ATOM     17  C   UNL     1       1.821   7.662  19.849  0.00  0.00    +0.000 A 
ATOM     18  C   UNL     1       1.894   8.422  18.678  0.00  0.00    +0.000 A 
ATOM     19  C   UNL     1       1.438   9.728  18.709  0.00  0.00    +0.000 A 
ATOM     20  N   UNL     1       0.922  10.314  19.808  0.00  0.00    +0.000 NA
ATOM     21  C   UNL     1       0.845   9.557  20.924  0.00  0.00    +0.000 A 
ATOM     22  C   UNL     1       1.267   8.240  20.992  0.00  0.00    +0.000 A 
ENDBRANCH  14  17
ENDBRANCH   1  12
TORSDOF 3
ENDMDL
MODEL 2
REMARK VINA RESULT:      -7.9      0.429      1.112
REMARK  Name = 
REMARK  4 active torsions:
REMARK  status: ('A' for Active; 'I' for Inactive)
REMARK    1  A    between atoms: C_1  and  C_2
REMARK    2  A    between atoms: C_6  and  C_8
REMARK    3  A    between atoms: C_8  and  N_9
REMARK    4  A    between atoms: C_11  and  C_12
REMARK                            x       y       z     vdW  Elec       q    Type
REMARK                         _______ _______ _______ _____ _____    ______ ____
ROOT
ATOM      1  C   UNL     1       5.147   4.011  19.091  0.00  0.00    +0.000 C 
ENDROOT
BRANCH   1   7
ATOM      2  C   UNL     1       7.353   4.560  12.014  0.00  0.00    +0.000 C 
ATOM      3  C   UNL     1       7.051   4.576  13.456  0.00  0.00    +0.000 A 
ATOM      4  C   UNL     1       6.097   4.000  14.259  0.00  0.00    +0.000 A 
ATOM      5  C   UNL     1       6.410   4.446  15.566  0.00  0.00    +0.000 A 
ATOM      6  N   UNL     1       5.700   4.095  16.701  0.00  0.00    +0.000 N 
ATOM      7  C   UNL     1       5.993   4.562  17.967  0.00  0.00    +0.000 C 
ATOM      8  O   UNL     1       6.917   5.325  18.260  0.00  0.00    +0.000 OA
ATOM      9  N   UNL     1       7.483   5.242  15.540  0.00  0.00    +0.000 NA
ATOM     10  O   UNL     1       7.884   5.321  14.226  0.00  0.00    +0.000 OA
ATOM     11  H   UNL     1       4.909   3.469  16.567  0.00  0.00    +0.000 HD
ENDBRANCH   1   7
BRANCH   1  12
ATOM     12  N   UNL     1       3.972   4.793  19.401  0.00  0.00    +0.000 N 
ATOM     13  C   UNL     1       3.712   6.076  19.031  0.00  0.00    +0.000 A 
ATOM     14  C   UNL     1       2.570   6.397  19.731  0.00  0.00    +0.000 A 
ATOM     15  N   UNL     1       2.174   5.311  20.469  0.00  0.00    +0.000 NA
ATOM     16  N   UNL     1       3.037   4.325  20.252  0.00  0.00    +0.000 NA
BRANCH  14  17
ATOM     17  C   UNL     1       1.937   7.697  19.749  0.00  0.00    +0.000 A 
ATOM     18  C   UNL     1       1.340   8.190  20.913  0.00  0.00    +0.000 A 
ATOM     19  C   UNL     1       0.684   9.407  20.857  0.00  0.00    +0.000 A 
ATOM     20  N   UNL     1       0.588  10.152  19.737  0.00  0.00    +0.000 NA
ATOM     21  C   UNL     1       1.186   9.667  18.628  0.00  0.00    +0.000 A 
ATOM     22  C   UNL     1       1.872   8.464  18.585  0.00  0.00    +0.000 A 
ENDBRANCH  14  17
ENDBRANCH   1  12
TORSDOF 3
ENDMDL
MODEL 3
REMARK VINA RESULT:      -7.7      3.458      8.020
REMARK  Name = 
REMARK  4 active torsions:
REMARK  status: ('A' for Active; 'I' for Inactive)
REMARK    1  A    between atoms: C_1  and  C_2
REMARK    2  A    between atoms: C_6  and  C_8
REMARK    3  A    between atoms: C_8  and  N_9
REMARK    4  A    between atoms: C_11  and  C_12
REMARK                            x       y       z     vdW  Elec       q    Type
REMARK                         _______ _______ _______ _____ _____    ______ ____
ROOT
ATOM      1  C   UNL     1       7.246   4.799  17.336  0.00  0.00    +0.000 C 
ENDROOT
BRANCH   1   7
ATOM      2  C   UNL     1       1.583   2.548  21.593  0.00  0.00    +0.000 C 
ATOM      3  C   UNL     1       2.638   3.169  20.774  0.00  0.00    +0.000 A 
ATOM      4  C   UNL     1       3.765   2.718  20.130  0.00  0.00    +0.000 A 
ATOM      5  C   UNL     1       4.319   3.871  19.523  0.00  0.00    +0.000 A 
ATOM      6  N   UNL     1       5.471   3.873  18.757  0.00  0.00    +0.000 N 
ATOM      7  C   UNL     1       6.022   5.008  18.199  0.00  0.00    +0.000 C 
ATOM      8  O   UNL     1       5.567   6.151  18.286  0.00  0.00    +0.000 OA
ATOM      9  N   UNL     1       3.569   4.943  19.795  0.00  0.00    +0.000 NA
ATOM     10  O   UNL     1       2.521   4.505  20.571  0.00  0.00    +0.000 OA
ATOM     11  H   UNL     1       5.932   2.974  18.627  0.00  0.00    +0.000 HD
ENDBRANCH   1   7
BRANCH   1  12
ATOM     12  N   UNL     1       6.987   4.787  15.915  0.00  0.00    +0.000 N 
ATOM     13  C   UNL     1       6.192   3.925  15.226  0.00  0.00    +0.000 A 
ATOM     14  C   UNL     1       6.439   4.230  13.905  0.00  0.00    +0.000 A 
ATOM     15  N   UNL     1       7.340   5.262  13.843  0.00  0.00    +0.000 NA
ATOM     16  N   UNL     1       7.664   5.605  15.084  0.00  0.00    +0.000 NA
BRANCH  14  17
ATOM     17  C   UNL     1       5.897   3.520  12.767  0.00  0.00    +0.000 A 
ATOM     18  C   UNL     1       4.596   3.767  12.319  0.00  0.00    +0.000 A 
ATOM     19  C   UNL     1       4.101   3.009  11.273  0.00  0.00    +0.000 A 
ATOM     20  N   UNL     1       4.806   2.040  10.654  0.00  0.00    +0.000 NA
ATOM     21  C   UNL     1       6.066   1.829  11.091  0.00  0.00    +0.000 A 
ATOM     22  C   UNL     1       6.654   2.539  12.125  0.00  0.00    +0.000 A 
ENDBRANCH  14  17
ENDBRANCH   1  12
TORSDOF 3
ENDMDL
MODEL 4
REMARK VINA RESULT:      -7.5      2.857      3.927
REMARK  Name = 
REMARK  4 active torsions:
REMARK  status: ('A' for Active; 'I' for Inactive)
REMARK    1  A    between atoms: C_1  and  C_2
REMARK    2  A    between atoms: C_6  and  C_8
REMARK    3  A    between atoms: C_8  and  N_9
REMARK    4  A    between atoms: C_11  and  C_12
REMARK                            x       y       z     vdW  Elec       q    Type
REMARK                         _______ _______ _______ _____ _____    ______ ____
ROOT
ATOM      1  C   UNL     1       6.469   6.588  18.080  0.00  0.00    +0.000 C 
ENDROOT
BRANCH   1   7
ATOM      2  C   UNL     1       6.274   2.962  11.595  0.00  0.00    +0.000 C 
ATOM      3  C   UNL     1       6.460   3.775  12.809  0.00  0.00    +0.000 A 
ATOM      4  C   UNL     1       5.790   3.916  14.000  0.00  0.00    +0.000 A 
ATOM      5  C   UNL     1       6.536   4.880  14.721  0.00  0.00    +0.000 A 
ATOM      6  N   UNL     1       6.217   5.322  15.993  0.00  0.00    +0.000 N 
ATOM      7  C   UNL     1       6.931   6.287  16.673  0.00  0.00    +0.000 C 
ATOM      8  O   UNL     1       7.940   6.865  16.261  0.00  0.00    +0.000 OA
ATOM      9  N   UNL     1       7.583   5.290  13.999  0.00  0.00    +0.000 NA
ATOM     10  O   UNL     1       7.537   4.599  12.810  0.00  0.00    +0.000 OA
ATOM     11  H   UNL     1       5.392   4.910  16.424  0.00  0.00    +0.000 HD
ENDBRANCH   1   7
BRANCH   1  12
ATOM     12  N   UNL     1       5.087   6.262  18.344  0.00  0.00    +0.000 N 
ATOM     13  C   UNL     1       4.608   5.216  19.070  0.00  0.00    +0.000 A 
ATOM     14  C   UNL     1       3.248   5.259  18.856  0.00  0.00    +0.000 A 
ATOM     15  N   UNL     1       2.955   6.324  18.042  0.00  0.00    +0.000 NA
ATOM     16  N   UNL     1       4.091   6.941  17.741  0.00  0.00    +0.000 NA
BRANCH  14  17
ATOM     17  C   UNL     1       2.292   4.289  19.343  0.00  0.00    +0.000 A 
ATOM     18  C   UNL     1       2.142   4.055  20.713  0.00  0.00    +0.000 A 
ATOM     19  C   UNL     1       1.267   3.064  21.122  0.00  0.00    +0.000 A 
ATOM     20  N   UNL     1       0.544   2.307  20.272  0.00  0.00    +0.000 NA
ATOM     21  C   UNL     1       0.691   2.561  18.954  0.00  0.00    +0.000 A 
ATOM     22  C   UNL     1       1.535   3.535  18.445  0.00  0.00    +0.000 A 
ENDBRANCH  14  17
ENDBRANCH   1  12
TORSDOF 3
ENDMDL
MODEL 5
REMARK VINA RESULT:      -7.3      4.503      5.737
REMARK  Name = 
REMARK  4 active torsions:
REMARK  status: ('A' for Active; 'I' for Inactive)
REMARK    1  A    between atoms: C_1  and  C_2
REMARK    2  A    between atoms: C_6  and  C_8
REMARK    3  A    between atoms: C_8  and  N_9
REMARK    4  A    between atoms: C_11  and  C_12
REMARK                            x       y       z     vdW  Elec       q    Type
REMARK                         _______ _______ _______ _____ _____    ______ ____
ROOT
ATOM      1  C   UNL     1       6.882   6.391  17.134  0.00  0.00    +0.000 C 
ENDROOT
BRANCH   1   7
ATOM      2  C   UNL     1       9.782  13.051  18.711  0.00  0.00    +0.000 C 
ATOM      3  C   UNL     1       9.302  11.668  18.549  0.00  0.00    +0.000 A 
ATOM      4  C   UNL     1       8.422  11.034  17.706  0.00  0.00    +0.000 A 
ATOM      5  C   UNL     1       8.445   9.678  18.115  0.00  0.00    +0.000 A 
ATOM      6  N   UNL     1       7.702   8.672  17.523  0.00  0.00    +0.000 N 
ATOM      7  C   UNL     1       7.706   7.360  17.951  0.00  0.00    +0.000 C 
ATOM      8  O   UNL     1       8.368   6.906  18.887  0.00  0.00    +0.000 OA
ATOM      9  N   UNL     1       9.284   9.518  19.142  0.00  0.00    +0.000 NA
ATOM     10  O   UNL     1       9.820  10.757  19.411  0.00  0.00    +0.000 OA
ATOM     11  H   UNL     1       7.112   8.943  16.739  0.00  0.00    +0.000 HD
ENDBRANCH   1   7
BRANCH   1  12
ATOM     12  N   UNL     1       5.523   6.218  17.593  0.00  0.00    +0.000 N 
ATOM     13  C   UNL     1       5.003   5.149  18.254  0.00  0.00    +0.000 A 
ATOM     14  C   UNL     1       3.650   5.406  18.288  0.00  0.00    +0.000 A 
ATOM     15  N   UNL     1       3.407   6.610  17.678  0.00  0.00    +0.000 NA
ATOM     16  N   UNL     1       4.566   7.107  17.263  0.00  0.00    +0.000 NA
BRANCH  14  17
ATOM     17  C   UNL     1       2.641   4.511  18.810  0.00  0.00    +0.000 A 
ATOM     18  C   UNL     1       2.142   3.461  18.033  0.00  0.00    +0.000 A 
ATOM     19  C   UNL     1       1.124   2.681  18.552  0.00  0.00    +0.000 A 
ATOM     20  N   UNL     1       0.584   2.873  19.773  0.00  0.00    +0.000 NA
ATOM     21  C   UNL     1       1.092   3.881  20.514  0.00  0.00    +0.000 A 
ATOM     22  C   UNL     1       2.114   4.713  20.086  0.00  0.00    +0.000 A 
ENDBRANCH  14  17
ENDBRANCH   1  12
TORSDOF 3
ENDMDL
MODEL 6
REMARK VINA RESULT:      -7.3      3.320      3.932
REMARK  Name = 
REMARK  4 active torsions:
REMARK  status: ('A' for Active; 'I' for Inactive)
REMARK    1  A    between atoms: C_1  and  C_2
REMARK    2  A    between atoms: C_6  and  C_8
REMARK    3  A    between atoms: C_8  and  N_9
REMARK    4  A    between atoms: C_11  and  C_12
REMARK                            x       y       z     vdW  Elec       q    Type
REMARK                         _______ _______ _______ _____ _____    ______ ____
ROOT
ATOM      1  C   UNL     1       6.530   6.386  18.107  0.00  0.00    +0.000 C 
ENDROOT
BRANCH   1   7
ATOM      2  C   UNL     1       6.824   3.191  11.401  0.00  0.00    +0.000 C 
ATOM      3  C   UNL     1       6.895   3.945  12.665  0.00  0.00    +0.000 A 
ATOM      4  C   UNL     1       6.229   3.901  13.865  0.00  0.00    +0.000 A 
ATOM      5  C   UNL     1       6.821   4.925  14.643  0.00  0.00    +0.000 A 
ATOM      6  N   UNL     1       6.454   5.229  15.943  0.00  0.00    +0.000 N 
ATOM      7  C   UNL     1       7.014   6.252  16.681  0.00  0.00    +0.000 C 
ATOM      8  O   UNL     1       7.911   7.010  16.303  0.00  0.00    +0.000 OA
ATOM      9  N   UNL     1       7.778   5.543  13.945  0.00  0.00    +0.000 NA
ATOM     10  O   UNL     1       7.826   4.930  12.714  0.00  0.00    +0.000 OA
ATOM     11  H   UNL     1       5.712   4.663  16.350  0.00  0.00    +0.000 HD
ENDBRANCH   1   7
BRANCH   1  12
ATOM     12  N   UNL     1       5.743   5.273  18.583  0.00  0.00    +0.000 N 
ATOM     13  C   UNL     1       4.386   5.183  18.638  0.00  0.00    +0.000 A 
ATOM     14  C   UNL     1       4.159   4.016  19.334  0.00  0.00    +0.000 A 
ATOM     15  N   UNL     1       5.363   3.440  19.650  0.00  0.00    +0.000 NA
ATOM     16  N   UNL     1       6.331   4.214  19.175  0.00  0.00    +0.000 NA
BRANCH  14  17
ATOM     17  C   UNL     1       2.862   3.521  19.738  0.00  0.00    +0.000 A 
ATOM     18  C   UNL     1       1.839   3.339  18.802  0.00  0.00    +0.000 A 
ATOM     19  C   UNL     1       0.595   2.934  19.253  0.00  0.00    +0.000 A 
ATOM     20  N   UNL     1       0.310   2.700  20.550  0.00  0.00    +0.000 NA
ATOM     21  C   UNL     1       1.316   2.864  21.435  0.00  0.00    +0.000 A 
ATOM     22  C   UNL     1       2.596   3.260  21.083  0.00  0.00    +0.000 A 
ENDBRANCH  14  17
ENDBRANCH   1  12
TORSDOF 3
ENDMDL
MODEL 7
REMARK VINA RESULT:      -7.2      5.139      6.772
REMARK  Name = 
REMARK  4 active torsions:
REMARK  status: ('A' for Active; 'I' for Inactive)
REMARK    1  A    between atoms: C_1  and  C_2
REMARK    2  A    between atoms: C_6  and  C_8
REMARK    3  A    between atoms: C_8  and  N_9
REMARK    4  A    between atoms: C_11  and  C_12
REMARK                            x       y       z     vdW  Elec       q    Type
REMARK                         _______ _______ _______ _____ _____    ______ ____
ROOT
ATOM      1  C   UNL     1       8.123   6.926  18.514  0.00  0.00    +0.000 C 
ENDROOT
BRANCH   1   7
ATOM      2  C   UNL     1      10.546  13.835  19.802  0.00  0.00    +0.000 C 
ATOM      3  C   UNL     1       9.980  12.537  19.394  0.00  0.00    +0.000 A 
ATOM      4  C   UNL     1      10.079  11.244  19.849  0.00  0.00    +0.000 A 
ATOM      5  C   UNL     1       9.256  10.492  18.976  0.00  0.00    +0.000 A 
ATOM      6  N   UNL     1       9.055   9.126  19.077  0.00  0.00    +0.000 N 
ATOM      7  C   UNL     1       8.278   8.397  18.200  0.00  0.00    +0.000 C 
ATOM      8  O   UNL     1       7.653   8.850  17.238  0.00  0.00    +0.000 OA
ATOM      9  N   UNL     1       8.706  11.289  18.056  0.00  0.00    +0.000 NA
ATOM     10  O   UNL     1       9.155  12.563  18.318  0.00  0.00    +0.000 OA
ATOM     11  H   UNL     1       9.534   8.651  19.839  0.00  0.00    +0.000 HD
ENDBRANCH   1   7
BRANCH   1  12
ATOM     12  N   UNL     1       6.997   6.288  17.872  0.00  0.00    +0.000 N 
ATOM     13  C   UNL     1       5.838   5.876  18.453  0.00  0.00    +0.000 A 
ATOM     14  C   UNL     1       5.197   5.177  17.454  0.00  0.00    +0.000 A 
ATOM     15  N   UNL     1       5.965   5.210  16.319  0.00  0.00    +0.000 NA
ATOM     16  N   UNL     1       7.066   5.904  16.582  0.00  0.00    +0.000 NA
BRANCH  14  17
ATOM     17  C   UNL     1       3.952   4.456  17.604  0.00  0.00    +0.000 A 
ATOM     18  C   UNL     1       3.910   3.064  17.481  0.00  0.00    +0.000 A 
ATOM     19  C   UNL     1       2.682   2.430  17.559  0.00  0.00    +0.000 A 
ATOM     20  N   UNL     1       1.516   3.080  17.750  0.00  0.00    +0.000 NA
ATOM     21  C   UNL     1       1.581   4.422  17.884  0.00  0.00    +0.000 A 
ATOM     22  C   UNL     1       2.761   5.147  17.827  0.00  0.00    +0.000 A 
ENDBRANCH  14  17
ENDBRANCH   1  12
TORSDOF 3
ENDMDL
MODEL 8
REMARK VINA RESULT:      -7.2      2.845      3.822
REMARK  Name = 
REMARK  4 active torsions:
REMARK  status: ('A' for Active; 'I' for Inactive)
REMARK    1  A    between atoms: C_1  and  C_2
REMARK    2  A    between atoms: C_6  and  C_8
REMARK    3  A    between atoms: C_8  and  N_9
REMARK    4  A    between atoms: C_11  and  C_12
REMARK                            x       y       z     vdW  Elec       q    Type
REMARK                         _______ _______ _______ _____ _____    ______ ____
ROOT
ATOM      1  C   UNL     1       6.355   6.947  17.866  0.00  0.00    +0.000 C 
ENDROOT
BRANCH   1   7
ATOM      2  C   UNL     1       5.821   2.731  11.767  0.00  0.00    +0.000 C 
ATOM      3  C   UNL     1       6.094   3.621  12.909  0.00  0.00    +0.000 A 
ATOM      4  C   UNL     1       5.395   4.023  14.021  0.00  0.00    +0.000 A 
ATOM      5  C   UNL     1       6.277   4.895  14.704  0.00  0.00    +0.000 A 
ATOM      6  N   UNL     1       5.977   5.530  15.896  0.00  0.00    +0.000 N 
ATOM      7  C   UNL     1       6.831   6.406  16.537  0.00  0.00    +0.000 C 
ATOM      8  O   UNL     1       7.960   6.724  16.156  0.00  0.00    +0.000 OA
ATOM      9  N   UNL     1       7.428   5.008  14.035  0.00  0.00    +0.000 NA
ATOM     10  O   UNL     1       7.315   4.212  12.918  0.00  0.00    +0.000 OA
ATOM     11  H   UNL     1       5.061   5.339  16.296  0.00  0.00    +0.000 HD
ENDBRANCH   1   7
BRANCH   1  12
ATOM     12  N   UNL     1       5.041   6.497  18.265  0.00  0.00    +0.000 N 
ATOM     13  C   UNL     1       4.739   5.513  19.154  0.00  0.00    +0.000 A 
ATOM     14  C   UNL     1       3.375   5.361  19.029  0.00  0.00    +0.000 A 
ATOM     15  N   UNL     1       2.907   6.257  18.103  0.00  0.00    +0.000 NA
ATOM     16  N   UNL     1       3.937   6.959  17.646  0.00  0.00    +0.000 NA
BRANCH  14  17
ATOM     17  C   UNL     1       2.579   4.361  19.706  0.00  0.00    +0.000 A 
ATOM     18  C   UNL     1       1.609   3.628  19.016  0.00  0.00    +0.000 A 
ATOM     19  C   UNL     1       0.824   2.737  19.726  0.00  0.00    +0.000 A 
ATOM     20  N   UNL     1       0.942   2.530  21.053  0.00  0.00    +0.000 NA
ATOM     21  C   UNL     1       1.897   3.236  21.698  0.00  0.00    +0.000 A 
ATOM     22  C   UNL     1       2.736   4.145  21.076  0.00  0.00    +0.000 A 
ENDBRANCH  14  17
ENDBRANCH   1  12
TORSDOF 3
ENDMDL
MODEL 9
REMARK VINA RESULT:      -7.2      1.698      2.311
REMARK  Name = 
REMARK  4 active torsions:
REMARK  status: ('A' for Active; 'I' for Inactive)
REMARK    1  A    between atoms: C_1  and  C_2
REMARK    2  A    between atoms: C_6  and  C_8
REMARK    3  A    between atoms: C_8  and  N_9
REMARK    4  A    between atoms: C_11  and  C_12
REMARK                            x       y       z     vdW  Elec       q    Type
REMARK                         _______ _______ _______ _____ _____    ______ ____
ROOT
ATOM      1  C   UNL     1       2.978   5.172  19.358  0.00  0.00    +0.000 C 
ENDROOT
BRANCH   1   7
ATOM      2  C   UNL     1       7.520   4.910  13.479  0.00  0.00    +0.000 C 
ATOM      3  C   UNL     1       6.774   4.940  14.750  0.00  0.00    +0.000 A 
ATOM      4  C   UNL     1       5.463   5.144  15.107  0.00  0.00    +0.000 A 
ATOM      5  C   UNL     1       5.453   5.028  16.518  0.00  0.00    +0.000 A 
ATOM      6  N   UNL     1       4.320   5.156  17.303  0.00  0.00    +0.000 N 
ATOM      7  C   UNL     1       4.326   5.075  18.680  0.00  0.00    +0.000 C 
ATOM      8  O   UNL     1       5.314   4.865  19.389  0.00  0.00    +0.000 OA
ATOM      9  N   UNL     1       6.684   4.776  16.972  0.00  0.00    +0.000 NA
ATOM     10  O   UNL     1       7.506   4.718  15.870  0.00  0.00    +0.000 OA
ATOM     11  H   UNL     1       3.446   5.338  16.814  0.00  0.00    +0.000 HD
ENDBRANCH   1   7
BRANCH   1  12
ATOM     12  N   UNL     1       2.498   6.520  19.557  0.00  0.00    +0.000 N 
ATOM     13  C   UNL     1       1.822   7.006  20.632  0.00  0.00    +0.000 A 
ATOM     14  C   UNL     1       1.444   8.272  20.241  0.00  0.00    +0.000 A 
ATOM     15  N   UNL     1       1.915   8.510  18.975  0.00  0.00    +0.000 NA
ATOM     16  N   UNL     1       2.571   7.431  18.567  0.00  0.00    +0.000 NA
BRANCH  14  17
ATOM     17  C   UNL     1       0.613   9.173  21.009  0.00  0.00    +0.000 A 
ATOM     18  C   UNL     1       0.056  10.313  20.422  0.00  0.00    +0.000 A 
ATOM     19  C   UNL     1      -0.669  11.180  21.219  0.00  0.00    +0.000 A 
ATOM     20  N   UNL     1      -0.875  10.988  22.538  0.00  0.00    +0.000 NA
ATOM     21  C   UNL     1      -0.344   9.871  23.081  0.00  0.00    +0.000 A 
ATOM     22  C   UNL     1       0.391   8.940  22.367  0.00  0.00    +0.000 A 
ENDBRANCH  14  17
ENDBRANCH   1  12
TORSDOF 3
ENDMDL
