MODEL 1
REMARK VINA RESULT:      -7.5      0.000      0.000
REMARK  Name = 
REMARK  5 active torsions:
REMARK  status: ('A' for Active; 'I' for Inactive)
REMARK    1  A    between atoms: C_1  and  C_2
REMARK    2  A    between atoms: N_8  and  C_9
REMARK    3  A    between atoms: N_8  and  C_10
REMARK    4  A    between atoms: N_13  and  C_14
REMARK    5  A    between atoms: C_24  and  C_25
REMARK                            x       y       z     vdW  Elec       q    Type
REMARK                         _______ _______ _______ _____ _____    ______ ____
ROOT
ATOM      1  C   UNL     1       2.238   6.401  18.675  0.00  0.00    +0.000 C 
ATOM      2  C   UNL     1       1.882   4.931  18.350  0.00  0.00    +0.000 C 
ATOM      3  C   UNL     1       3.218   4.237  18.086  0.00  0.00    +0.000 C 
ATOM      4  N   UNL     1       4.030   5.331  17.581  0.00  0.00    +0.000 N 
ATOM      5  C   UNL     1       3.775   6.488  18.445  0.00  0.00    +0.000 C 
ENDROOT
BRANCH   1  13
ATOM      6  C   UNL     1       0.736  11.803  19.268  0.00  0.00    +0.000 C 
ATOM      7  C   UNL     1       0.797  10.536  20.088  0.00  0.00    +0.000 A 
ATOM      8  C   UNL     1       0.341  10.579  21.401  0.00  0.00    +0.000 A 
ATOM      9  C   UNL     1       0.410   9.416  22.121  0.00  0.00    +0.000 A 
ATOM     10 CL   UNL     1      -0.095   9.360  23.758  0.00  0.00    +0.000 Cl
ATOM     11  N   UNL     1       0.872   8.249  21.633  0.00  0.00    +0.000 NA
ATOM     12  C   UNL     1       1.334   8.140  20.358  0.00  0.00    +0.000 A 
ATOM     13  N   UNL     1       1.775   6.864  20.007  0.00  0.00    +0.000 N 
ATOM     14  C   UNL     1       1.756   5.840  21.073  0.00  0.00    +0.000 C 
ATOM     15  C   UNL     1       1.316   9.312  19.564  0.00  0.00    +0.000 A 
BRANCH  15  16
ATOM     16  C   UNL     1       1.828   9.381  18.229  0.00  0.00    +0.000 C 
ATOM     17  N   UNL     1       2.274   9.502  17.161  0.00  0.00    +0.000 NA
ENDBRANCH  15  16
ENDBRANCH   1  13
BRANCH   4  18
ATOM     18  C   UNL     1       5.336   5.058  17.212  0.00  0.00    +0.000 A 
ATOM     19  N   UNL     1       6.327   4.998  18.138  0.00  0.00    +0.000 NA
ATOM     20  C   UNL     1       7.564   4.625  17.745  0.00  0.00    +0.000 A 
ATOM     21  N   UNL     1       7.981   4.270  16.517  0.00  0.00    +0.000 NA
ATOM     22  C   UNL     1       6.970   4.312  15.637  0.00  0.00    +0.000 A 
ATOM     23  N   UNL     1       7.068   3.955  14.321  0.00  0.00    +0.000 N 
ATOM     24  C   UNL     1       5.842   4.068  13.716  0.00  0.00    +0.000 A 
ATOM     25  C   UNL     1       4.948   4.514  14.666  0.00  0.00    +0.000 A 
ATOM     26  C   UNL     1       5.659   4.687  15.891  0.00  0.00    +0.000 A 
ATOM     27  H   UNL     1       7.921   3.630  13.889  0.00  0.00    +0.000 HD
ENDBRANCH   4  18
TORSDOF 3
ENDMDL
MODEL 2
REMARK VINA RESULT:      -7.2      0.874      2.010
REMARK  Name = 
REMARK  5 active torsions:
REMARK  status: ('A' for Active; 'I' for Inactive)
REMARK    1  A    between atoms: C_1  and  C_2
REMARK    2  A    between atoms: N_8  and  C_9
REMARK    3  A    between atoms: N_8  and  C_10
REMARK    4  A    between atoms: N_13  and  C_14
REMARK    5  A    between atoms: C_24  and  C_25
REMARK                            x       y       z     vdW  Elec       q    Type
REMARK                         _______ _______ _______ _____ _____    ______ ____
ROOT
ATOM      1  C   UNL     1       2.136   6.406  18.616  0.00  0.00    +0.000 C 
ATOM      2  C   UNL     1       1.672   4.974  18.259  0.00  0.00    +0.000 C 
ATOM      3  C   UNL     1       2.951   4.197  17.950  0.00  0.00    +0.000 C 
ATOM      4  N   UNL     1       3.829   5.245  17.458  0.00  0.00    +0.000 N 
ATOM      5  C   UNL     1       3.671   6.392  18.357  0.00  0.00    +0.000 C 
ENDROOT
BRANCH   1  13
ATOM      6  C   UNL     1       0.742  11.824  19.315  0.00  0.00    +0.000 C 
ATOM      7  C   UNL     1       0.813  10.548  20.121  0.00  0.00    +0.000 A 
ATOM      8  C   UNL     1       0.408  10.585  21.451  0.00  0.00    +0.000 A 
ATOM      9  C   UNL     1       0.485   9.413  22.156  0.00  0.00    +0.000 A 
ATOM     10 CL   UNL     1       0.041   9.349  23.811  0.00  0.00    +0.000 Cl
ATOM     11  N   UNL     1       0.911   8.244  21.640  0.00  0.00    +0.000 NA
ATOM     12  C   UNL     1       1.323   8.142  20.348  0.00  0.00    +0.000 A 
ATOM     13  N   UNL     1       1.730   6.862  19.969  0.00  0.00    +0.000 N 
ATOM     14  C   UNL     1       1.736   5.829  21.025  0.00  0.00    +0.000 C 
ATOM     15  C   UNL     1       1.293   9.321  19.566  0.00  0.00    +0.000 A 
BRANCH  15  16
ATOM     16  C   UNL     1       1.756   9.396  18.213  0.00  0.00    +0.000 C 
ATOM     17  N   UNL     1       2.184   9.408  17.131  0.00  0.00    +0.000 NA
ENDBRANCH  15  16
ENDBRANCH   1  13
BRANCH   4  18
ATOM     18  C   UNL     1       5.105   4.892  17.056  0.00  0.00    +0.000 A 
ATOM     19  N   UNL     1       5.370   4.577  15.763  0.00  0.00    +0.000 NA
ATOM     20  C   UNL     1       6.650   4.342  15.398  0.00  0.00    +0.000 A 
ATOM     21  N   UNL     1       7.759   4.394  16.156  0.00  0.00    +0.000 NA
ATOM     22  C   UNL     1       7.462   4.737  17.417  0.00  0.00    +0.000 A 
ATOM     23  N   UNL     1       8.383   4.923  18.411  0.00  0.00    +0.000 N 
ATOM     24  C   UNL     1       7.750   5.318  19.563  0.00  0.00    +0.000 A 
ATOM     25  C   UNL     1       6.398   5.374  19.298  0.00  0.00    +0.000 A 
ATOM     26  C   UNL     1       6.201   4.993  17.937  0.00  0.00    +0.000 A 
ATOM     27  H   UNL     1       9.377   4.813  18.283  0.00  0.00    +0.000 HD
ENDBRANCH   4  18
TORSDOF 3
ENDMDL
MODEL 3
REMARK VINA RESULT:      -6.5      2.792      4.561
REMARK  Name = 
REMARK  5 active torsions:
REMARK  status: ('A' for Active; 'I' for Inactive)
REMARK    1  A    between atoms: C_1  and  C_2
REMARK    2  A    between atoms: N_8  and  C_9
REMARK    3  A    between atoms: N_8  and  C_10
REMARK    4  A    between atoms: N_13  and  C_14
REMARK    5  A    between atoms: C_24  and  C_25
REMARK                            x       y       z     vdW  Elec       q    Type
REMARK                         _______ _______ _______ _____ _____    ______ ____
ROOT
ATOM      1  C   UNL     1       1.259   9.342  19.130  0.00  0.00    +0.000 C 
ATOM      2  C   UNL     1       2.168   9.104  17.900  0.00  0.00    +0.000 C 
ATOM      3  C   UNL     1       2.483   7.609  17.911  0.00  0.00    +0.000 C 
ATOM      4  N   UNL     1       2.412   7.296  19.328  0.00  0.00    +0.000 N 
ATOM      5  C   UNL     1       1.218   7.964  19.854  0.00  0.00    +0.000 C 
ENDROOT
BRANCH   1  13
ATOM      6  C   UNL     1      -1.355  12.412  23.072  0.00  0.00    +0.000 C 
ATOM      7  C   UNL     1      -1.563  11.969  21.642  0.00  0.00    +0.000 A 
ATOM      8  C   UNL     1      -2.696  12.416  20.973  0.00  0.00    +0.000 A 
ATOM      9  C   UNL     1      -2.858  11.997  19.678  0.00  0.00    +0.000 A 
ATOM     10 CL   UNL     1      -4.234  12.461  18.767  0.00  0.00    +0.000 Cl
ATOM     11  N   UNL     1      -1.990  11.203  19.024  0.00  0.00    +0.000 NA
ATOM     12  C   UNL     1      -0.863  10.730  19.623  0.00  0.00    +0.000 A 
ATOM     13  N   UNL     1      -0.068   9.924  18.808  0.00  0.00    +0.000 N 
ATOM     14  C   UNL     1      -0.588   9.631  17.456  0.00  0.00    +0.000 C 
ATOM     15  C   UNL     1      -0.644  11.103  20.971  0.00  0.00    +0.000 A 
BRANCH  15  16
ATOM     16  C   UNL     1       0.454  10.637  21.761  0.00  0.00    +0.000 C 
ATOM     17  N   UNL     1       1.374  10.227  22.344  0.00  0.00    +0.000 NA
ENDBRANCH  15  16
ENDBRANCH   1  13
BRANCH   4  18
ATOM     18  C   UNL     1       2.667   5.995  19.723  0.00  0.00    +0.000 A 
ATOM     19  N   UNL     1       1.729   5.266  20.381  0.00  0.00    +0.000 NA
ATOM     20  C   UNL     1       1.985   3.968  20.653  0.00  0.00    +0.000 A 
ATOM     21  N   UNL     1       3.075   3.246  20.338  0.00  0.00    +0.000 NA
ATOM     22  C   UNL     1       3.963   3.989  19.664  0.00  0.00    +0.000 A 
ATOM     23  N   UNL     1       5.148   3.522  19.162  0.00  0.00    +0.000 N 
ATOM     24  C   UNL     1       5.793   4.526  18.485  0.00  0.00    +0.000 A 
ATOM     25  C   UNL     1       5.007   5.656  18.567  0.00  0.00    +0.000 A 
ATOM     26  C   UNL     1       3.846   5.330  19.327  0.00  0.00    +0.000 A 
ATOM     27  H   UNL     1       5.462   2.569  19.261  0.00  0.00    +0.000 HD
ENDBRANCH   4  18
TORSDOF 3
ENDMDL
MODEL 4
REMARK VINA RESULT:      -6.5      2.535      4.655
REMARK  Name = 
REMARK  5 active torsions:
REMARK  status: ('A' for Active; 'I' for Inactive)
REMARK    1  A    between atoms: C_1  and  C_2
REMARK    2  A    between atoms: N_8  and  C_9
REMARK    3  A    between atoms: N_8  and  C_10
REMARK    4  A    between atoms: N_13  and  C_14
REMARK    5  A    between atoms: C_24  and  C_25
REMARK                            x       y       z     vdW  Elec       q    Type
REMARK                         _______ _______ _______ _____ _____    ______ ____
ROOT
ATOM      1  C   UNL     1       4.909   4.777  17.363  0.00  0.00    +0.000 C 
ATOM      2  C   UNL     1       6.375   4.726  17.858  0.00  0.00    +0.000 C 
ATOM      3  C   UNL     1       7.227   5.082  16.640  0.00  0.00    +0.000 C 
ATOM      4  N   UNL     1       6.399   4.610  15.544  0.00  0.00    +0.000 N 
ATOM      5  C   UNL     1       5.025   5.035  15.832  0.00  0.00    +0.000 C 
ENDROOT
BRANCH   1  13
ATOM      6  C   UNL     1       1.318   2.746  21.206  0.00  0.00    +0.000 C 
ATOM      7  C   UNL     1       1.762   4.078  20.646  0.00  0.00    +0.000 A 
ATOM      8  C   UNL     1       1.210   5.235  21.182  0.00  0.00    +0.000 A 
ATOM      9  C   UNL     1       1.630   6.427  20.653  0.00  0.00    +0.000 A 
ATOM     10 CL   UNL     1       0.994   7.916  21.216  0.00  0.00    +0.000 Cl
ATOM     11  N   UNL     1       2.543   6.540  19.669  0.00  0.00    +0.000 NA
ATOM     12  C   UNL     1       3.119   5.446  19.101  0.00  0.00    +0.000 A 
ATOM     13  N   UNL     1       4.046   5.734  18.099  0.00  0.00    +0.000 N 
ATOM     14  C   UNL     1       4.214   7.158  17.741  0.00  0.00    +0.000 C 
ATOM     15  C   UNL     1       2.712   4.179  19.582  0.00  0.00    +0.000 A 
BRANCH  15  16
ATOM     16  C   UNL     1       3.171   2.934  19.045  0.00  0.00    +0.000 C 
ATOM     17  N   UNL     1       3.481   1.917  18.571  0.00  0.00    +0.000 NA
ENDBRANCH  15  16
ENDBRANCH   1  13
BRANCH   4  18
ATOM     18  C   UNL     1       6.878   4.756  14.254  0.00  0.00    +0.000 A 
ATOM     19  N   UNL     1       7.937   5.562  13.987  0.00  0.00    +0.000 NA
ATOM     20  C   UNL     1       8.434   5.591  12.731  0.00  0.00    +0.000 A 
ATOM     21  N   UNL     1       8.029   4.895  11.654  0.00  0.00    +0.000 NA
ATOM     22  C   UNL     1       7.003   4.089  11.963  0.00  0.00    +0.000 A 
ATOM     23  N   UNL     1       6.408   3.218  11.093  0.00  0.00    +0.000 N 
ATOM     24  C   UNL     1       5.427   2.511  11.741  0.00  0.00    +0.000 A 
ATOM     25  C   UNL     1       5.392   2.949  13.048  0.00  0.00    +0.000 A 
ATOM     26  C   UNL     1       6.383   3.964  13.198  0.00  0.00    +0.000 A 
ATOM     27  H   UNL     1       6.688   3.107  10.130  0.00  0.00    +0.000 HD
ENDBRANCH   4  18
TORSDOF 3
ENDMDL
MODEL 5
REMARK VINA RESULT:      -6.4      1.163      1.790
REMARK  Name = 
REMARK  5 active torsions:
REMARK  status: ('A' for Active; 'I' for Inactive)
REMARK    1  A    between atoms: C_1  and  C_2
REMARK    2  A    between atoms: N_8  and  C_9
REMARK    3  A    between atoms: N_8  and  C_10
REMARK    4  A    between atoms: N_13  and  C_14
REMARK    5  A    between atoms: C_24  and  C_25
REMARK                            x       y       z     vdW  Elec       q    Type
REMARK                         _______ _______ _______ _____ _____    ______ ____
ROOT
ATOM      1  C   UNL     1       2.010   6.197  18.644  0.00  0.00    +0.000 C 
ATOM      2  C   UNL     1       1.725   4.690  18.428  0.00  0.00    +0.000 C 
ATOM      3  C   UNL     1       3.058   4.083  17.993  0.00  0.00    +0.000 C 
ATOM      4  N   UNL     1       3.701   5.207  17.333  0.00  0.00    +0.000 N 
ATOM      5  C   UNL     1       3.486   6.382  18.184  0.00  0.00    +0.000 C 
ENDROOT
BRANCH   1  13
ATOM      6  C   UNL     1       0.750  11.649  19.329  0.00  0.00    +0.000 C 
ATOM      7  C   UNL     1       0.861  10.389  20.155  0.00  0.00    +0.000 A 
ATOM      8  C   UNL     1       0.555  10.458  21.509  0.00  0.00    +0.000 A 
ATOM      9  C   UNL     1       0.667   9.300  22.232  0.00  0.00    +0.000 A 
ATOM     10 CL   UNL     1       0.345   9.276  23.915  0.00  0.00    +0.000 Cl
ATOM     11  N   UNL     1       1.037   8.114  21.711  0.00  0.00    +0.000 NA
ATOM     12  C   UNL     1       1.351   7.979  20.394  0.00  0.00    +0.000 A 
ATOM     13  N   UNL     1       1.711   6.686  20.013  0.00  0.00    +0.000 N 
ATOM     14  C   UNL     1       1.779   5.673  21.088  0.00  0.00    +0.000 C 
ATOM     15  C   UNL     1       1.281   9.143  19.592  0.00  0.00    +0.000 A 
BRANCH  15  16
ATOM     16  C   UNL     1       1.645   9.184  18.207  0.00  0.00    +0.000 C 
ATOM     17  N   UNL     1       2.007   9.238  17.103  0.00  0.00    +0.000 NA
ENDBRANCH  15  16
ENDBRANCH   1  13
BRANCH   4  18
ATOM     18  C   UNL     1       4.956   5.012  16.785  0.00  0.00    +0.000 A 
ATOM     19  N   UNL     1       5.201   3.968  15.953  0.00  0.00    +0.000 NA
ATOM     20  C   UNL     1       6.411   3.878  15.359  0.00  0.00    +0.000 A 
ATOM     21  N   UNL     1       7.456   4.718  15.457  0.00  0.00    +0.000 NA
ATOM     22  C   UNL     1       7.166   5.751  16.261  0.00  0.00    +0.000 A 
ATOM     23  N   UNL     1       8.008   6.798  16.518  0.00  0.00    +0.000 N 
ATOM     24  C   UNL     1       7.385   7.705  17.338  0.00  0.00    +0.000 A 
ATOM     25  C   UNL     1       6.125   7.218  17.616  0.00  0.00    +0.000 A 
ATOM     26  C   UNL     1       5.979   5.967  16.947  0.00  0.00    +0.000 A 
ATOM     27  H   UNL     1       8.933   6.885  16.124  0.00  0.00    +0.000 HD
ENDBRANCH   4  18
TORSDOF 3
ENDMDL
MODEL 6
REMARK VINA RESULT:      -6.2      2.192      3.677
REMARK  Name = 
REMARK  5 active torsions:
REMARK  status: ('A' for Active; 'I' for Inactive)
REMARK    1  A    between atoms: C_1  and  C_2
REMARK    2  A    between atoms: N_8  and  C_9
REMARK    3  A    between atoms: N_8  and  C_10
REMARK    4  A    between atoms: N_13  and  C_14
REMARK    5  A    between atoms: C_24  and  C_25
REMARK                            x       y       z     vdW  Elec       q    Type
REMARK                         _______ _______ _______ _____ _____    ______ ____
ROOT
ATOM      1  C   UNL     1       1.515   9.449  19.457  0.00  0.00    +0.000 C 
ATOM      2  C   UNL     1       1.296   9.141  17.956  0.00  0.00    +0.000 C 
ATOM      3  C   UNL     1       1.611   7.654  17.797  0.00  0.00    +0.000 C 
ATOM      4  N   UNL     1       2.583   7.436  18.854  0.00  0.00    +0.000 N 
ATOM      5  C   UNL     1       2.078   8.123  20.047  0.00  0.00    +0.000 C 
ENDROOT
BRANCH   1  13
ATOM      6  C   UNL     1       0.245  14.899  18.766  0.00  0.00    +0.000 C 
ATOM      7  C   UNL     1      -0.302  13.677  19.467  0.00  0.00    +0.000 A 
ATOM      8  C   UNL     1      -1.498  13.798  20.164  0.00  0.00    +0.000 A 
ATOM      9  C   UNL     1      -1.968  12.673  20.790  0.00  0.00    +0.000 A 
ATOM     10 CL   UNL     1      -3.417  12.714  21.705  0.00  0.00    +0.000 Cl
ATOM     11  N   UNL     1      -1.355  11.475  20.756  0.00  0.00    +0.000 NA
ATOM     12  C   UNL     1      -0.182  11.291  20.093  0.00  0.00    +0.000 A 
ATOM     13  N   UNL     1       0.320   9.990  20.152  0.00  0.00    +0.000 N 
ATOM     14  C   UNL     1      -0.435   9.025  20.979  0.00  0.00    +0.000 C 
ATOM     15  C   UNL     1       0.375  12.418  19.443  0.00  0.00    +0.000 A 
BRANCH  15  16
ATOM     16  C   UNL     1       1.634  12.407  18.762  0.00  0.00    +0.000 C 
ATOM     17  N   UNL     1       2.646  12.469  18.190  0.00  0.00    +0.000 NA
ENDBRANCH  15  16
ENDBRANCH   1  13
BRANCH   4  18
ATOM     18  C   UNL     1       3.117   6.168  19.000  0.00  0.00    +0.000 A 
ATOM     19  N   UNL     1       2.593   5.286  19.889  0.00  0.00    +0.000 NA
ATOM     20  C   UNL     1       3.080   4.026  19.921  0.00  0.00    +0.000 A 
ATOM     21  N   UNL     1       4.041   3.481  19.156  0.00  0.00    +0.000 NA
ATOM     22  C   UNL     1       4.512   4.371  18.271  0.00  0.00    +0.000 A 
ATOM     23  N   UNL     1       5.459   4.100  17.321  0.00  0.00    +0.000 N 
ATOM     24  C   UNL     1       5.676   5.214  16.550  0.00  0.00    +0.000 A 
ATOM     25  C   UNL     1       4.858   6.216  17.027  0.00  0.00    +0.000 A 
ATOM     26  C   UNL     1       4.122   5.696  18.132  0.00  0.00    +0.000 A 
ATOM     27  H   UNL     1       5.894   3.197  17.204  0.00  0.00    +0.000 HD
ENDBRANCH   4  18
TORSDOF 3
ENDMDL
MODEL 7
REMARK VINA RESULT:      -6.2      3.444      6.198
REMARK  Name = 
REMARK  5 active torsions:
REMARK  status: ('A' for Active; 'I' for Inactive)
REMARK    1  A    between atoms: C_1  and  C_2
REMARK    2  A    between atoms: N_8  and  C_9
REMARK    3  A    between atoms: N_8  and  C_10
REMARK    4  A    between atoms: N_13  and  C_14
REMARK    5  A    between atoms: C_24  and  C_25
REMARK                            x       y       z     vdW  Elec       q    Type
REMARK                         _______ _______ _______ _____ _____    ______ ____
ROOT
ATOM      1  C   UNL     1      -0.037  11.229  19.847  0.00  0.00    +0.000 C 
ATOM      2  C   UNL     1       1.138  11.988  19.183  0.00  0.00    +0.000 C 
ATOM      3  C   UNL     1       1.880  10.942  18.352  0.00  0.00    +0.000 C 
ATOM      4  N   UNL     1       1.612   9.722  19.094  0.00  0.00    +0.000 N 
ATOM      5  C   UNL     1       0.189   9.741  19.449  0.00  0.00    +0.000 C 
ENDROOT
BRANCH   1  13
ATOM      6  C   UNL     1      -3.524  12.503  24.090  0.00  0.00    +0.000 C 
ATOM      7  C   UNL     1      -3.486  12.569  22.581  0.00  0.00    +0.000 A 
ATOM      8  C   UNL     1      -4.576  13.123  21.919  0.00  0.00    +0.000 A 
ATOM      9  C   UNL     1      -4.515  13.168  20.551  0.00  0.00    +0.000 A 
ATOM     10 CL   UNL     1      -5.814  13.800  19.629  0.00  0.00    +0.000 Cl
ATOM     11  N   UNL     1      -3.469  12.727  19.824  0.00  0.00    +0.000 NA
ATOM     12  C   UNL     1      -2.374  12.173  20.411  0.00  0.00    +0.000 A 
ATOM     13  N   UNL     1      -1.379  11.771  19.519  0.00  0.00    +0.000 N 
ATOM     14  C   UNL     1      -1.679  11.923  18.080  0.00  0.00    +0.000 C 
ATOM     15  C   UNL     1      -2.381  12.072  21.823  0.00  0.00    +0.000 A 
BRANCH  15  16
ATOM     16  C   UNL     1      -1.338  11.455  22.586  0.00  0.00    +0.000 C 
ATOM     17  N   UNL     1      -0.542  10.915  23.240  0.00  0.00    +0.000 NA
ENDBRANCH  15  16
ENDBRANCH   1  13
BRANCH   4  18
ATOM     18  C   UNL     1       2.159   8.540  18.627  0.00  0.00    +0.000 A 
ATOM     19  N   UNL     1       2.894   8.511  17.486  0.00  0.00    +0.000 NA
ATOM     20  C   UNL     1       3.495   7.356  17.127  0.00  0.00    +0.000 A 
ATOM     21  N   UNL     1       3.490   6.175  17.770  0.00  0.00    +0.000 NA
ATOM     22  C   UNL     1       2.782   6.250  18.905  0.00  0.00    +0.000 A 
ATOM     23  N   UNL     1       2.636   5.227  19.801  0.00  0.00    +0.000 N 
ATOM     24  C   UNL     1       1.894   5.652  20.875  0.00  0.00    +0.000 A 
ATOM     25  C   UNL     1       1.553   6.969  20.650  0.00  0.00    +0.000 A 
ATOM     26  C   UNL     1       2.101   7.357  19.392  0.00  0.00    +0.000 A 
ATOM     27  H   UNL     1       3.050   4.315  19.684  0.00  0.00    +0.000 HD
ENDBRANCH   4  18
TORSDOF 3
ENDMDL
MODEL 8
REMARK VINA RESULT:      -6.2      2.666      4.280
REMARK  Name = 
REMARK  5 active torsions:
REMARK  status: ('A' for Active; 'I' for Inactive)
REMARK    1  A    between atoms: C_1  and  C_2
REMARK    2  A    between atoms: N_8  and  C_9
REMARK    3  A    between atoms: N_8  and  C_10
REMARK    4  A    between atoms: N_13  and  C_14
REMARK    5  A    between atoms: C_24  and  C_25
REMARK                            x       y       z     vdW  Elec       q    Type
REMARK                         _______ _______ _______ _____ _____    ______ ____
ROOT
ATOM      1  C   UNL     1       1.601   9.243  19.513  0.00  0.00    +0.000 C 
ATOM      2  C   UNL     1       1.307   8.915  18.029  0.00  0.00    +0.000 C 
ATOM      3  C   UNL     1       1.632   7.430  17.869  0.00  0.00    +0.000 C 
ATOM      4  N   UNL     1       2.662   7.237  18.875  0.00  0.00    +0.000 N 
ATOM      5  C   UNL     1       2.212   7.931  20.086  0.00  0.00    +0.000 C 
ENDROOT
BRANCH   1  13
ATOM      6  C   UNL     1       0.177  14.648  18.769  0.00  0.00    +0.000 C 
ATOM      7  C   UNL     1      -0.301  13.433  19.529  0.00  0.00    +0.000 A 
ATOM      8  C   UNL     1      -1.457  13.547  20.294  0.00  0.00    +0.000 A 
ATOM      9  C   UNL     1      -1.865  12.430  20.973  0.00  0.00    +0.000 A 
ATOM     10 CL   UNL     1      -3.258  12.464  21.971  0.00  0.00    +0.000 Cl
ATOM     11  N   UNL     1      -1.230  11.243  20.932  0.00  0.00    +0.000 NA
ATOM     12  C   UNL     1      -0.094  11.066  20.204  0.00  0.00    +0.000 A 
ATOM     13  N   UNL     1       0.438   9.777  20.264  0.00  0.00    +0.000 N 
ATOM     14  C   UNL     1      -0.246   8.819  21.158  0.00  0.00    +0.000 C 
ATOM     15  C   UNL     1       0.400  12.187  19.496  0.00  0.00    +0.000 A 
BRANCH  15  16
ATOM     16  C   UNL     1       1.616  12.184  18.741  0.00  0.00    +0.000 C 
ATOM     17  N   UNL     1       2.599  12.255  18.122  0.00  0.00    +0.000 NA
ENDBRANCH  15  16
ENDBRANCH   1  13
BRANCH   4  18
ATOM     18  C   UNL     1       3.219   5.977  19.006  0.00  0.00    +0.000 A 
ATOM     19  N   UNL     1       4.491   5.729  18.603  0.00  0.00    +0.000 NA
ATOM     20  C   UNL     1       5.026   4.512  18.847  0.00  0.00    +0.000 A 
ATOM     21  N   UNL     1       4.468   3.463  19.476  0.00  0.00    +0.000 NA
ATOM     22  C   UNL     1       3.226   3.756  19.885  0.00  0.00    +0.000 A 
ATOM     23  N   UNL     1       2.422   2.910  20.600  0.00  0.00    +0.000 N 
ATOM     24  C   UNL     1       1.238   3.537  20.899  0.00  0.00    +0.000 A 
ATOM     25  C   UNL     1       1.288   4.803  20.355  0.00  0.00    +0.000 A 
ATOM     26  C   UNL     1       2.544   4.949  19.695  0.00  0.00    +0.000 A 
ATOM     27  H   UNL     1       2.695   1.981  20.881  0.00  0.00    +0.000 HD
ENDBRANCH   4  18
TORSDOF 3
ENDMDL
MODEL 9
REMARK VINA RESULT:      -6.2      3.009      8.002
REMARK  Name = 
REMARK  5 active torsions:
REMARK  status: ('A' for Active; 'I' for Inactive)
REMARK    1  A    between atoms: C_1  and  C_2
REMARK    2  A    between atoms: N_8  and  C_9
REMARK    3  A    between atoms: N_8  and  C_10
REMARK    4  A    between atoms: N_13  and  C_14
REMARK    5  A    between atoms: C_24  and  C_25
REMARK                            x       y       z     vdW  Elec       q    Type
REMARK                         _______ _______ _______ _____ _____    ______ ____
ROOT
ATOM      1  C   UNL     1       2.241   7.543  19.721  0.00  0.00    +0.000 C 
ATOM      2  C   UNL     1       1.714   8.094  21.069  0.00  0.00    +0.000 C 
ATOM      3  C   UNL     1       0.514   8.969  20.708  0.00  0.00    +0.000 C 
ATOM      4  N   UNL     1       0.862   9.423  19.373  0.00  0.00    +0.000 N 
ATOM      5  C   UNL     1       1.372   8.257  18.644  0.00  0.00    +0.000 C 
ENDROOT
BRANCH   1  13
ATOM      6  C   UNL     1       5.444   5.142  15.751  0.00  0.00    +0.000 C 
ATOM      7  C   UNL     1       4.537   4.736  16.889  0.00  0.00    +0.000 A 
ATOM      8  C   UNL     1       4.388   3.381  17.162  0.00  0.00    +0.000 A 
ATOM      9  C   UNL     1       3.558   3.043  18.198  0.00  0.00    +0.000 A 
ATOM     10 CL   UNL     1       3.275   1.402  18.603  0.00  0.00    +0.000 Cl
ATOM     11  N   UNL     1       2.901   3.935  18.965  0.00  0.00    +0.000 NA
ATOM     12  C   UNL     1       3.003   5.274  18.749  0.00  0.00    +0.000 A 
ATOM     13  N   UNL     1       2.263   6.062  19.632  0.00  0.00    +0.000 N 
ATOM     14  C   UNL     1       1.420   5.345  20.612  0.00  0.00    +0.000 C 
ATOM     15  C   UNL     1       3.825   5.694  17.677  0.00  0.00    +0.000 A 
BRANCH  15  16
ATOM     16  C   UNL     1       3.984   7.060  17.277  0.00  0.00    +0.000 C 
ATOM     17  N   UNL     1       4.117   8.147  16.883  0.00  0.00    +0.000 NA
ENDBRANCH  15  16
ENDBRANCH   1  13
BRANCH   4  18
ATOM     18  C   UNL     1      -0.014  10.275  18.723  0.00  0.00    +0.000 A 
ATOM     19  N   UNL     1      -1.008   9.789  17.937  0.00  0.00    +0.000 NA
ATOM     20  C   UNL     1      -1.902  10.653  17.408  0.00  0.00    +0.000 A 
ATOM     21  N   UNL     1      -1.971  11.987  17.565  0.00  0.00    +0.000 NA
ATOM     22  C   UNL     1      -0.993  12.425  18.372  0.00  0.00    +0.000 A 
ATOM     23  N   UNL     1      -0.831  13.725  18.764  0.00  0.00    +0.000 N 
ATOM     24  C   UNL     1       0.232  13.822  19.626  0.00  0.00    +0.000 A 
ATOM     25  C   UNL     1       0.762  12.558  19.776  0.00  0.00    +0.000 A 
ATOM     26  C   UNL     1      -0.001  11.662  18.971  0.00  0.00    +0.000 A 
ATOM     27  H   UNL     1      -1.437  14.478  18.474  0.00  0.00    +0.000 HD
ENDBRANCH   4  18
TORSDOF 3
ENDMDL
