MODEL 1
REMARK VINA RESULT:      -6.6      0.000      0.000
REMARK  Name = 
REMARK  3 active torsions:
REMARK  status: ('A' for Active; 'I' for Inactive)
REMARK    1  A    between atoms: C_3  and  C_4
REMARK    2  A    between atoms: C_12  and  C_13
REMARK    3  A    between atoms: N_22  and  C_23
REMARK                            x       y       z     vdW  Elec       q    Type
REMARK                         _______ _______ _______ _____ _____    ______ ____
ROOT
ATOM      1  O   UNL     1       2.702  13.137  21.203  0.00  0.00    +0.000 OA
ATOM      2  C   UNL     1       1.719  13.024  20.457  0.00  0.00    +0.000 C 
ATOM      3  C   UNL     1       1.284  11.648  20.033  0.00  0.00    +0.000 C 
ATOM      4  C   UNL     1       0.673  11.671  18.626  0.00  0.00    +0.000 C 
ATOM      5  C   UNL     1      -0.444  12.699  18.405  0.00  0.00    +0.000 C 
ATOM      6  C   UNL     1      -0.048  14.066  19.016  0.00  0.00    +0.000 C 
ATOM      7  O   UNL     1      -0.561  15.101  18.608  0.00  0.00    +0.000 OA
ATOM      8  N   UNL     1       0.943  14.104  20.010  0.00  0.00    +0.000 N 
ENDROOT
BRANCH   3   9
ATOM      9  C   UNL     1       0.585  10.772  21.080  0.00  0.00    +0.000 A 
ATOM     10  C   UNL     1      -0.225  11.469  22.012  0.00  0.00    +0.000 A 
ATOM     11  C   UNL     1      -0.883  10.815  23.059  0.00  0.00    +0.000 A 
ATOM     12  C   UNL     1      -0.762   9.442  23.205  0.00  0.00    +0.000 A 
ATOM     13  C   UNL     1      -0.005   8.724  22.285  0.00  0.00    +0.000 A 
ATOM     14  C   UNL     1       0.657   9.374  21.227  0.00  0.00    +0.000 A 
ATOM     15 CL   UNL     1       1.537   8.328  20.185  0.00  0.00    +0.000 Cl
ENDBRANCH   3   9
BRANCH   5  16
ATOM     16  C   UNL     1      -1.876  12.304  18.774  0.00  0.00    +0.000 A 
ATOM     17  C   UNL     1      -2.504  12.730  19.952  0.00  0.00    +0.000 A 
ATOM     18  C   UNL     1      -3.889  12.626  20.116  0.00  0.00    +0.000 A 
ATOM     19  C   UNL     1      -4.672  12.093  19.101  0.00  0.00    +0.000 A 
ATOM     20  C   UNL     1      -4.050  11.490  18.016  0.00  0.00    +0.000 A 
ATOM     21  C   UNL     1      -2.658  11.506  17.916  0.00  0.00    +0.000 A 
ATOM     22 CL   UNL     1      -1.955  10.326  16.859  0.00  0.00    +0.000 Cl
ENDBRANCH   5  16
BRANCH   8  23
ATOM     23  C   UNL     1       1.195  15.372  20.634  0.00  0.00    +0.000 A 
ATOM     24  C   UNL     1       2.157  16.254  20.121  0.00  0.00    +0.000 A 
ATOM     25  C   UNL     1       2.517  17.403  20.831  0.00  0.00    +0.000 A 
ATOM     26  C   UNL     1       1.942  17.660  22.076  0.00  0.00    +0.000 A 
ATOM     27  C   UNL     1       0.972  16.797  22.580  0.00  0.00    +0.000 A 
ATOM     28 CL   UNL     1       0.318  17.072  24.149  0.00  0.00    +0.000 Cl
ATOM     29  C   UNL     1       0.569  15.678  21.852  0.00  0.00    +0.000 A 
ENDBRANCH   8  23
TORSDOF 3
ENDMDL
MODEL 2
REMARK VINA RESULT:      -6.3      7.436     10.532
REMARK  Name = 
REMARK  3 active torsions:
REMARK  status: ('A' for Active; 'I' for Inactive)
REMARK    1  A    between atoms: C_3  and  C_4
REMARK    2  A    between atoms: C_12  and  C_13
REMARK    3  A    between atoms: N_22  and  C_23
REMARK                            x       y       z     vdW  Elec       q    Type
REMARK                         _______ _______ _______ _____ _____    ______ ____
ROOT
ATOM      1  O   UNL     1       6.730  17.688  18.992  0.00  0.00    +0.000 OA
ATOM      2  C   UNL     1       7.456  16.735  18.678  0.00  0.00    +0.000 C 
ATOM      3  C   UNL     1       8.947  16.933  18.664  0.00  0.00    +0.000 C 
ATOM      4  C   UNL     1       9.609  16.063  17.587  0.00  0.00    +0.000 C 
ATOM      5  C   UNL     1       9.247  14.573  17.623  0.00  0.00    +0.000 C 
ATOM      6  C   UNL     1       7.721  14.393  17.824  0.00  0.00    +0.000 C 
ATOM      7  O   UNL     1       7.165  13.360  17.469  0.00  0.00    +0.000 OA
ATOM      8  N   UNL     1       6.980  15.450  18.375  0.00  0.00    +0.000 N 
ENDROOT
BRANCH   3   9
ATOM      9  C   UNL     1       9.662  17.027  20.017  0.00  0.00    +0.000 A 
ATOM     10  C   UNL     1       8.914  16.572  21.132  0.00  0.00    +0.000 A 
ATOM     11  C   UNL     1       9.410  16.644  22.438  0.00  0.00    +0.000 A 
ATOM     12  C   UNL     1      10.673  17.165  22.674  0.00  0.00    +0.000 A 
ATOM     13  C   UNL     1      11.446  17.586  21.598  0.00  0.00    +0.000 A 
ATOM     14  C   UNL     1      10.957  17.513  20.281  0.00  0.00    +0.000 A 
ATOM     15 CL   UNL     1      12.054  18.068  19.079  0.00  0.00    +0.000 Cl
ENDBRANCH   3   9
BRANCH   5  16
ATOM     16  C   UNL     1      10.055  13.652  18.541  0.00  0.00    +0.000 A 
ATOM     17  C   UNL     1       9.769  13.494  19.903  0.00  0.00    +0.000 A 
ATOM     18  C   UNL     1      10.303  12.431  20.639  0.00  0.00    +0.000 A 
ATOM     19  C   UNL     1      11.133  11.505  20.023  0.00  0.00    +0.000 A 
ATOM     20  C   UNL     1      11.581  11.755  18.732  0.00  0.00    +0.000 A 
ATOM     21  C   UNL     1      11.124  12.880  18.044  0.00  0.00    +0.000 A 
ATOM     22 CL   UNL     1      12.088  13.398  16.700  0.00  0.00    +0.000 Cl
ENDBRANCH   5  16
BRANCH   8  23
ATOM     23  C   UNL     1       5.595  15.200  18.656  0.00  0.00    +0.000 A 
ATOM     24  C   UNL     1       4.620  15.309  17.654  0.00  0.00    +0.000 A 
ATOM     25  C   UNL     1       3.262  15.236  17.974  0.00  0.00    +0.000 A 
ATOM     26  C   UNL     1       2.867  15.087  19.303  0.00  0.00    +0.000 A 
ATOM     27  C   UNL     1       3.832  14.959  20.300  0.00  0.00    +0.000 A 
ATOM     28 CL   UNL     1       3.347  14.851  21.948  0.00  0.00    +0.000 Cl
ATOM     29  C   UNL     1       5.189  14.977  19.981  0.00  0.00    +0.000 A 
ENDBRANCH   8  23
TORSDOF 3
ENDMDL
MODEL 3
REMARK VINA RESULT:      -6.3      7.157     10.118
REMARK  Name = 
REMARK  3 active torsions:
REMARK  status: ('A' for Active; 'I' for Inactive)
REMARK    1  A    between atoms: C_3  and  C_4
REMARK    2  A    between atoms: C_12  and  C_13
REMARK    3  A    between atoms: N_22  and  C_23
REMARK                            x       y       z     vdW  Elec       q    Type
REMARK                         _______ _______ _______ _____ _____    ______ ____
ROOT
ATOM      1  O   UNL     1       6.880  18.140  19.645  0.00  0.00    +0.000 OA
ATOM      2  C   UNL     1       7.390  17.123  19.157  0.00  0.00    +0.000 C 
ATOM      3  C   UNL     1       8.890  17.024  19.086  0.00  0.00    +0.000 C 
ATOM      4  C   UNL     1       9.334  16.218  17.860  0.00  0.00    +0.000 C 
ATOM      5  C   UNL     1       8.679  14.839  17.700  0.00  0.00    +0.000 C 
ATOM      6  C   UNL     1       7.155  14.933  17.959  0.00  0.00    +0.000 C 
ATOM      7  O   UNL     1       6.393  14.096  17.490  0.00  0.00    +0.000 OA
ATOM      8  N   UNL     1       6.657  16.018  18.697  0.00  0.00    +0.000 N 
ENDROOT
BRANCH   3   9
ATOM      9  C   UNL     1       9.644  16.769  20.397  0.00  0.00    +0.000 A 
ATOM     10  C   UNL     1       8.860  16.250  21.458  0.00  0.00    +0.000 A 
ATOM     11  C   UNL     1       9.394  16.016  22.730  0.00  0.00    +0.000 A 
ATOM     12  C   UNL     1      10.731  16.283  22.982  0.00  0.00    +0.000 A 
ATOM     13  C   UNL     1      11.535  16.757  21.952  0.00  0.00    +0.000 A 
ATOM     14  C   UNL     1      11.008  16.991  20.669  0.00  0.00    +0.000 A 
ATOM     15 CL   UNL     1      12.150  17.566  19.520  0.00  0.00    +0.000 Cl
ENDBRANCH   3   9
BRANCH   5  16
ATOM     16  C   UNL     1       9.309  13.649  18.427  0.00  0.00    +0.000 A 
ATOM     17  C   UNL     1       8.974  13.297  19.741  0.00  0.00    +0.000 A 
ATOM     18  C   UNL     1       9.314  12.046  20.267  0.00  0.00    +0.000 A 
ATOM     19  C   UNL     1       9.994  11.124  19.485  0.00  0.00    +0.000 A 
ATOM     20  C   UNL     1      10.502  11.525  18.257  0.00  0.00    +0.000 A 
ATOM     21  C   UNL     1      10.248  12.815  17.788  0.00  0.00    +0.000 A 
ATOM     22 CL   UNL     1      11.309  13.402  16.550  0.00  0.00    +0.000 Cl
ENDBRANCH   5  16
BRANCH   8  23
ATOM     23  C   UNL     1       5.257  16.003  19.017  0.00  0.00    +0.000 A 
ATOM     24  C   UNL     1       4.748  15.147  20.004  0.00  0.00    +0.000 A 
ATOM     25  C   UNL     1       3.369  15.014  20.185  0.00  0.00    +0.000 A 
ATOM     26  C   UNL     1       2.488  15.711  19.359  0.00  0.00    +0.000 A 
ATOM     27  C   UNL     1       2.990  16.578  18.390  0.00  0.00    +0.000 A 
ATOM     28 CL   UNL     1       1.905  17.380  17.320  0.00  0.00    +0.000 Cl
ATOM     29  C   UNL     1       4.364  16.756  18.240  0.00  0.00    +0.000 A 
ENDBRANCH   8  23
TORSDOF 3
ENDMDL
MODEL 4
REMARK VINA RESULT:      -6.2      1.943      4.801
REMARK  Name = 
REMARK  3 active torsions:
REMARK  status: ('A' for Active; 'I' for Inactive)
REMARK    1  A    between atoms: C_3  and  C_4
REMARK    2  A    between atoms: C_12  and  C_13
REMARK    3  A    between atoms: N_22  and  C_23
REMARK                            x       y       z     vdW  Elec       q    Type
REMARK                         _______ _______ _______ _____ _____    ______ ____
ROOT
ATOM      1  O   UNL     1      -1.171  15.000  19.190  0.00  0.00    +0.000 OA
ATOM      2  C   UNL     1      -0.708  14.003  19.761  0.00  0.00    +0.000 C 
ATOM      3  C   UNL     1      -1.646  12.896  20.161  0.00  0.00    +0.000 C 
ATOM      4  C   UNL     1      -1.165  12.200  21.440  0.00  0.00    +0.000 C 
ATOM      5  C   UNL     1       0.292  11.717  21.425  0.00  0.00    +0.000 C 
ATOM      6  C   UNL     1       1.217  12.810  20.835  0.00  0.00    +0.000 C 
ATOM      7  O   UNL     1       2.412  12.825  21.107  0.00  0.00    +0.000 OA
ATOM      8  N   UNL     1       0.656  13.809  20.025  0.00  0.00    +0.000 N 
ENDROOT
BRANCH   3   9
ATOM      9  C   UNL     1      -2.197  11.998  19.046  0.00  0.00    +0.000 A 
ATOM     10  C   UNL     1      -1.220  11.393  18.215  0.00  0.00    +0.000 A 
ATOM     11  C   UNL     1      -1.569  10.590  17.123  0.00  0.00    +0.000 A 
ATOM     12  C   UNL     1      -2.904  10.358  16.830  0.00  0.00    +0.000 A 
ATOM     13  C   UNL     1      -3.885  10.908  17.648  0.00  0.00    +0.000 A 
ATOM     14  C   UNL     1      -3.543  11.712  18.751  0.00  0.00    +0.000 A 
ATOM     15 CL   UNL     1      -4.885  12.296  19.653  0.00  0.00    +0.000 Cl
ENDBRANCH   3   9
BRANCH   5  16
ATOM     16  C   UNL     1       0.591  10.337  20.834  0.00  0.00    +0.000 A 
ATOM     17  C   UNL     1       1.004  10.150  19.508  0.00  0.00    +0.000 A 
ATOM     18  C   UNL     1       1.568   8.943  19.086  0.00  0.00    +0.000 A 
ATOM     19  C   UNL     1       1.731   7.898  19.985  0.00  0.00    +0.000 A 
ATOM     20  C   UNL     1       1.153   7.996  21.244  0.00  0.00    +0.000 A 
ATOM     21  C   UNL     1       0.496   9.170  21.617  0.00  0.00    +0.000 A 
ATOM     22 CL   UNL     1      -0.614   9.036  22.941  0.00  0.00    +0.000 Cl
ENDBRANCH   5  16
BRANCH   8  23
ATOM     23  C   UNL     1       1.564  14.731  19.401  0.00  0.00    +0.000 A 
ATOM     24  C   UNL     1       2.213  14.409  18.201  0.00  0.00    +0.000 A 
ATOM     25  C   UNL     1       3.221  15.234  17.696  0.00  0.00    +0.000 A 
ATOM     26  C   UNL     1       3.612  16.370  18.406  0.00  0.00    +0.000 A 
ATOM     27  C   UNL     1       2.956  16.704  19.589  0.00  0.00    +0.000 A 
ATOM     28 CL   UNL     1       3.487  18.062  20.504  0.00  0.00    +0.000 Cl
ATOM     29  C   UNL     1       1.913  15.914  20.070  0.00  0.00    +0.000 A 
ENDBRANCH   8  23
TORSDOF 3
ENDMDL
MODEL 5
REMARK VINA RESULT:      -6.2      2.250      4.806
REMARK  Name = 
REMARK  3 active torsions:
REMARK  status: ('A' for Active; 'I' for Inactive)
REMARK    1  A    between atoms: C_3  and  C_4
REMARK    2  A    between atoms: C_12  and  C_13
REMARK    3  A    between atoms: N_22  and  C_23
REMARK                            x       y       z     vdW  Elec       q    Type
REMARK                         _______ _______ _______ _____ _____    ______ ____
ROOT
ATOM      1  O   UNL     1      -0.373  15.001  18.111  0.00  0.00    +0.000 OA
ATOM      2  C   UNL     1      -0.311  14.351  19.163  0.00  0.00    +0.000 C 
ATOM      3  C   UNL     1      -1.536  13.616  19.636  0.00  0.00    +0.000 C 
ATOM      4  C   UNL     1      -1.589  13.558  21.167  0.00  0.00    +0.000 C 
ATOM      5  C   UNL     1      -0.323  13.028  21.855  0.00  0.00    +0.000 C 
ATOM      6  C   UNL     1       0.940  13.664  21.224  0.00  0.00    +0.000 C 
ATOM      7  O   UNL     1       1.987  13.725  21.858  0.00  0.00    +0.000 OA
ATOM      8  N   UNL     1       0.853  14.212  19.935  0.00  0.00    +0.000 N 
ENDROOT
BRANCH   3   9
ATOM      9  C   UNL     1      -1.934  12.345  18.877  0.00  0.00    +0.000 A 
ATOM     10  C   UNL     1      -0.860  11.613  18.311  0.00  0.00    +0.000 A 
ATOM     11  C   UNL     1      -1.068  10.461  17.545  0.00  0.00    +0.000 A 
ATOM     12  C   UNL     1      -2.356   9.995  17.326  0.00  0.00    +0.000 A 
ATOM     13  C   UNL     1      -3.429  10.670  17.899  0.00  0.00    +0.000 A 
ATOM     14  C   UNL     1      -3.228  11.826  18.674  0.00  0.00    +0.000 A 
ATOM     15 CL   UNL     1      -4.667  12.520  19.309  0.00  0.00    +0.000 Cl
ENDBRANCH   3   9
BRANCH   5  16
ATOM     16  C   UNL     1      -0.173  11.514  22.029  0.00  0.00    +0.000 A 
ATOM     17  C   UNL     1       0.699  10.742  21.251  0.00  0.00    +0.000 A 
ATOM     18  C   UNL     1       1.053   9.442  21.629  0.00  0.00    +0.000 A 
ATOM     19  C   UNL     1       0.539   8.893  22.795  0.00  0.00    +0.000 A 
ATOM     20  C   UNL     1      -0.472   9.565  23.470  0.00  0.00    +0.000 A 
ATOM     21  C   UNL     1      -0.893  10.817  23.020  0.00  0.00    +0.000 A 
ATOM     22 CL   UNL     1      -2.453  11.340  23.565  0.00  0.00    +0.000 Cl
ENDBRANCH   5  16
BRANCH   8  23
ATOM     23  C   UNL     1       2.072  14.682  19.341  0.00  0.00    +0.000 A 
ATOM     24  C   UNL     1       2.791  13.888  18.437  0.00  0.00    +0.000 A 
ATOM     25  C   UNL     1       4.060  14.279  18.000  0.00  0.00    +0.000 A 
ATOM     26  C   UNL     1       4.633  15.452  18.491  0.00  0.00    +0.000 A 
ATOM     27  C   UNL     1       3.914  16.255  19.375  0.00  0.00    +0.000 A 
ATOM     28 CL   UNL     1       4.650  17.662  20.040  0.00  0.00    +0.000 Cl
ATOM     29  C   UNL     1       2.627  15.897  19.772  0.00  0.00    +0.000 A 
ENDBRANCH   8  23
TORSDOF 3
ENDMDL
MODEL 6
REMARK VINA RESULT:      -6.2      2.554      3.680
REMARK  Name = 
REMARK  3 active torsions:
REMARK  status: ('A' for Active; 'I' for Inactive)
REMARK    1  A    between atoms: C_3  and  C_4
REMARK    2  A    between atoms: C_12  and  C_13
REMARK    3  A    between atoms: N_22  and  C_23
REMARK                            x       y       z     vdW  Elec       q    Type
REMARK                         _______ _______ _______ _____ _____    ______ ____
ROOT
ATOM      1  O   UNL     1       0.930  14.025  22.044  0.00  0.00    +0.000 OA
ATOM      2  C   UNL     1       0.140  13.415  21.312  0.00  0.00    +0.000 C 
ATOM      3  C   UNL     1      -0.780  12.395  21.927  0.00  0.00    +0.000 C 
ATOM      4  C   UNL     1      -1.072  11.252  20.947  0.00  0.00    +0.000 C 
ATOM      5  C   UNL     1      -1.565  11.679  19.558  0.00  0.00    +0.000 C 
ATOM      6  C   UNL     1      -0.715  12.857  19.022  0.00  0.00    +0.000 C 
ATOM      7  O   UNL     1      -0.641  13.072  17.818  0.00  0.00    +0.000 OA
ATOM      8  N   UNL     1       0.008  13.642  19.933  0.00  0.00    +0.000 N 
ENDROOT
BRANCH   3   9
ATOM      9  C   UNL     1      -1.958  12.916  22.758  0.00  0.00    +0.000 A 
ATOM     10  C   UNL     1      -2.686  11.928  23.468  0.00  0.00    +0.000 A 
ATOM     11  C   UNL     1      -3.818  12.242  24.227  0.00  0.00    +0.000 A 
ATOM     12  C   UNL     1      -4.258  13.554  24.310  0.00  0.00    +0.000 A 
ATOM     13  C   UNL     1      -3.544  14.552  23.656  0.00  0.00    +0.000 A 
ATOM     14  C   UNL     1      -2.402  14.246  22.894  0.00  0.00    +0.000 A 
ATOM     15 CL   UNL     1      -1.643  15.606  22.166  0.00  0.00    +0.000 Cl
ENDBRANCH   3   9
BRANCH   5  16
ATOM     16  C   UNL     1      -3.064  11.923  19.365  0.00  0.00    +0.000 A 
ATOM     17  C   UNL     1      -3.812  12.762  20.201  0.00  0.00    +0.000 A 
ATOM     18  C   UNL     1      -5.081  13.216  19.828  0.00  0.00    +0.000 A 
ATOM     19  C   UNL     1      -5.624  12.838  18.609  0.00  0.00    +0.000 A 
ATOM     20  C   UNL     1      -4.986  11.858  17.860  0.00  0.00    +0.000 A 
ATOM     21  C   UNL     1      -3.769  11.332  18.298  0.00  0.00    +0.000 A 
ATOM     22 CL   UNL     1      -3.312   9.802  17.626  0.00  0.00    +0.000 Cl
ENDBRANCH   5  16
BRANCH   8  23
ATOM     23  C   UNL     1       0.685  14.795  19.410  0.00  0.00    +0.000 A 
ATOM     24  C   UNL     1       0.005  16.003  19.201  0.00  0.00    +0.000 A 
ATOM     25  C   UNL     1       0.625  17.061  18.531  0.00  0.00    +0.000 A 
ATOM     26  C   UNL     1       1.919  16.907  18.035  0.00  0.00    +0.000 A 
ATOM     27  C   UNL     1       2.606  15.715  18.256  0.00  0.00    +0.000 A 
ATOM     28 CL   UNL     1       4.174  15.496  17.579  0.00  0.00    +0.000 Cl
ATOM     29  C   UNL     1       2.013  14.675  18.971  0.00  0.00    +0.000 A 
ENDBRANCH   8  23
TORSDOF 3
ENDMDL
MODEL 7
REMARK VINA RESULT:      -6.1      0.987      1.370
REMARK  Name = 
REMARK  3 active torsions:
REMARK  status: ('A' for Active; 'I' for Inactive)
REMARK    1  A    between atoms: C_3  and  C_4
REMARK    2  A    between atoms: C_12  and  C_13
REMARK    3  A    between atoms: N_22  and  C_23
REMARK                            x       y       z     vdW  Elec       q    Type
REMARK                         _______ _______ _______ _____ _____    ______ ____
ROOT
ATOM      1  O   UNL     1       2.680  13.223  21.153  0.00  0.00    +0.000 OA
ATOM      2  C   UNL     1       1.696  13.096  20.413  0.00  0.00    +0.000 C 
ATOM      3  C   UNL     1       1.281  11.712  19.989  0.00  0.00    +0.000 C 
ATOM      4  C   UNL     1       0.662  11.726  18.586  0.00  0.00    +0.000 C 
ATOM      5  C   UNL     1      -0.473  12.737  18.372  0.00  0.00    +0.000 C 
ATOM      6  C   UNL     1      -0.095  14.109  18.982  0.00  0.00    +0.000 C 
ATOM      7  O   UNL     1      -0.628  15.136  18.577  0.00  0.00    +0.000 OA
ATOM      8  N   UNL     1       0.900  14.163  19.970  0.00  0.00    +0.000 N 
ENDROOT
BRANCH   3   9
ATOM      9  C   UNL     1       0.602  10.825  21.040  0.00  0.00    +0.000 A 
ATOM     10  C   UNL     1       0.799   9.430  20.876  0.00  0.00    +0.000 A 
ATOM     11  C   UNL     1       0.200   8.492  21.723  0.00  0.00    +0.000 A 
ATOM     12  C   UNL     1      -0.609   8.914  22.766  0.00  0.00    +0.000 A 
ATOM     13  C   UNL     1      -0.792  10.276  22.976  0.00  0.00    +0.000 A 
ATOM     14  C   UNL     1      -0.190  11.227  22.132  0.00  0.00    +0.000 A 
ATOM     15 CL   UNL     1      -0.519  12.862  22.548  0.00  0.00    +0.000 Cl
ENDBRANCH   3   9
BRANCH   5  16
ATOM     16  C   UNL     1      -1.896  12.318  18.748  0.00  0.00    +0.000 A 
ATOM     17  C   UNL     1      -2.539  12.764  19.910  0.00  0.00    +0.000 A 
ATOM     18  C   UNL     1      -3.922  12.631  20.072  0.00  0.00    +0.000 A 
ATOM     19  C   UNL     1      -4.687  12.048  19.072  0.00  0.00    +0.000 A 
ATOM     20  C   UNL     1      -4.046  11.428  18.008  0.00  0.00    +0.000 A 
ATOM     21  C   UNL     1      -2.655  11.474  17.912  0.00  0.00    +0.000 A 
ATOM     22 CL   UNL     1      -1.918  10.280  16.895  0.00  0.00    +0.000 Cl
ENDBRANCH   5  16
BRANCH   8  23
ATOM     23  C   UNL     1       1.134  15.435  20.594  0.00  0.00    +0.000 A 
ATOM     24  C   UNL     1       2.134  16.298  20.125  0.00  0.00    +0.000 A 
ATOM     25  C   UNL     1       2.470  17.450  20.842  0.00  0.00    +0.000 A 
ATOM     26  C   UNL     1       1.832  17.729  22.051  0.00  0.00    +0.000 A 
ATOM     27  C   UNL     1       0.825  16.883  22.510  0.00  0.00    +0.000 A 
ATOM     28 CL   UNL     1       0.090  17.184  24.038  0.00  0.00    +0.000 Cl
ATOM     29  C   UNL     1       0.447  15.762  21.773  0.00  0.00    +0.000 A 
ENDBRANCH   8  23
TORSDOF 3
ENDMDL
MODEL 8
REMARK VINA RESULT:      -6.1      2.815      4.285
REMARK  Name = 
REMARK  3 active torsions:
REMARK  status: ('A' for Active; 'I' for Inactive)
REMARK    1  A    between atoms: C_3  and  C_4
REMARK    2  A    between atoms: C_12  and  C_13
REMARK    3  A    between atoms: N_22  and  C_23
REMARK                            x       y       z     vdW  Elec       q    Type
REMARK                         _______ _______ _______ _____ _____    ______ ____
ROOT
ATOM      1  O   UNL     1      -0.632  15.712  21.925  0.00  0.00    +0.000 OA
ATOM      2  C   UNL     1      -0.978  14.733  21.250  0.00  0.00    +0.000 C 
ATOM      3  C   UNL     1      -1.860  13.690  21.882  0.00  0.00    +0.000 C 
ATOM      4  C   UNL     1      -1.564  12.298  21.311  0.00  0.00    +0.000 C 
ATOM      5  C   UNL     1      -1.585  12.190  19.780  0.00  0.00    +0.000 C 
ATOM      6  C   UNL     1      -0.824  13.380  19.145  0.00  0.00    +0.000 C 
ATOM      7  O   UNL     1      -0.357  13.287  18.016  0.00  0.00    +0.000 OA
ATOM      8  N   UNL     1      -0.637  14.547  19.901  0.00  0.00    +0.000 N 
ENDROOT
BRANCH   3   9
ATOM      9  C   UNL     1      -3.333  14.051  22.106  0.00  0.00    +0.000 A 
ATOM     10  C   UNL     1      -3.849  15.058  21.251  0.00  0.00    +0.000 A 
ATOM     11  C   UNL     1      -5.160  15.532  21.370  0.00  0.00    +0.000 A 
ATOM     12  C   UNL     1      -6.002  15.011  22.340  0.00  0.00    +0.000 A 
ATOM     13  C   UNL     1      -5.538  13.997  23.170  0.00  0.00    +0.000 A 
ATOM     14  C   UNL     1      -4.222  13.511  23.055  0.00  0.00    +0.000 A 
ATOM     15 CL   UNL     1      -3.827  12.252  24.156  0.00  0.00    +0.000 Cl
ENDBRANCH   3   9
BRANCH   5  16
ATOM     16  C   UNL     1      -2.928  11.938  19.090  0.00  0.00    +0.000 A 
ATOM     17  C   UNL     1      -4.154  12.321  19.649  0.00  0.00    +0.000 A 
ATOM     18  C   UNL     1      -5.321  12.371  18.879  0.00  0.00    +0.000 A 
ATOM     19  C   UNL     1      -5.279  12.039  17.532  0.00  0.00    +0.000 A 
ATOM     20  C   UNL     1      -4.123  11.473  17.012  0.00  0.00    +0.000 A 
ATOM     21  C   UNL     1      -2.995  11.328  17.822  0.00  0.00    +0.000 A 
ATOM     22 CL   UNL     1      -1.813  10.180  17.288  0.00  0.00    +0.000 Cl
ENDBRANCH   5  16
BRANCH   8  23
ATOM     23  C   UNL     1      -0.034  15.668  19.236  0.00  0.00    +0.000 A 
ATOM     24  C   UNL     1      -0.819  16.663  18.638  0.00  0.00    +0.000 A 
ATOM     25  C   UNL     1      -0.230  17.652  17.846  0.00  0.00    +0.000 A 
ATOM     26  C   UNL     1       1.146  17.632  17.617  0.00  0.00    +0.000 A 
ATOM     27  C   UNL     1       1.933  16.656  18.225  0.00  0.00    +0.000 A 
ATOM     28 CL   UNL     1       3.619  16.585  17.884  0.00  0.00    +0.000 Cl
ATOM     29  C   UNL     1       1.358  15.699  19.060  0.00  0.00    +0.000 A 
ENDBRANCH   8  23
TORSDOF 3
ENDMDL
MODEL 9
REMARK VINA RESULT:      -6.1      0.991      1.332
REMARK  Name = 
REMARK  3 active torsions:
REMARK  status: ('A' for Active; 'I' for Inactive)
REMARK    1  A    between atoms: C_3  and  C_4
REMARK    2  A    between atoms: C_12  and  C_13
REMARK    3  A    between atoms: N_22  and  C_23
REMARK                            x       y       z     vdW  Elec       q    Type
REMARK                         _______ _______ _______ _____ _____    ______ ____
ROOT
ATOM      1  O   UNL     1       2.655  13.135  21.222  0.00  0.00    +0.000 OA
ATOM      2  C   UNL     1       1.636  13.098  20.520  0.00  0.00    +0.000 C 
ATOM      3  C   UNL     1       1.231  11.790  19.897  0.00  0.00    +0.000 C 
ATOM      4  C   UNL     1       0.537  12.012  18.547  0.00  0.00    +0.000 C 
ATOM      5  C   UNL     1      -0.631  13.007  18.558  0.00  0.00    +0.000 C 
ATOM      6  C   UNL     1      -0.253  14.274  19.365  0.00  0.00    +0.000 C 
ATOM      7  O   UNL     1      -0.830  15.336  19.161  0.00  0.00    +0.000 OA
ATOM      8  N   UNL     1       0.792  14.197  20.298  0.00  0.00    +0.000 N 
ENDROOT
BRANCH   3   9
ATOM      9  C   UNL     1       0.631  10.722  20.820  0.00  0.00    +0.000 A 
ATOM     10  C   UNL     1      -0.124  11.218  21.913  0.00  0.00    +0.000 A 
ATOM     11  C   UNL     1      -0.689  10.370  22.871  0.00  0.00    +0.000 A 
ATOM     12  C   UNL     1      -0.527   8.997  22.765  0.00  0.00    +0.000 A 
ATOM     13  C   UNL     1       0.176   8.477  21.684  0.00  0.00    +0.000 A 
ATOM     14  C   UNL     1       0.744   9.323  20.714  0.00  0.00    +0.000 A 
ATOM     15 CL   UNL     1       1.567   8.505  19.445  0.00  0.00    +0.000 Cl
ENDBRANCH   3   9
BRANCH   5  16
ATOM     16  C   UNL     1      -2.022  12.488  18.930  0.00  0.00    +0.000 A 
ATOM     17  C   UNL     1      -2.694  12.881  20.094  0.00  0.00    +0.000 A 
ATOM     18  C   UNL     1      -4.065  12.651  20.255  0.00  0.00    +0.000 A 
ATOM     19  C   UNL     1      -4.787  12.023  19.250  0.00  0.00    +0.000 A 
ATOM     20  C   UNL     1      -4.105  11.456  18.182  0.00  0.00    +0.000 A 
ATOM     21  C   UNL     1      -2.720  11.600  18.087  0.00  0.00    +0.000 A 
ATOM     22 CL   UNL     1      -1.902  10.466  17.063  0.00  0.00    +0.000 Cl
ENDBRANCH   5  16
BRANCH   8  23
ATOM     23  C   UNL     1       1.030  15.358  21.110  0.00  0.00    +0.000 A 
ATOM     24  C   UNL     1       0.170  15.694  22.165  0.00  0.00    +0.000 A 
ATOM     25  C   UNL     1       0.309  16.912  22.834  0.00  0.00    +0.000 A 
ATOM     26  C   UNL     1       1.288  17.820  22.431  0.00  0.00    +0.000 A 
ATOM     27  C   UNL     1       2.158  17.482  21.395  0.00  0.00    +0.000 A 
ATOM     28 CL   UNL     1       3.318  18.631  20.847  0.00  0.00    +0.000 Cl
ATOM     29  C   UNL     1       2.059  16.245  20.760  0.00  0.00    +0.000 A 
ENDBRANCH   8  23
TORSDOF 3
ENDMDL
