MODEL 1
REMARK VINA RESULT:      -8.3      0.000      0.000
REMARK  Name = 
REMARK  8 active torsions:
REMARK  status: ('A' for Active; 'I' for Inactive)
REMARK    1  A    between atoms: C_1  and  C_2
REMARK    2  A    between atoms: C_2  and  N_3
REMARK    3  A    between atoms: C_2  and  C_19
REMARK    4  A    between atoms: C_8  and  N_9
REMARK    5  A    between atoms: C_14  and  C_15
REMARK    6  A    between atoms: C_15  and  C_16
REMARK    7  A    between atoms: N_21  and  C_22
REMARK    8  A    between atoms: C_25  and  C_26
REMARK                            x       y       z     vdW  Elec       q    Type
REMARK                         _______ _______ _______ _____ _____    ______ ____
ROOT
ATOM      1  N   UNL     1       7.883   5.081  17.688  0.00  0.00    +0.000 N 
ATOM      2  C   UNL     1       6.773   4.564  17.034  0.00  0.00    +0.000 A 
ATOM      3  N   UNL     1       6.914   4.387  15.715  0.00  0.00    +0.000 NA
ATOM      4  C   UNL     1       5.850   3.918  15.039  0.00  0.00    +0.000 A 
ATOM      5  C   UNL     1       4.640   3.655  15.626  0.00  0.00    +0.000 A 
ATOM      6  C   UNL     1       4.593   3.839  16.988  0.00  0.00    +0.000 A 
ATOM      7  N   UNL     1       5.657   4.245  17.708  0.00  0.00    +0.000 NA
ATOM      8  H   UNL     1       8.458   5.488  16.956  0.00  0.00    +0.000 HD
ENDROOT
BRANCH   6   9
ATOM      9  N   UNL     1       3.412   3.573  17.685  0.00  0.00    +0.000 N 
ATOM     10  C   UNL     1       3.050   2.346  18.186  0.00  0.00    +0.000 C 
ATOM     11  O   UNL     1       3.724   1.330  18.235  0.00  0.00    +0.000 OA
ATOM     12  O   UNL     1       1.753   2.404  18.625  0.00  0.00    +0.000 OA
ATOM     13  C   UNL     1       1.173   3.628  18.154  0.00  0.00    +0.000 C 
ATOM     14  C   UNL     1       2.354   4.529  17.836  0.00  0.00    +0.000 C 
BRANCH  14  15
ATOM     15  C   UNL     1       2.623   5.556  18.955  0.00  0.00    +0.000 C 
ATOM     16  C   UNL     1       1.944   5.294  20.295  0.00  0.00    +0.000 C 
ATOM     17  F   UNL     1       2.195   6.778  18.515  0.00  0.00    +0.000 F 
ENDBRANCH  14  15
ENDBRANCH   6   9
BRANCH   1  19
ATOM     18  C   UNL     1       8.365   5.564  20.030  0.00  0.00    +0.000 C 
ATOM     19  C   UNL     1       7.610   6.026  18.773  0.00  0.00    +0.000 C 
BRANCH  19  20
ATOM     20  C   UNL     1       7.993   7.462  18.450  0.00  0.00    +0.000 A 
ATOM     21  C   UNL     1       8.819   8.324  19.147  0.00  0.00    +0.000 A 
ATOM     22  N   UNL     1       8.746   9.538  18.520  0.00  0.00    +0.000 N 
ATOM     23  C   UNL     1       7.965   9.328  17.406  0.00  0.00    +0.000 A 
ATOM     24  N   UNL     1       7.494   8.100  17.342  0.00  0.00    +0.000 NA
BRANCH  22  25
ATOM     25  C   UNL     1       9.329  10.770  18.956  0.00  0.00    +0.000 A 
ATOM     26  C   UNL     1       9.446  11.853  18.070  0.00  0.00    +0.000 A 
ATOM     27  C   UNL     1      10.036  13.050  18.487  0.00  0.00    +0.000 A 
ATOM     28  C   UNL     1      10.515  13.194  19.794  0.00  0.00    +0.000 A 
ATOM     29  C   UNL     1      10.408  12.110  20.673  0.00  0.00    +0.000 A 
ATOM     30  C   UNL     1       9.817  10.909  20.263  0.00  0.00    +0.000 A 
BRANCH  28  31
ATOM     31  C   UNL     1      11.169  14.479  20.234  0.00  0.00    +0.000 C 
ATOM     32  F   UNL     1      12.315  14.751  19.549  0.00  0.00    +0.000 F 
ATOM     33  F   UNL     1      10.369  15.568  20.064  0.00  0.00    +0.000 F 
ENDBRANCH  28  31
ENDBRANCH  22  25
ENDBRANCH  19  20
ENDBRANCH   1  19
TORSDOF 6
ENDMDL
MODEL 2
REMARK VINA RESULT:      -8.1      0.574      1.105
REMARK  Name = 
REMARK  8 active torsions:
REMARK  status: ('A' for Active; 'I' for Inactive)
REMARK    1  A    between atoms: C_1  and  C_2
REMARK    2  A    between atoms: C_2  and  N_3
REMARK    3  A    between atoms: C_2  and  C_19
REMARK    4  A    between atoms: C_8  and  N_9
REMARK    5  A    between atoms: C_14  and  C_15
REMARK    6  A    between atoms: C_15  and  C_16
REMARK    7  A    between atoms: N_21  and  C_22
REMARK    8  A    between atoms: C_25  and  C_26
REMARK                            x       y       z     vdW  Elec       q    Type
REMARK                         _______ _______ _______ _____ _____    ______ ____
ROOT
ATOM      1  N   UNL     1       7.864   4.999  17.648  0.00  0.00    +0.000 N 
ATOM      2  C   UNL     1       6.740   4.521  16.989  0.00  0.00    +0.000 A 
ATOM      3  N   UNL     1       6.874   4.362  15.666  0.00  0.00    +0.000 NA
ATOM      4  C   UNL     1       5.797   3.931  14.985  0.00  0.00    +0.000 A 
ATOM      5  C   UNL     1       4.582   3.689  15.571  0.00  0.00    +0.000 A 
ATOM      6  C   UNL     1       4.542   3.852  16.936  0.00  0.00    +0.000 A 
ATOM      7  N   UNL     1       5.618   4.219  17.659  0.00  0.00    +0.000 NA
ATOM      8  H   UNL     1       8.448   5.403  16.921  0.00  0.00    +0.000 HD
ENDROOT
BRANCH   6   9
ATOM      9  N   UNL     1       3.356   3.605  17.631  0.00  0.00    +0.000 N 
ATOM     10  C   UNL     1       3.012   2.403  18.201  0.00  0.00    +0.000 C 
ATOM     11  O   UNL     1       3.705   1.406  18.322  0.00  0.00    +0.000 OA
ATOM     12  O   UNL     1       1.707   2.460  18.618  0.00  0.00    +0.000 OA
ATOM     13  C   UNL     1       1.110   3.641  18.064  0.00  0.00    +0.000 C 
ATOM     14  C   UNL     1       2.278   4.545  17.708  0.00  0.00    +0.000 C 
BRANCH  14  15
ATOM     15  C   UNL     1       2.509   5.644  18.765  0.00  0.00    +0.000 C 
ATOM     16  C   UNL     1       2.973   7.001  18.244  0.00  0.00    +0.000 C 
ATOM     17  F   UNL     1       3.464   5.195  19.635  0.00  0.00    +0.000 F 
ENDBRANCH  14  15
ENDBRANCH   6   9
BRANCH   1  19
ATOM     18  C   UNL     1       8.462   5.501  19.959  0.00  0.00    +0.000 C 
ATOM     19  C   UNL     1       7.617   5.932  18.749  0.00  0.00    +0.000 C 
BRANCH  19  20
ATOM     20  C   UNL     1       7.923   7.382  18.407  0.00  0.00    +0.000 A 
ATOM     21  C   UNL     1       8.808   8.254  19.012  0.00  0.00    +0.000 A 
ATOM     22  N   UNL     1       8.630   9.476  18.421  0.00  0.00    +0.000 N 
ATOM     23  C   UNL     1       7.721   9.263  17.409  0.00  0.00    +0.000 A 
ATOM     24  N   UNL     1       7.275   8.025  17.381  0.00  0.00    +0.000 NA
BRANCH  22  25
ATOM     25  C   UNL     1       9.233  10.716  18.804  0.00  0.00    +0.000 A 
ATOM     26  C   UNL     1       9.611  10.940  20.137  0.00  0.00    +0.000 A 
ATOM     27  C   UNL     1      10.180  12.160  20.518  0.00  0.00    +0.000 A 
ATOM     28  C   UNL     1      10.386  13.176  19.579  0.00  0.00    +0.000 A 
ATOM     29  C   UNL     1       9.997  12.956  18.253  0.00  0.00    +0.000 A 
ATOM     30  C   UNL     1       9.429  11.738  17.864  0.00  0.00    +0.000 A 
BRANCH  28  31
ATOM     31  C   UNL     1      10.979  14.497  19.998  0.00  0.00    +0.000 C 
ATOM     32  F   UNL     1      12.331  14.442  20.163  0.00  0.00    +0.000 F 
ATOM     33  F   UNL     1      10.757  15.490  19.092  0.00  0.00    +0.000 F 
ENDBRANCH  28  31
ENDBRANCH  22  25
ENDBRANCH  19  20
ENDBRANCH   1  19
TORSDOF 6
ENDMDL
MODEL 3
REMARK VINA RESULT:      -7.9      6.014      9.095
REMARK  Name = 
REMARK  8 active torsions:
REMARK  status: ('A' for Active; 'I' for Inactive)
REMARK    1  A    between atoms: C_1  and  C_2
REMARK    2  A    between atoms: C_2  and  N_3
REMARK    3  A    between atoms: C_2  and  C_19
REMARK    4  A    between atoms: C_8  and  N_9
REMARK    5  A    between atoms: C_14  and  C_15
REMARK    6  A    between atoms: C_15  and  C_16
REMARK    7  A    between atoms: N_21  and  C_22
REMARK    8  A    between atoms: C_25  and  C_26
REMARK                            x       y       z     vdW  Elec       q    Type
REMARK                         _______ _______ _______ _____ _____    ______ ____
ROOT
ATOM      1  N   UNL     1       1.543   6.546  19.692  0.00  0.00    +0.000 N 
ATOM      2  C   UNL     1       2.559   5.605  19.591  0.00  0.00    +0.000 A 
ATOM      3  N   UNL     1       2.325   4.439  20.207  0.00  0.00    +0.000 NA
ATOM      4  C   UNL     1       3.300   3.513  20.160  0.00  0.00    +0.000 A 
ATOM      5  C   UNL     1       4.510   3.721  19.553  0.00  0.00    +0.000 A 
ATOM      6  C   UNL     1       4.653   4.935  18.922  0.00  0.00    +0.000 A 
ATOM      7  N   UNL     1       3.675   5.862  18.893  0.00  0.00    +0.000 NA
ATOM      8  H   UNL     1       0.968   6.235  20.470  0.00  0.00    +0.000 HD
ENDROOT
BRANCH   6   9
ATOM      9  N   UNL     1       5.841   5.235  18.252  0.00  0.00    +0.000 N 
ATOM     10  C   UNL     1       7.048   5.485  18.860  0.00  0.00    +0.000 C 
ATOM     11  O   UNL     1       7.330   5.365  20.040  0.00  0.00    +0.000 OA
ATOM     12  O   UNL     1       7.938   5.940  17.921  0.00  0.00    +0.000 OA
ATOM     13  C   UNL     1       7.211   6.243  16.722  0.00  0.00    +0.000 C 
ATOM     14  C   UNL     1       5.912   5.464  16.839  0.00  0.00    +0.000 C 
BRANCH  14  15
ATOM     15  C   UNL     1       5.936   4.161  16.016  0.00  0.00    +0.000 C 
ATOM     16  C   UNL     1       6.524   4.254  14.612  0.00  0.00    +0.000 C 
ATOM     17  F   UNL     1       4.647   3.722  15.887  0.00  0.00    +0.000 F 
ENDBRANCH  14  15
ENDBRANCH   6   9
BRANCH   1  19
ATOM     18  C   UNL     1       1.965   8.598  18.442  0.00  0.00    +0.000 C 
ATOM     19  C   UNL     1       1.966   7.940  19.832  0.00  0.00    +0.000 C 
BRANCH  19  20
ATOM     20  C   UNL     1       1.099   8.754  20.780  0.00  0.00    +0.000 A 
ATOM     21  C   UNL     1       0.091   9.653  20.488  0.00  0.00    +0.000 A 
ATOM     22  N   UNL     1      -0.299  10.214  21.674  0.00  0.00    +0.000 N 
ATOM     23  C   UNL     1       0.416   9.549  22.645  0.00  0.00    +0.000 A 
ATOM     24  N   UNL     1       1.265   8.677  22.141  0.00  0.00    +0.000 NA
BRANCH  22  25
ATOM     25  C   UNL     1      -1.224  11.290  21.857  0.00  0.00    +0.000 A 
ATOM     26  C   UNL     1      -1.726  11.585  23.134  0.00  0.00    +0.000 A 
ATOM     27  C   UNL     1      -2.648  12.622  23.312  0.00  0.00    +0.000 A 
ATOM     28  C   UNL     1      -3.083  13.386  22.224  0.00  0.00    +0.000 A 
ATOM     29  C   UNL     1      -2.591  13.083  20.949  0.00  0.00    +0.000 A 
ATOM     30  C   UNL     1      -1.667  12.048  20.763  0.00  0.00    +0.000 A 
BRANCH  28  31
ATOM     31  C   UNL     1      -4.092  14.488  22.416  0.00  0.00    +0.000 C 
ATOM     32  F   UNL     1      -4.847  14.715  21.304  0.00  0.00    +0.000 F 
ATOM     33  F   UNL     1      -4.978  14.230  23.418  0.00  0.00    +0.000 F 
ENDBRANCH  28  31
ENDBRANCH  22  25
ENDBRANCH  19  20
ENDBRANCH   1  19
TORSDOF 6
ENDMDL
MODEL 4
REMARK VINA RESULT:      -7.8      6.621     10.104
REMARK  Name = 
REMARK  8 active torsions:
REMARK  status: ('A' for Active; 'I' for Inactive)
REMARK    1  A    between atoms: C_1  and  C_2
REMARK    2  A    between atoms: C_2  and  N_3
REMARK    3  A    between atoms: C_2  and  C_19
REMARK    4  A    between atoms: C_8  and  N_9
REMARK    5  A    between atoms: C_14  and  C_15
REMARK    6  A    between atoms: C_15  and  C_16
REMARK    7  A    between atoms: N_21  and  C_22
REMARK    8  A    between atoms: C_25  and  C_26
REMARK                            x       y       z     vdW  Elec       q    Type
REMARK                         _______ _______ _______ _____ _____    ______ ____
ROOT
ATOM      1  N   UNL     1      -0.315   9.286  20.329  0.00  0.00    +0.000 N 
ATOM      2  C   UNL     1      -0.576  10.456  19.628  0.00  0.00    +0.000 A 
ATOM      3  N   UNL     1      -1.432  10.333  18.606  0.00  0.00    +0.000 NA
ATOM      4  C   UNL     1      -1.687  11.438  17.881  0.00  0.00    +0.000 A 
ATOM      5  C   UNL     1      -1.090  12.649  18.117  0.00  0.00    +0.000 A 
ATOM      6  C   UNL     1      -0.247  12.690  19.202  0.00  0.00    +0.000 A 
ATOM      7  N   UNL     1      -0.018  11.621  19.990  0.00  0.00    +0.000 NA
ATOM      8  H   UNL     1      -0.612   8.535  19.713  0.00  0.00    +0.000 HD
ENDROOT
BRANCH   6   9
ATOM      9  N   UNL     1       0.391  13.885  19.542  0.00  0.00    +0.000 N 
ATOM     10  C   UNL     1       0.155  14.607  20.688  0.00  0.00    +0.000 C 
ATOM     11  O   UNL     1      -0.526  14.286  21.647  0.00  0.00    +0.000 OA
ATOM     12  O   UNL     1       0.798  15.814  20.598  0.00  0.00    +0.000 OA
ATOM     13  C   UNL     1       1.246  15.987  19.246  0.00  0.00    +0.000 C 
ATOM     14  C   UNL     1       1.274  14.587  18.657  0.00  0.00    +0.000 C 
BRANCH  14  15
ATOM     15  C   UNL     1       2.697  13.993  18.628  0.00  0.00    +0.000 C 
ATOM     16  C   UNL     1       3.789  14.877  18.034  0.00  0.00    +0.000 C 
ATOM     17  F   UNL     1       2.658  12.844  17.888  0.00  0.00    +0.000 F 
ENDBRANCH  14  15
ENDBRANCH   6   9
BRANCH   1  19
ATOM     18  C   UNL     1       1.050   9.049  22.337  0.00  0.00    +0.000 C 
ATOM     19  C   UNL     1       1.060   9.111  20.801  0.00  0.00    +0.000 C 
BRANCH  19  20
ATOM     20  C   UNL     1       1.747   7.872  20.247  0.00  0.00    +0.000 A 
ATOM     21  C   UNL     1       2.658   7.767  19.213  0.00  0.00    +0.000 A 
ATOM     22  N   UNL     1       2.886   6.431  19.017  0.00  0.00    +0.000 N 
ATOM     23  C   UNL     1       2.186   5.791  20.016  0.00  0.00    +0.000 A 
ATOM     24  N   UNL     1       1.490   6.625  20.761  0.00  0.00    +0.000 NA
BRANCH  22  25
ATOM     25  C   UNL     1       3.656   5.832  17.972  0.00  0.00    +0.000 A 
ATOM     26  C   UNL     1       4.459   6.624  17.137  0.00  0.00    +0.000 A 
ATOM     27  C   UNL     1       5.195   6.043  16.099  0.00  0.00    +0.000 A 
ATOM     28  C   UNL     1       5.150   4.663  15.877  0.00  0.00    +0.000 A 
ATOM     29  C   UNL     1       4.339   3.874  16.702  0.00  0.00    +0.000 A 
ATOM     30  C   UNL     1       3.601   4.449  17.744  0.00  0.00    +0.000 A 
BRANCH  28  31
ATOM     31  C   UNL     1       5.928   4.042  14.745  0.00  0.00    +0.000 C 
ATOM     32  F   UNL     1       5.255   4.075  13.560  0.00  0.00    +0.000 F 
ATOM     33  F   UNL     1       7.117   4.665  14.513  0.00  0.00    +0.000 F 
ENDBRANCH  28  31
ENDBRANCH  22  25
ENDBRANCH  19  20
ENDBRANCH   1  19
TORSDOF 6
ENDMDL
MODEL 5
REMARK VINA RESULT:      -7.7      6.050      9.012
REMARK  Name = 
REMARK  8 active torsions:
REMARK  status: ('A' for Active; 'I' for Inactive)
REMARK    1  A    between atoms: C_1  and  C_2
REMARK    2  A    between atoms: C_2  and  N_3
REMARK    3  A    between atoms: C_2  and  C_19
REMARK    4  A    between atoms: C_8  and  N_9
REMARK    5  A    between atoms: C_14  and  C_15
REMARK    6  A    between atoms: C_15  and  C_16
REMARK    7  A    between atoms: N_21  and  C_22
REMARK    8  A    between atoms: C_25  and  C_26
REMARK                            x       y       z     vdW  Elec       q    Type
REMARK                         _______ _______ _______ _____ _____    ______ ____
ROOT
ATOM      1  N   UNL     1       1.681   6.925  18.781  0.00  0.00    +0.000 N 
ATOM      2  C   UNL     1       2.731   6.023  18.880  0.00  0.00    +0.000 A 
ATOM      3  N   UNL     1       2.404   4.811  19.347  0.00  0.00    +0.000 NA
ATOM      4  C   UNL     1       3.400   3.918  19.489  0.00  0.00    +0.000 A 
ATOM      5  C   UNL     1       4.713   4.202  19.217  0.00  0.00    +0.000 A 
ATOM      6  C   UNL     1       4.953   5.460  18.717  0.00  0.00    +0.000 A 
ATOM      7  N   UNL     1       3.972   6.359  18.501  0.00  0.00    +0.000 NA
ATOM      8  H   UNL     1       0.946   6.545  19.371  0.00  0.00    +0.000 HD
ENDROOT
BRANCH   6   9
ATOM      9  N   UNL     1       6.255   5.839  18.384  0.00  0.00    +0.000 N 
ATOM     10  C   UNL     1       7.326   5.820  19.245  0.00  0.00    +0.000 C 
ATOM     11  O   UNL     1       7.371   5.360  20.374  0.00  0.00    +0.000 OA
ATOM     12  O   UNL     1       8.392   6.443  18.650  0.00  0.00    +0.000 OA
ATOM     13  C   UNL     1       7.920   7.118  17.475  0.00  0.00    +0.000 C 
ATOM     14  C   UNL     1       6.605   6.439  17.131  0.00  0.00    +0.000 C 
BRANCH  14  15
ATOM     15  C   UNL     1       6.758   5.412  15.991  0.00  0.00    +0.000 C 
ATOM     16  C   UNL     1       5.501   5.097  15.187  0.00  0.00    +0.000 C 
ATOM     17  F   UNL     1       7.192   4.237  16.540  0.00  0.00    +0.000 F 
ENDBRANCH  14  15
ENDBRANCH   6   9
BRANCH   1  19
ATOM     18  C   UNL     1       1.890   9.160  17.824  0.00  0.00    +0.000 C 
ATOM     19  C   UNL     1       1.994   8.318  19.106  0.00  0.00    +0.000 C 
BRANCH  19  20
ATOM     20  C   UNL     1       1.097   8.915  20.180  0.00  0.00    +0.000 A 
ATOM     21  C   UNL     1       0.151   9.917  20.070  0.00  0.00    +0.000 A 
ATOM     22  N   UNL     1      -0.297  10.182  21.336  0.00  0.00    +0.000 N 
ATOM     23  C   UNL     1       0.319   9.252  22.144  0.00  0.00    +0.000 A 
ATOM     24  N   UNL     1       1.163   8.487  21.483  0.00  0.00    +0.000 NA
BRANCH  22  25
ATOM     25  C   UNL     1      -1.186  11.229  21.735  0.00  0.00    +0.000 A 
ATOM     26  C   UNL     1      -1.586  11.349  23.075  0.00  0.00    +0.000 A 
ATOM     27  C   UNL     1      -2.473  12.358  23.464  0.00  0.00    +0.000 A 
ATOM     28  C   UNL     1      -2.974  13.268  22.527  0.00  0.00    +0.000 A 
ATOM     29  C   UNL     1      -2.585  13.141  21.189  0.00  0.00    +0.000 A 
ATOM     30  C   UNL     1      -1.696  12.135  20.793  0.00  0.00    +0.000 A 
BRANCH  28  31
ATOM     31  C   UNL     1      -3.947  14.341  22.945  0.00  0.00    +0.000 C 
ATOM     32  F   UNL     1      -4.172  14.357  24.289  0.00  0.00    +0.000 F 
ATOM     33  F   UNL     1      -3.524  15.596  22.626  0.00  0.00    +0.000 F 
ENDBRANCH  28  31
ENDBRANCH  22  25
ENDBRANCH  19  20
ENDBRANCH   1  19
TORSDOF 6
ENDMDL
MODEL 6
REMARK VINA RESULT:      -7.6      5.998      8.577
REMARK  Name = 
REMARK  8 active torsions:
REMARK  status: ('A' for Active; 'I' for Inactive)
REMARK    1  A    between atoms: C_1  and  C_2
REMARK    2  A    between atoms: C_2  and  N_3
REMARK    3  A    between atoms: C_2  and  C_19
REMARK    4  A    between atoms: C_8  and  N_9
REMARK    5  A    between atoms: C_14  and  C_15
REMARK    6  A    between atoms: C_15  and  C_16
REMARK    7  A    between atoms: N_21  and  C_22
REMARK    8  A    between atoms: C_25  and  C_26
REMARK                            x       y       z     vdW  Elec       q    Type
REMARK                         _______ _______ _______ _____ _____    ______ ____
ROOT
ATOM      1  N   UNL     1       1.512   6.720  19.083  0.00  0.00    +0.000 N 
ATOM      2  C   UNL     1       2.516   5.761  19.105  0.00  0.00    +0.000 A 
ATOM      3  N   UNL     1       2.195   4.608  19.705  0.00  0.00    +0.000 NA
ATOM      4  C   UNL     1       3.152   3.664  19.775  0.00  0.00    +0.000 A 
ATOM      5  C   UNL     1       4.425   3.843  19.301  0.00  0.00    +0.000 A 
ATOM      6  C   UNL     1       4.658   5.046  18.676  0.00  0.00    +0.000 A 
ATOM      7  N   UNL     1       3.706   5.989  18.530  0.00  0.00    +0.000 NA
ATOM      8  H   UNL     1       0.851   6.429  19.798  0.00  0.00    +0.000 HD
ENDROOT
BRANCH   6   9
ATOM      9  N   UNL     1       5.917   5.317  18.136  0.00  0.00    +0.000 N 
ATOM     10  C   UNL     1       7.057   5.547  18.869  0.00  0.00    +0.000 C 
ATOM     11  O   UNL     1       7.208   5.429  20.073  0.00  0.00    +0.000 OA
ATOM     12  O   UNL     1       8.052   5.976  18.029  0.00  0.00    +0.000 OA
ATOM     13  C   UNL     1       7.465   6.285  16.757  0.00  0.00    +0.000 C 
ATOM     14  C   UNL     1       6.144   5.534  16.738  0.00  0.00    +0.000 C 
BRANCH  14  15
ATOM     15  C   UNL     1       6.229   4.223  15.929  0.00  0.00    +0.000 C 
ATOM     16  C   UNL     1       6.481   4.364  14.431  0.00  0.00    +0.000 C 
ATOM     17  F   UNL     1       5.043   3.560  16.080  0.00  0.00    +0.000 F 
ENDBRANCH  14  15
ENDBRANCH   6   9
BRANCH   1  19
ATOM     18  C   UNL     1       1.690   8.868  17.940  0.00  0.00    +0.000 C 
ATOM     19  C   UNL     1       1.944   8.108  19.253  0.00  0.00    +0.000 C 
BRANCH  19  20
ATOM     20  C   UNL     1       1.254   8.831  20.399  0.00  0.00    +0.000 A 
ATOM     21  C   UNL     1       0.438   9.946  20.364  0.00  0.00    +0.000 A 
ATOM     22  N   UNL     1       0.168  10.284  21.663  0.00  0.00    +0.000 N 
ATOM     23  C   UNL     1       0.744   9.292  22.425  0.00  0.00    +0.000 A 
ATOM     24  N   UNL     1       1.406   8.415  21.699  0.00  0.00    +0.000 NA
BRANCH  22  25
ATOM     25  C   UNL     1      -0.531  11.443  22.126  0.00  0.00    +0.000 A 
ATOM     26  C   UNL     1      -0.104  12.726  21.751  0.00  0.00    +0.000 A 
ATOM     27  C   UNL     1      -0.771  13.862  22.220  0.00  0.00    +0.000 A 
ATOM     28  C   UNL     1      -1.878  13.741  23.067  0.00  0.00    +0.000 A 
ATOM     29  C   UNL     1      -2.296  12.462  23.451  0.00  0.00    +0.000 A 
ATOM     30  C   UNL     1      -1.634  11.321  22.983  0.00  0.00    +0.000 A 
BRANCH  28  31
ATOM     31  C   UNL     1      -2.582  14.968  23.589  0.00  0.00    +0.000 C 
ATOM     32  F   UNL     1      -3.642  14.669  24.391  0.00  0.00    +0.000 F 
ATOM     33  F   UNL     1      -1.770  15.771  24.332  0.00  0.00    +0.000 F 
ENDBRANCH  28  31
ENDBRANCH  22  25
ENDBRANCH  19  20
ENDBRANCH   1  19
TORSDOF 6
ENDMDL
MODEL 7
REMARK VINA RESULT:      -7.6      7.622     10.756
REMARK  Name = 
REMARK  8 active torsions:
REMARK  status: ('A' for Active; 'I' for Inactive)
REMARK    1  A    between atoms: C_1  and  C_2
REMARK    2  A    between atoms: C_2  and  N_3
REMARK    3  A    between atoms: C_2  and  C_19
REMARK    4  A    between atoms: C_8  and  N_9
REMARK    5  A    between atoms: C_14  and  C_15
REMARK    6  A    between atoms: C_15  and  C_16
REMARK    7  A    between atoms: N_21  and  C_22
REMARK    8  A    between atoms: C_25  and  C_26
REMARK                            x       y       z     vdW  Elec       q    Type
REMARK                         _______ _______ _______ _____ _____    ______ ____
ROOT
ATOM      1  N   UNL     1       0.639  11.879  18.300  0.00  0.00    +0.000 N 
ATOM      2  C   UNL     1       0.767  12.940  19.186  0.00  0.00    +0.000 A 
ATOM      3  N   UNL     1       1.883  13.668  19.053  0.00  0.00    +0.000 NA
ATOM      4  C   UNL     1       2.059  14.687  19.914  0.00  0.00    +0.000 A 
ATOM      5  C   UNL     1       1.181  14.981  20.924  0.00  0.00    +0.000 A 
ATOM      6  C   UNL     1       0.050  14.199  20.970  0.00  0.00    +0.000 A 
ATOM      7  N   UNL     1      -0.191  13.212  20.084  0.00  0.00    +0.000 NA
ATOM      8  H   UNL     1       1.576  11.718  17.940  0.00  0.00    +0.000 HD
ENDROOT
BRANCH   6   9
ATOM      9  N   UNL     1      -0.919  14.434  21.948  0.00  0.00    +0.000 N 
ATOM     10  C   UNL     1      -1.776  15.508  21.966  0.00  0.00    +0.000 C 
ATOM     11  O   UNL     1      -1.938  16.350  21.099  0.00  0.00    +0.000 OA
ATOM     12  O   UNL     1      -2.444  15.530  23.163  0.00  0.00    +0.000 OA
ATOM     13  C   UNL     1      -1.810  14.596  24.049  0.00  0.00    +0.000 C 
ATOM     14  C   UNL     1      -1.039  13.652  23.142  0.00  0.00    +0.000 C 
BRANCH  14  15
ATOM     15  C   UNL     1      -1.783  12.319  22.919  0.00  0.00    +0.000 C 
ATOM     16  C   UNL     1      -3.148  12.183  23.586  0.00  0.00    +0.000 C 
ATOM     17  F   UNL     1      -0.994  11.312  23.401  0.00  0.00    +0.000 F 
ENDBRANCH  14  15
ENDBRANCH   6   9
BRANCH   1  19
ATOM     18  C   UNL     1      -1.158  10.268  17.945  0.00  0.00    +0.000 C 
ATOM     19  C   UNL     1       0.031  10.660  18.837  0.00  0.00    +0.000 C 
BRANCH  19  20
ATOM     20  C   UNL     1       0.994   9.487  18.944  0.00  0.00    +0.000 A 
ATOM     21  C   UNL     1       1.801   8.928  17.971  0.00  0.00    +0.000 A 
ATOM     22  N   UNL     1       2.385   7.821  18.527  0.00  0.00    +0.000 N 
ATOM     23  C   UNL     1       1.990   7.823  19.846  0.00  0.00    +0.000 A 
ATOM     24  N   UNL     1       1.153   8.801  20.123  0.00  0.00    +0.000 NA
BRANCH  22  25
ATOM     25  C   UNL     1       3.199   6.851  17.863  0.00  0.00    +0.000 A 
ATOM     26  C   UNL     1       2.930   5.481  18.005  0.00  0.00    +0.000 A 
ATOM     27  C   UNL     1       3.738   4.529  17.375  0.00  0.00    +0.000 A 
ATOM     28  C   UNL     1       4.827   4.923  16.590  0.00  0.00    +0.000 A 
ATOM     29  C   UNL     1       5.102   6.289  16.459  0.00  0.00    +0.000 A 
ATOM     30  C   UNL     1       4.296   7.247  17.084  0.00  0.00    +0.000 A 
BRANCH  28  31
ATOM     31  C   UNL     1       5.709   3.894  15.930  0.00  0.00    +0.000 C 
ATOM     32  F   UNL     1       5.760   4.030  14.576  0.00  0.00    +0.000 F 
ATOM     33  F   UNL     1       7.001   3.949  16.357  0.00  0.00    +0.000 F 
ENDBRANCH  28  31
ENDBRANCH  22  25
ENDBRANCH  19  20
ENDBRANCH   1  19
TORSDOF 6
ENDMDL
MODEL 8
REMARK VINA RESULT:      -7.6      1.181      1.566
REMARK  Name = 
REMARK  8 active torsions:
REMARK  status: ('A' for Active; 'I' for Inactive)
REMARK    1  A    between atoms: C_1  and  C_2
REMARK    2  A    between atoms: C_2  and  N_3
REMARK    3  A    between atoms: C_2  and  C_19
REMARK    4  A    between atoms: C_8  and  N_9
REMARK    5  A    between atoms: C_14  and  C_15
REMARK    6  A    between atoms: C_15  and  C_16
REMARK    7  A    between atoms: N_21  and  C_22
REMARK    8  A    between atoms: C_25  and  C_26
REMARK                            x       y       z     vdW  Elec       q    Type
REMARK                         _______ _______ _______ _____ _____    ______ ____
ROOT
ATOM      1  N   UNL     1       7.525   5.054  17.760  0.00  0.00    +0.000 N 
ATOM      2  C   UNL     1       6.282   4.498  17.487  0.00  0.00    +0.000 A 
ATOM      3  N   UNL     1       6.003   4.327  16.188  0.00  0.00    +0.000 NA
ATOM      4  C   UNL     1       4.795   3.820  15.880  0.00  0.00    +0.000 A 
ATOM      5  C   UNL     1       3.845   3.513  16.818  0.00  0.00    +0.000 A 
ATOM      6  C   UNL     1       4.227   3.694  18.127  0.00  0.00    +0.000 A 
ATOM      7  N   UNL     1       5.451   4.138  18.476  0.00  0.00    +0.000 NA
ATOM      8  H   UNL     1       7.823   5.482  16.888  0.00  0.00    +0.000 HD
ENDROOT
BRANCH   6   9
ATOM      9  N   UNL     1       3.339   3.385  19.159  0.00  0.00    +0.000 N 
ATOM     10  C   UNL     1       3.632   2.590  20.241  0.00  0.00    +0.000 C 
ATOM     11  O   UNL     1       4.717   2.133  20.561  0.00  0.00    +0.000 OA
ATOM     12  O   UNL     1       2.480   2.338  20.939  0.00  0.00    +0.000 OA
ATOM     13  C   UNL     1       1.367   2.764  20.141  0.00  0.00    +0.000 C 
ATOM     14  C   UNL     1       1.952   3.746  19.140  0.00  0.00    +0.000 C 
BRANCH  14  15
ATOM     15  C   UNL     1       1.704   5.213  19.548  0.00  0.00    +0.000 C 
ATOM     16  C   UNL     1       2.939   6.096  19.693  0.00  0.00    +0.000 C 
ATOM     17  F   UNL     1       1.065   5.210  20.757  0.00  0.00    +0.000 F 
ENDBRANCH  14  15
ENDBRANCH   6   9
BRANCH   1  19
ATOM     18  C   UNL     1       8.583   5.452  19.922  0.00  0.00    +0.000 C 
ATOM     19  C   UNL     1       7.579   5.986  18.887  0.00  0.00    +0.000 C 
BRANCH  19  20
ATOM     20  C   UNL     1       7.962   7.405  18.495  0.00  0.00    +0.000 A 
ATOM     21  C   UNL     1       8.765   8.310  19.163  0.00  0.00    +0.000 A 
ATOM     22  N   UNL     1       8.702   9.487  18.468  0.00  0.00    +0.000 N 
ATOM     23  C   UNL     1       7.950   9.211  17.348  0.00  0.00    +0.000 A 
ATOM     24  N   UNL     1       7.487   7.978  17.340  0.00  0.00    +0.000 NA
BRANCH  22  25
ATOM     25  C   UNL     1       9.266  10.745  18.849  0.00  0.00    +0.000 A 
ATOM     26  C   UNL     1       9.877  10.899  20.103  0.00  0.00    +0.000 A 
ATOM     27  C   UNL     1      10.409  12.135  20.487  0.00  0.00    +0.000 A 
ATOM     28  C   UNL     1      10.348  13.237  19.628  0.00  0.00    +0.000 A 
ATOM     29  C   UNL     1       9.728  13.086  18.382  0.00  0.00    +0.000 A 
ATOM     30  C   UNL     1       9.195  11.853  17.991  0.00  0.00    +0.000 A 
BRANCH  28  31
ATOM     31  C   UNL     1      10.903  14.572  20.054  0.00  0.00    +0.000 C 
ATOM     32  F   UNL     1      10.180  15.623  19.576  0.00  0.00    +0.000 F 
ATOM     33  F   UNL     1      10.934  14.728  21.407  0.00  0.00    +0.000 F 
ENDBRANCH  28  31
ENDBRANCH  22  25
ENDBRANCH  19  20
ENDBRANCH   1  19
TORSDOF 6
ENDMDL
MODEL 9
REMARK VINA RESULT:      -7.5      7.025     10.250
REMARK  Name = 
REMARK  8 active torsions:
REMARK  status: ('A' for Active; 'I' for Inactive)
REMARK    1  A    between atoms: C_1  and  C_2
REMARK    2  A    between atoms: C_2  and  N_3
REMARK    3  A    between atoms: C_2  and  C_19
REMARK    4  A    between atoms: C_8  and  N_9
REMARK    5  A    between atoms: C_14  and  C_15
REMARK    6  A    between atoms: C_15  and  C_16
REMARK    7  A    between atoms: N_21  and  C_22
REMARK    8  A    between atoms: C_25  and  C_26
REMARK                            x       y       z     vdW  Elec       q    Type
REMARK                         _______ _______ _______ _____ _____    ______ ____
ROOT
ATOM      1  N   UNL     1      -0.304   9.361  20.378  0.00  0.00    +0.000 N 
ATOM      2  C   UNL     1      -0.533  10.504  19.624  0.00  0.00    +0.000 A 
ATOM      3  N   UNL     1      -1.408  10.363  18.620  0.00  0.00    +0.000 NA
ATOM      4  C   UNL     1      -1.633  11.440  17.845  0.00  0.00    +0.000 A 
ATOM      5  C   UNL     1      -0.991  12.638  18.013  0.00  0.00    +0.000 A 
ATOM      6  C   UNL     1      -0.131  12.702  19.085  0.00  0.00    +0.000 A 
ATOM      7  N   UNL     1       0.071  11.664  19.921  0.00  0.00    +0.000 NA
ATOM      8  H   UNL     1      -0.636   8.592  19.804  0.00  0.00    +0.000 HD
ENDROOT
BRANCH   6   9
ATOM      9  N   UNL     1       0.554  13.888  19.358  0.00  0.00    +0.000 N 
ATOM     10  C   UNL     1       1.768  14.240  18.819  0.00  0.00    +0.000 C 
ATOM     11  O   UNL     1       2.386  13.671  17.935  0.00  0.00    +0.000 OA
ATOM     12  O   UNL     1       2.235  15.360  19.456  0.00  0.00    +0.000 OA
ATOM     13  C   UNL     1       1.425  15.586  20.619  0.00  0.00    +0.000 C 
ATOM     14  C   UNL     1       0.136  14.826  20.357  0.00  0.00    +0.000 C 
BRANCH  14  15
ATOM     15  C   UNL     1      -1.001  15.752  19.879  0.00  0.00    +0.000 C 
ATOM     16  C   UNL     1      -0.666  16.706  18.737  0.00  0.00    +0.000 C 
ATOM     17  F   UNL     1      -1.396  16.515  20.943  0.00  0.00    +0.000 F 
ENDBRANCH  14  15
ENDBRANCH   6   9
BRANCH   1  19
ATOM     18  C   UNL     1       1.066   9.067  22.375  0.00  0.00    +0.000 C 
ATOM     19  C   UNL     1       1.071   9.159  20.840  0.00  0.00    +0.000 C 
BRANCH  19  20
ATOM     20  C   UNL     1       1.740   7.923  20.259  0.00  0.00    +0.000 A 
ATOM     21  C   UNL     1       2.634   7.826  19.210  0.00  0.00    +0.000 A 
ATOM     22  N   UNL     1       2.849   6.491  18.993  0.00  0.00    +0.000 N 
ATOM     23  C   UNL     1       2.159   5.843  19.993  0.00  0.00    +0.000 A 
ATOM     24  N   UNL     1       1.481   6.671  20.760  0.00  0.00    +0.000 NA
BRANCH  22  25
ATOM     25  C   UNL     1       3.599   5.900  17.928  0.00  0.00    +0.000 A 
ATOM     26  C   UNL     1       3.543   4.516  17.703  0.00  0.00    +0.000 A 
ATOM     27  C   UNL     1       4.294   3.933  16.676  0.00  0.00    +0.000 A 
ATOM     28  C   UNL     1       5.109   4.716  15.853  0.00  0.00    +0.000 A 
ATOM     29  C   UNL     1       5.173   6.095  16.086  0.00  0.00    +0.000 A 
ATOM     30  C   UNL     1       4.424   6.686  17.109  0.00  0.00    +0.000 A 
BRANCH  28  31
ATOM     31  C   UNL     1       5.932   4.082  14.762  0.00  0.00    +0.000 C 
ATOM     32  F   UNL     1       5.266   3.999  13.576  0.00  0.00    +0.000 F 
ATOM     33  F   UNL     1       7.079   4.766  14.495  0.00  0.00    +0.000 F 
ENDBRANCH  28  31
ENDBRANCH  22  25
ENDBRANCH  19  20
ENDBRANCH   1  19
TORSDOF 6
ENDMDL
