MODEL 1
REMARK VINA RESULT:      -8.5      0.000      0.000
REMARK  Name = 
REMARK  5 active torsions:
REMARK  status: ('A' for Active; 'I' for Inactive)
REMARK    1  A    between atoms: C_1  and  C_2
REMARK    2  A    between atoms: C_2  and  O_3
REMARK    3  A    between atoms: O_3  and  C_4
REMARK    4  A    between atoms: C_4  and  C_6
REMARK    5  A    between atoms: C_8  and  C_9
REMARK                            x       y       z     vdW  Elec       q    Type
REMARK                         _______ _______ _______ _____ _____    ______ ____
ROOT
ATOM      1  C   UNL     1       5.403   5.326  16.437  0.00  0.00    +0.000 A 
ATOM      2  C   UNL     1       4.642   6.509  16.568  0.00  0.00    +0.000 A 
ATOM      3  C   UNL     1       3.803   6.327  17.654  0.00  0.00    +0.000 A 
ATOM      4  N   UNL     1       4.038   5.012  18.063  0.00  0.00    +0.000 N 
ATOM      5  C   UNL     1       3.307   4.227  19.003  0.00  0.00    +0.000 A 
ATOM      6  C   UNL     1       3.966   3.242  19.731  0.00  0.00    +0.000 A 
ATOM      7  C   UNL     1       3.272   2.594  20.751  0.00  0.00    +0.000 A 
ATOM      8  C   UNL     1       1.948   2.928  20.952  0.00  0.00    +0.000 A 
ATOM      9 CL   UNL     1       1.021   2.229  22.208  0.00  0.00    +0.000 Cl
ATOM     10  N   UNL     1       1.309   3.847  20.204  0.00  0.00    +0.000 NA
ATOM     11  N   UNL     1       1.999   4.506  19.221  0.00  0.00    +0.000 NA
ATOM     12  N   UNL     1       5.125   4.477  17.442  0.00  0.00    +0.000 NA
ENDROOT
BRANCH   3  13
ATOM     13  C   UNL     1       2.891   7.299  18.280  0.00  0.00    +0.000 A 
ATOM     14  C   UNL     1       2.344   8.346  17.522  0.00  0.00    +0.000 A 
ATOM     15  C   UNL     1       1.485   9.283  18.106  0.00  0.00    +0.000 A 
ATOM     16  C   UNL     1       1.149   9.174  19.454  0.00  0.00    +0.000 A 
ATOM     17 CL   UNL     1       0.072  10.309  20.167  0.00  0.00    +0.000 Cl
ATOM     18  C   UNL     1       1.689   8.155  20.227  0.00  0.00    +0.000 A 
ATOM     19  C   UNL     1       2.581   7.248  19.649  0.00  0.00    +0.000 A 
ENDBRANCH   3  13
BRANCH   1  20
ATOM     20  C   UNL     1       6.344   5.013  15.352  0.00  0.00    +0.000 C 
ATOM     21  O   UNL     1       7.454   5.531  15.268  0.00  0.00    +0.000 OA
BRANCH  20  22
ATOM     22  O   UNL     1       5.798   4.188  14.413  0.00  0.00    +0.000 OA
BRANCH  22  24
ATOM     23  C   UNL     1       5.723   3.266  12.210  0.00  0.00    +0.000 C 
ATOM     24  C   UNL     1       6.593   3.960  13.243  0.00  0.00    +0.000 C 
ENDBRANCH  22  24
ENDBRANCH  20  22
ENDBRANCH   1  20
TORSDOF 4
ENDMDL
MODEL 2
REMARK VINA RESULT:      -8.4      4.471      6.815
REMARK  Name = 
REMARK  5 active torsions:
REMARK  status: ('A' for Active; 'I' for Inactive)
REMARK    1  A    between atoms: C_1  and  C_2
REMARK    2  A    between atoms: C_2  and  O_3
REMARK    3  A    between atoms: O_3  and  C_4
REMARK    4  A    between atoms: C_4  and  C_6
REMARK    5  A    between atoms: C_8  and  C_9
REMARK                            x       y       z     vdW  Elec       q    Type
REMARK                         _______ _______ _______ _____ _____    ______ ____
ROOT
ATOM      1  C   UNL     1       4.438   3.248  18.531  0.00  0.00    +0.000 A 
ATOM      2  C   UNL     1       5.178   4.315  19.087  0.00  0.00    +0.000 A 
ATOM      3  C   UNL     1       5.809   4.956  18.034  0.00  0.00    +0.000 A 
ATOM      4  N   UNL     1       5.489   4.187  16.912  0.00  0.00    +0.000 N 
ATOM      5  C   UNL     1       6.031   4.262  15.595  0.00  0.00    +0.000 A 
ATOM      6  C   UNL     1       5.242   3.903  14.508  0.00  0.00    +0.000 A 
ATOM      7  C   UNL     1       5.736   4.131  13.225  0.00  0.00    +0.000 A 
ATOM      8  C   UNL     1       7.007   4.653  13.100  0.00  0.00    +0.000 A 
ATOM      9 CL   UNL     1       7.687   5.015  11.573  0.00  0.00    +0.000 Cl
ATOM     10  N   UNL     1       7.780   4.946  14.162  0.00  0.00    +0.000 NA
ATOM     11  N   UNL     1       7.283   4.751  15.424  0.00  0.00    +0.000 NA
ATOM     12  N   UNL     1       4.523   3.269  17.189  0.00  0.00    +0.000 NA
ENDROOT
BRANCH   3  13
ATOM     13  C   UNL     1       6.607   6.193  18.060  0.00  0.00    +0.000 A 
ATOM     14  C   UNL     1       7.769   6.269  18.845  0.00  0.00    +0.000 A 
ATOM     15  C   UNL     1       8.530   7.442  18.888  0.00  0.00    +0.000 A 
ATOM     16  C   UNL     1       8.149   8.548  18.132  0.00  0.00    +0.000 A 
ATOM     17 CL   UNL     1       9.099   9.981  18.163  0.00  0.00    +0.000 Cl
ATOM     18  C   UNL     1       6.997   8.500  17.360  0.00  0.00    +0.000 A 
ATOM     19  C   UNL     1       6.215   7.343  17.354  0.00  0.00    +0.000 A 
ENDBRANCH   3  13
BRANCH   1  20
ATOM     20  C   UNL     1       3.700   2.219  19.279  0.00  0.00    +0.000 C 
ATOM     21  O   UNL     1       3.426   1.123  18.800  0.00  0.00    +0.000 OA
BRANCH  20  22
ATOM     22  O   UNL     1       3.270   2.668  20.493  0.00  0.00    +0.000 OA
BRANCH  22  24
ATOM     23  C   UNL     1       1.312   4.033  20.615  0.00  0.00    +0.000 C 
ATOM     24  C   UNL     1       1.855   2.618  20.712  0.00  0.00    +0.000 C 
ENDBRANCH  22  24
ENDBRANCH  20  22
ENDBRANCH   1  20
TORSDOF 4
ENDMDL
MODEL 3
REMARK VINA RESULT:      -8.3      0.223      1.008
REMARK  Name = 
REMARK  5 active torsions:
REMARK  status: ('A' for Active; 'I' for Inactive)
REMARK    1  A    between atoms: C_1  and  C_2
REMARK    2  A    between atoms: C_2  and  O_3
REMARK    3  A    between atoms: O_3  and  C_4
REMARK    4  A    between atoms: C_4  and  C_6
REMARK    5  A    between atoms: C_8  and  C_9
REMARK                            x       y       z     vdW  Elec       q    Type
REMARK                         _______ _______ _______ _____ _____    ______ ____
ROOT
ATOM      1  C   UNL     1       5.544   5.216  16.325  0.00  0.00    +0.000 A 
ATOM      2  C   UNL     1       4.792   6.406  16.448  0.00  0.00    +0.000 A 
ATOM      3  C   UNL     1       3.949   6.237  17.533  0.00  0.00    +0.000 A 
ATOM      4  N   UNL     1       4.173   4.923  17.950  0.00  0.00    +0.000 N 
ATOM      5  C   UNL     1       3.434   4.148  18.893  0.00  0.00    +0.000 A 
ATOM      6  C   UNL     1       4.084   3.162  19.628  0.00  0.00    +0.000 A 
ATOM      7  C   UNL     1       3.382   2.527  20.651  0.00  0.00    +0.000 A 
ATOM      8  C   UNL     1       2.061   2.873  20.847  0.00  0.00    +0.000 A 
ATOM      9 CL   UNL     1       1.126   2.188  22.105  0.00  0.00    +0.000 Cl
ATOM     10  N   UNL     1       1.431   3.792  20.093  0.00  0.00    +0.000 NA
ATOM     11  N   UNL     1       2.128   4.440  19.107  0.00  0.00    +0.000 NA
ATOM     12  N   UNL     1       5.257   4.376  17.335  0.00  0.00    +0.000 NA
ENDROOT
BRANCH   3  13
ATOM     13  C   UNL     1       3.044   7.220  18.152  0.00  0.00    +0.000 A 
ATOM     14  C   UNL     1       2.719   7.122  19.514  0.00  0.00    +0.000 A 
ATOM     15  C   UNL     1       1.851   8.042  20.112  0.00  0.00    +0.000 A 
ATOM     16  C   UNL     1       1.311   9.082  19.359  0.00  0.00    +0.000 A 
ATOM     17 CL   UNL     1       0.266  10.229  20.098  0.00  0.00    +0.000 Cl
ATOM     18  C   UNL     1       1.607   9.189  18.006  0.00  0.00    +0.000 A 
ATOM     19  C   UNL     1       2.439   8.243  17.404  0.00  0.00    +0.000 A 
ENDBRANCH   3  13
BRANCH   1  20
ATOM     20  C   UNL     1       6.485   4.889  15.244  0.00  0.00    +0.000 C 
ATOM     21  O   UNL     1       7.492   5.553  15.019  0.00  0.00    +0.000 OA
BRANCH  20  22
ATOM     22  O   UNL     1       6.047   3.855  14.470  0.00  0.00    +0.000 OA
BRANCH  22  24
ATOM     23  C   UNL     1       5.356   3.341  12.241  0.00  0.00    +0.000 C 
ATOM     24  C   UNL     1       6.489   3.863  13.107  0.00  0.00    +0.000 C 
ENDBRANCH  22  24
ENDBRANCH  20  22
ENDBRANCH   1  20
TORSDOF 4
ENDMDL
MODEL 4
REMARK VINA RESULT:      -8.3      4.536      6.619
REMARK  Name = 
REMARK  5 active torsions:
REMARK  status: ('A' for Active; 'I' for Inactive)
REMARK    1  A    between atoms: C_1  and  C_2
REMARK    2  A    between atoms: C_2  and  O_3
REMARK    3  A    between atoms: O_3  and  C_4
REMARK    4  A    between atoms: C_4  and  C_6
REMARK    5  A    between atoms: C_8  and  C_9
REMARK                            x       y       z     vdW  Elec       q    Type
REMARK                         _______ _______ _______ _____ _____    ______ ____
ROOT
ATOM      1  C   UNL     1       4.461   3.416  18.794  0.00  0.00    +0.000 A 
ATOM      2  C   UNL     1       5.202   4.512  19.290  0.00  0.00    +0.000 A 
ATOM      3  C   UNL     1       5.820   5.104  18.201  0.00  0.00    +0.000 A 
ATOM      4  N   UNL     1       5.493   4.279  17.122  0.00  0.00    +0.000 N 
ATOM      5  C   UNL     1       6.022   4.292  15.798  0.00  0.00    +0.000 A 
ATOM      6  C   UNL     1       5.224   3.877  14.737  0.00  0.00    +0.000 A 
ATOM      7  C   UNL     1       5.706   4.044  13.439  0.00  0.00    +0.000 A 
ATOM      8  C   UNL     1       6.973   4.565  13.277  0.00  0.00    +0.000 A 
ATOM      9 CL   UNL     1       7.637   4.855  11.728  0.00  0.00    +0.000 Cl
ATOM     10  N   UNL     1       7.754   4.913  14.316  0.00  0.00    +0.000 NA
ATOM     11  N   UNL     1       7.270   4.778  15.591  0.00  0.00    +0.000 NA
ATOM     12  N   UNL     1       4.533   3.372  17.453  0.00  0.00    +0.000 NA
ENDROOT
BRANCH   3  13
ATOM     13  C   UNL     1       6.612   6.344  18.159  0.00  0.00    +0.000 A 
ATOM     14  C   UNL     1       6.169   7.441  17.404  0.00  0.00    +0.000 A 
ATOM     15  C   UNL     1       6.918   8.621  17.345  0.00  0.00    +0.000 A 
ATOM     16  C   UNL     1       8.111   8.725  18.057  0.00  0.00    +0.000 A 
ATOM     17 CL   UNL     1       9.019  10.184  18.008  0.00  0.00    +0.000 Cl
ATOM     18  C   UNL     1       8.576   7.647  18.798  0.00  0.00    +0.000 A 
ATOM     19  C   UNL     1       7.848   6.456  18.818  0.00  0.00    +0.000 A 
ENDBRANCH   3  13
BRANCH   1  20
ATOM     20  C   UNL     1       3.735   2.422  19.598  0.00  0.00    +0.000 C 
ATOM     21  O   UNL     1       4.210   1.916  20.612  0.00  0.00    +0.000 OA
BRANCH  20  22
ATOM     22  O   UNL     1       2.552   2.055  19.027  0.00  0.00    +0.000 OA
BRANCH  22  24
ATOM     23  C   UNL     1       1.126   3.215  20.555  0.00  0.00    +0.000 C 
ATOM     24  C   UNL     1       1.499   3.024  19.095  0.00  0.00    +0.000 C 
ENDBRANCH  22  24
ENDBRANCH  20  22
ENDBRANCH   1  20
TORSDOF 4
ENDMDL
MODEL 5
REMARK VINA RESULT:      -8.3      1.260      4.532
REMARK  Name = 
REMARK  5 active torsions:
REMARK  status: ('A' for Active; 'I' for Inactive)
REMARK    1  A    between atoms: C_1  and  C_2
REMARK    2  A    between atoms: C_2  and  O_3
REMARK    3  A    between atoms: O_3  and  C_4
REMARK    4  A    between atoms: C_4  and  C_6
REMARK    5  A    between atoms: C_8  and  C_9
REMARK                            x       y       z     vdW  Elec       q    Type
REMARK                         _______ _______ _______ _____ _____    ______ ____
ROOT
ATOM      1  C   UNL     1       5.413   5.122  16.516  0.00  0.00    +0.000 A 
ATOM      2  C   UNL     1       5.041   4.143  17.464  0.00  0.00    +0.000 A 
ATOM      3  C   UNL     1       3.999   4.677  18.204  0.00  0.00    +0.000 A 
ATOM      4  N   UNL     1       3.860   5.982  17.723  0.00  0.00    +0.000 N 
ATOM      5  C   UNL     1       3.082   7.051  18.258  0.00  0.00    +0.000 A 
ATOM      6  C   UNL     1       2.572   8.021  17.402  0.00  0.00    +0.000 A 
ATOM      7  C   UNL     1       1.688   8.965  17.922  0.00  0.00    +0.000 A 
ATOM      8  C   UNL     1       1.406   8.920  19.272  0.00  0.00    +0.000 A 
ATOM      9 CL   UNL     1       0.299  10.002  19.999  0.00  0.00    +0.000 Cl
ATOM     10  N   UNL     1       1.950   8.007  20.097  0.00  0.00    +0.000 NA
ATOM     11  N   UNL     1       2.794   7.059  19.582  0.00  0.00    +0.000 NA
ATOM     12  N   UNL     1       4.590   6.183  16.592  0.00  0.00    +0.000 NA
ENDROOT
BRANCH   3  13
ATOM     13  C   UNL     1       3.181   4.024  19.239  0.00  0.00    +0.000 A 
ATOM     14  C   UNL     1       3.796   3.365  20.315  0.00  0.00    +0.000 A 
ATOM     15  C   UNL     1       3.031   2.729  21.299  0.00  0.00    +0.000 A 
ATOM     16  C   UNL     1       1.640   2.761  21.229  0.00  0.00    +0.000 A 
ATOM     17 CL   UNL     1       0.698   2.004  22.452  0.00  0.00    +0.000 Cl
ATOM     18  C   UNL     1       1.011   3.394  20.165  0.00  0.00    +0.000 A 
ATOM     19  C   UNL     1       1.779   3.988  19.162  0.00  0.00    +0.000 A 
ENDBRANCH   3  13
BRANCH   1  20
ATOM     20  C   UNL     1       6.552   5.047  15.590  0.00  0.00    +0.000 C 
ATOM     21  O   UNL     1       7.387   5.942  15.494  0.00  0.00    +0.000 OA
BRANCH  20  22
ATOM     22  O   UNL     1       6.500   3.944  14.790  0.00  0.00    +0.000 OA
BRANCH  22  24
ATOM     23  C   UNL     1       6.240   3.496  12.457  0.00  0.00    +0.000 C 
ATOM     24  C   UNL     1       5.553   3.994  13.717  0.00  0.00    +0.000 C 
ENDBRANCH  22  24
ENDBRANCH  20  22
ENDBRANCH   1  20
TORSDOF 4
ENDMDL
MODEL 6
REMARK VINA RESULT:      -8.0      1.650      4.934
REMARK  Name = 
REMARK  5 active torsions:
REMARK  status: ('A' for Active; 'I' for Inactive)
REMARK    1  A    between atoms: C_1  and  C_2
REMARK    2  A    between atoms: C_2  and  O_3
REMARK    3  A    between atoms: O_3  and  C_4
REMARK    4  A    between atoms: C_4  and  C_6
REMARK    5  A    between atoms: C_8  and  C_9
REMARK                            x       y       z     vdW  Elec       q    Type
REMARK                         _______ _______ _______ _____ _____    ______ ____
ROOT
ATOM      1  C   UNL     1       5.199   5.575  16.532  0.00  0.00    +0.000 A 
ATOM      2  C   UNL     1       4.883   4.548  17.449  0.00  0.00    +0.000 A 
ATOM      3  C   UNL     1       3.839   5.016  18.230  0.00  0.00    +0.000 A 
ATOM      4  N   UNL     1       3.644   6.332  17.804  0.00  0.00    +0.000 N 
ATOM      5  C   UNL     1       2.840   7.351  18.395  0.00  0.00    +0.000 A 
ATOM      6  C   UNL     1       2.278   8.334  17.588  0.00  0.00    +0.000 A 
ATOM      7  C   UNL     1       1.373   9.226  18.162  0.00  0.00    +0.000 A 
ATOM      8  C   UNL     1       1.122   9.119  19.515  0.00  0.00    +0.000 A 
ATOM      9 CL   UNL     1      -0.007  10.131  20.306  0.00  0.00    +0.000 Cl
ATOM     10  N   UNL     1       1.715   8.194  20.293  0.00  0.00    +0.000 NA
ATOM     11  N   UNL     1       2.581   7.298  19.724  0.00  0.00    +0.000 NA
ATOM     12  N   UNL     1       4.342   6.602  16.666  0.00  0.00    +0.000 NA
ENDROOT
BRANCH   3  13
ATOM     13  C   UNL     1       3.067   4.294  19.255  0.00  0.00    +0.000 A 
ATOM     14  C   UNL     1       3.728   3.599  20.279  0.00  0.00    +0.000 A 
ATOM     15  C   UNL     1       3.008   2.899  21.253  0.00  0.00    +0.000 A 
ATOM     16  C   UNL     1       1.615   2.901  21.224  0.00  0.00    +0.000 A 
ATOM     17 CL   UNL     1       0.727   2.064  22.436  0.00  0.00    +0.000 Cl
ATOM     18  C   UNL     1       0.940   3.569  20.212  0.00  0.00    +0.000 A 
ATOM     19  C   UNL     1       1.664   4.229  19.217  0.00  0.00    +0.000 A 
ENDBRANCH   3  13
BRANCH   1  20
ATOM     20  C   UNL     1       6.320   5.577  15.581  0.00  0.00    +0.000 C 
ATOM     21  O   UNL     1       6.279   4.983  14.508  0.00  0.00    +0.000 OA
BRANCH  20  22
ATOM     22  O   UNL     1       7.423   6.206  16.080  0.00  0.00    +0.000 OA
BRANCH  22  24
ATOM     23  C   UNL     1       7.768   8.029  17.586  0.00  0.00    +0.000 C 
ATOM     24  C   UNL     1       7.363   6.570  17.464  0.00  0.00    +0.000 C 
ENDBRANCH  22  24
ENDBRANCH  20  22
ENDBRANCH   1  20
TORSDOF 4
ENDMDL
MODEL 7
REMARK VINA RESULT:      -8.0      1.378      4.468
REMARK  Name = 
REMARK  5 active torsions:
REMARK  status: ('A' for Active; 'I' for Inactive)
REMARK    1  A    between atoms: C_1  and  C_2
REMARK    2  A    between atoms: C_2  and  O_3
REMARK    3  A    between atoms: O_3  and  C_4
REMARK    4  A    between atoms: C_4  and  C_6
REMARK    5  A    between atoms: C_8  and  C_9
REMARK                            x       y       z     vdW  Elec       q    Type
REMARK                         _______ _______ _______ _____ _____    ______ ____
ROOT
ATOM      1  C   UNL     1       5.220   5.687  16.589  0.00  0.00    +0.000 A 
ATOM      2  C   UNL     1       4.906   4.651  17.496  0.00  0.00    +0.000 A 
ATOM      3  C   UNL     1       3.841   5.098  18.261  0.00  0.00    +0.000 A 
ATOM      4  N   UNL     1       3.631   6.412  17.836  0.00  0.00    +0.000 N 
ATOM      5  C   UNL     1       2.801   7.415  18.418  0.00  0.00    +0.000 A 
ATOM      6  C   UNL     1       2.236   8.392  17.605  0.00  0.00    +0.000 A 
ATOM      7  C   UNL     1       1.307   9.266  18.167  0.00  0.00    +0.000 A 
ATOM      8  C   UNL     1       1.034   9.150  19.515  0.00  0.00    +0.000 A 
ATOM      9 CL   UNL     1      -0.125  10.140  20.290  0.00  0.00    +0.000 Cl
ATOM     10  N   UNL     1       1.629   8.232  20.299  0.00  0.00    +0.000 NA
ATOM     11  N   UNL     1       2.520   7.353  19.742  0.00  0.00    +0.000 NA
ATOM     12  N   UNL     1       4.344   6.699  16.712  0.00  0.00    +0.000 NA
ENDROOT
BRANCH   3  13
ATOM     13  C   UNL     1       3.064   4.359  19.270  0.00  0.00    +0.000 A 
ATOM     14  C   UNL     1       1.683   4.172  19.101  0.00  0.00    +0.000 A 
ATOM     15  C   UNL     1       0.930   3.483  20.058  0.00  0.00    +0.000 A 
ATOM     16  C   UNL     1       1.553   2.955  21.187  0.00  0.00    +0.000 A 
ATOM     17 CL   UNL     1       0.634   2.084  22.350  0.00  0.00    +0.000 Cl
ATOM     18  C   UNL     1       2.915   3.141  21.382  0.00  0.00    +0.000 A 
ATOM     19  C   UNL     1       3.654   3.868  20.446  0.00  0.00    +0.000 A 
ENDBRANCH   3  13
BRANCH   1  20
ATOM     20  C   UNL     1       6.357   5.711  15.657  0.00  0.00    +0.000 C 
ATOM     21  O   UNL     1       7.457   6.161  15.966  0.00  0.00    +0.000 OA
BRANCH  20  22
ATOM     22  O   UNL     1       6.013   5.292  14.406  0.00  0.00    +0.000 OA
BRANCH  22  24
ATOM     23  C   UNL     1       5.736   3.584  12.758  0.00  0.00    +0.000 C 
ATOM     24  C   UNL     1       6.426   3.966  14.056  0.00  0.00    +0.000 C 
ENDBRANCH  22  24
ENDBRANCH  20  22
ENDBRANCH   1  20
TORSDOF 4
ENDMDL
MODEL 8
REMARK VINA RESULT:      -7.7      1.279      2.084
REMARK  Name = 
REMARK  5 active torsions:
REMARK  status: ('A' for Active; 'I' for Inactive)
REMARK    1  A    between atoms: C_1  and  C_2
REMARK    2  A    between atoms: C_2  and  O_3
REMARK    3  A    between atoms: O_3  and  C_4
REMARK    4  A    between atoms: C_4  and  C_6
REMARK    5  A    between atoms: C_8  and  C_9
REMARK                            x       y       z     vdW  Elec       q    Type
REMARK                         _______ _______ _______ _____ _____    ______ ____
ROOT
ATOM      1  C   UNL     1       5.265   5.781  16.991  0.00  0.00    +0.000 A 
ATOM      2  C   UNL     1       4.425   6.910  17.111  0.00  0.00    +0.000 A 
ATOM      3  C   UNL     1       3.536   6.640  18.139  0.00  0.00    +0.000 A 
ATOM      4  N   UNL     1       3.829   5.329  18.521  0.00  0.00    +0.000 N 
ATOM      5  C   UNL     1       3.096   4.469  19.391  0.00  0.00    +0.000 A 
ATOM      6  C   UNL     1       3.772   3.501  20.127  0.00  0.00    +0.000 A 
ATOM      7  C   UNL     1       3.061   2.779  21.083  0.00  0.00    +0.000 A 
ATOM      8  C   UNL     1       1.710   3.024  21.214  0.00  0.00    +0.000 A 
ATOM      9 CL   UNL     1       0.757   2.227  22.389  0.00  0.00    +0.000 Cl
ATOM     10  N   UNL     1       1.059   3.927  20.457  0.00  0.00    +0.000 NA
ATOM     11  N   UNL     1       1.763   4.660  19.537  0.00  0.00    +0.000 NA
ATOM     12  N   UNL     1       4.982   4.883  17.951  0.00  0.00    +0.000 NA
ENDROOT
BRANCH   3  13
ATOM     13  C   UNL     1       2.530   7.532  18.738  0.00  0.00    +0.000 A 
ATOM     14  C   UNL     1       1.868   8.484  17.946  0.00  0.00    +0.000 A 
ATOM     15  C   UNL     1       0.918   9.347  18.504  0.00  0.00    +0.000 A 
ATOM     16  C   UNL     1       0.606   9.255  19.859  0.00  0.00    +0.000 A 
ATOM     17 CL   UNL     1      -0.581  10.295  20.541  0.00  0.00    +0.000 Cl
ATOM     18  C   UNL     1       1.258   8.331  20.664  0.00  0.00    +0.000 A 
ATOM     19  C   UNL     1       2.238   7.503  20.111  0.00  0.00    +0.000 A 
ENDBRANCH   3  13
BRANCH   1  20
ATOM     20  C   UNL     1       6.286   5.563  15.956  0.00  0.00    +0.000 C 
ATOM     21  O   UNL     1       6.181   4.693  15.095  0.00  0.00    +0.000 OA
BRANCH  20  22
ATOM     22  O   UNL     1       7.387   6.347  16.138  0.00  0.00    +0.000 OA
BRANCH  22  24
ATOM     23  C   UNL     1       7.871   8.176  17.597  0.00  0.00    +0.000 C 
ATOM     24  C   UNL     1       7.706   6.670  17.497  0.00  0.00    +0.000 C 
ENDBRANCH  22  24
ENDBRANCH  20  22
ENDBRANCH   1  20
TORSDOF 4
ENDMDL
MODEL 9
REMARK VINA RESULT:      -7.3      2.951      4.226
REMARK  Name = 
REMARK  5 active torsions:
REMARK  status: ('A' for Active; 'I' for Inactive)
REMARK    1  A    between atoms: C_1  and  C_2
REMARK    2  A    between atoms: C_2  and  O_3
REMARK    3  A    between atoms: O_3  and  C_4
REMARK    4  A    between atoms: C_4  and  C_6
REMARK    5  A    between atoms: C_8  and  C_9
REMARK                            x       y       z     vdW  Elec       q    Type
REMARK                         _______ _______ _______ _____ _____    ______ ____
ROOT
ATOM      1  C   UNL     1       5.880   4.000  14.220  0.00  0.00    +0.000 A 
ATOM      2  C   UNL     1       6.720   5.059  14.633  0.00  0.00    +0.000 A 
ATOM      3  C   UNL     1       6.388   5.343  15.947  0.00  0.00    +0.000 A 
ATOM      4  N   UNL     1       5.306   4.505  16.226  0.00  0.00    +0.000 N 
ATOM      5  C   UNL     1       4.435   4.517  17.356  0.00  0.00    +0.000 A 
ATOM      6  C   UNL     1       3.850   3.330  17.782  0.00  0.00    +0.000 A 
ATOM      7  C   UNL     1       3.131   3.337  18.976  0.00  0.00    +0.000 A 
ATOM      8  C   UNL     1       2.992   4.535  19.647  0.00  0.00    +0.000 A 
ATOM      9 CL   UNL     1       2.171   4.641  21.143  0.00  0.00    +0.000 Cl
ATOM     10  N   UNL     1       3.521   5.686  19.193  0.00  0.00    +0.000 NA
ATOM     11  N   UNL     1       4.254   5.675  18.036  0.00  0.00    +0.000 NA
ATOM     12  N   UNL     1       5.121   3.577  15.246  0.00  0.00    +0.000 NA
ENDROOT
BRANCH   3  13
ATOM     13  C   UNL     1       7.040   6.283  16.874  0.00  0.00    +0.000 A 
ATOM     14  C   UNL     1       7.071   7.656  16.583  0.00  0.00    +0.000 A 
ATOM     15  C   UNL     1       7.697   8.560  17.449  0.00  0.00    +0.000 A 
ATOM     16  C   UNL     1       8.285   8.102  18.626  0.00  0.00    +0.000 A 
ATOM     17 CL   UNL     1       9.032   9.213  19.704  0.00  0.00    +0.000 Cl
ATOM     18  C   UNL     1       8.280   6.747  18.927  0.00  0.00    +0.000 A 
ATOM     19  C   UNL     1       7.692   5.844  18.038  0.00  0.00    +0.000 A 
ENDBRANCH   3  13
BRANCH   1  20
ATOM     20  C   UNL     1       5.790   3.440  12.864  0.00  0.00    +0.000 C 
ATOM     21  O   UNL     1       6.763   2.981  12.271  0.00  0.00    +0.000 OA
BRANCH  20  22
ATOM     22  O   UNL     1       4.551   3.599  12.317  0.00  0.00    +0.000 OA
BRANCH  22  24
ATOM     23  C   UNL     1       3.254   3.731  10.315  0.00  0.00    +0.000 C 
ATOM     24  C   UNL     1       4.341   2.966  11.049  0.00  0.00    +0.000 C 
ENDBRANCH  22  24
ENDBRANCH  20  22
ENDBRANCH   1  20
TORSDOF 4
ENDMDL
