MODEL 1
REMARK VINA RESULT:      -8.3      0.000      0.000
REMARK  Name = 
REMARK  4 active torsions:
REMARK  status: ('A' for Active; 'I' for Inactive)
REMARK    1  A    between atoms: C_2  and  C_12
REMARK    2  A    between atoms: N_3  and  C_4
REMARK    3  A    between atoms: C_4  and  C_5
REMARK    4  A    between atoms: C_5  and  C_6
REMARK                            x       y       z     vdW  Elec       q    Type
REMARK                         _______ _______ _______ _____ _____    ______ ____
ROOT
ATOM      1  C   UNL     1       6.677   4.379  17.027  0.00  0.00    +0.000 C 
ATOM      2  C   UNL     1       7.948   4.633  17.857  0.00  0.00    +0.000 C 
ATOM      3  C   UNL     1       7.908   5.931  18.677  0.00  0.00    +0.000 C 
ATOM      4  N   UNL     1       7.437   7.031  17.851  0.00  0.00    +0.000 N 
ATOM      5  C   UNL     1       7.826   8.308  18.054  0.00  0.00    +0.000 A 
ATOM      6  N   UNL     1       7.403   9.370  17.399  0.00  0.00    +0.000 NA
ATOM      7  C   UNL     1       8.206  10.376  17.841  0.00  0.00    +0.000 A 
ATOM      8  C   UNL     1       8.291  11.714  17.443  0.00  0.00    +0.000 A 
ATOM      9  C   UNL     1       9.267  12.519  18.041  0.00  0.00    +0.000 A 
ATOM     10  C   UNL     1      10.108  12.008  19.039  0.00  0.00    +0.000 A 
ATOM     11  C   UNL     1      10.016  10.676  19.468  0.00  0.00    +0.000 A 
ATOM     12  C   UNL     1       9.065   9.901  18.817  0.00  0.00    +0.000 A 
ATOM     13  O   UNL     1       8.814   8.567  18.970  0.00  0.00    +0.000 OA
ATOM     14  C   UNL     1       6.173   6.837  17.153  0.00  0.00    +0.000 C 
ATOM     15  C   UNL     1       6.318   5.635  16.225  0.00  0.00    +0.000 C 
ENDROOT
BRANCH   1  17
ATOM     16  O   UNL     1       5.400   4.115  19.078  0.00  0.00    +0.000 OA
ATOM     17  C   UNL     1       5.486   3.908  17.873  0.00  0.00    +0.000 C 
ATOM     18  N   UNL     1       4.501   3.283  17.153  0.00  0.00    +0.000 N 
ATOM     19  H   UNL     1       4.510   3.385  16.148  0.00  0.00    +0.000 HD
BRANCH  18  20
ATOM     20  C   UNL     1       3.290   2.813  17.801  0.00  0.00    +0.000 C 
BRANCH  20  21
ATOM     21  C   UNL     1       2.129   3.762  17.530  0.00  0.00    +0.000 C 
BRANCH  21  22
ATOM     22  C   UNL     1       2.109   4.950  18.454  0.00  0.00    +0.000 A 
ATOM     23  C   UNL     1       1.711   4.805  19.789  0.00  0.00    +0.000 A 
ATOM     24  C   UNL     1       1.709   5.908  20.646  0.00  0.00    +0.000 A 
ATOM     25  C   UNL     1       2.089   7.162  20.172  0.00  0.00    +0.000 A 
ATOM     26  C   UNL     1       2.474   7.317  18.843  0.00  0.00    +0.000 A 
ATOM     27  C   UNL     1       2.478   6.217  17.984  0.00  0.00    +0.000 A 
ENDBRANCH  21  22
ENDBRANCH  20  21
ENDBRANCH  18  20
ENDBRANCH   1  17
TORSDOF 4
ENDMDL
MODEL 2
REMARK VINA RESULT:      -8.0      1.698      1.959
REMARK  Name = 
REMARK  4 active torsions:
REMARK  status: ('A' for Active; 'I' for Inactive)
REMARK    1  A    between atoms: C_2  and  C_12
REMARK    2  A    between atoms: N_3  and  C_4
REMARK    3  A    between atoms: C_4  and  C_5
REMARK    4  A    between atoms: C_5  and  C_6
REMARK                            x       y       z     vdW  Elec       q    Type
REMARK                         _______ _______ _______ _____ _____    ______ ____
ROOT
ATOM      1  C   UNL     1       7.007   4.769  17.115  0.00  0.00    +0.000 C 
ATOM      2  C   UNL     1       8.030   4.962  18.249  0.00  0.00    +0.000 C 
ATOM      3  C   UNL     1       7.899   6.305  18.984  0.00  0.00    +0.000 C 
ATOM      4  N   UNL     1       7.774   7.391  18.025  0.00  0.00    +0.000 N 
ATOM      5  C   UNL     1       8.218   8.641  18.282  0.00  0.00    +0.000 A 
ATOM      6  N   UNL     1       8.089   9.694  17.502  0.00  0.00    +0.000 NA
ATOM      7  C   UNL     1       8.840  10.653  18.110  0.00  0.00    +0.000 A 
ATOM      8  C   UNL     1       9.157  11.954  17.705  0.00  0.00    +0.000 A 
ATOM      9  C   UNL     1      10.012  12.707  18.517  0.00  0.00    +0.000 A 
ATOM     10  C   UNL     1      10.504  12.185  19.722  0.00  0.00    +0.000 A 
ATOM     11  C   UNL     1      10.173  10.893  20.154  0.00  0.00    +0.000 A 
ATOM     12  C   UNL     1       9.358  10.165  19.297  0.00  0.00    +0.000 A 
ATOM     13  O   UNL     1       8.947   8.867  19.422  0.00  0.00    +0.000 OA
ATOM     14  C   UNL     1       6.729   7.264  17.018  0.00  0.00    +0.000 C 
ATOM     15  C   UNL     1       6.997   6.002  16.205  0.00  0.00    +0.000 C 
ENDROOT
BRANCH   1  17
ATOM     16  O   UNL     1       5.215   4.724  18.757  0.00  0.00    +0.000 OA
ATOM     17  C   UNL     1       5.594   4.451  17.624  0.00  0.00    +0.000 C 
ATOM     18  N   UNL     1       4.775   3.884  16.683  0.00  0.00    +0.000 N 
ATOM     19  H   UNL     1       5.058   3.935  15.714  0.00  0.00    +0.000 HD
BRANCH  18  20
ATOM     20  C   UNL     1       3.395   3.558  16.994  0.00  0.00    +0.000 C 
BRANCH  20  21
ATOM     21  C   UNL     1       3.318   2.301  17.852  0.00  0.00    +0.000 C 
BRANCH  21  22
ATOM     22  C   UNL     1       2.615   2.524  19.165  0.00  0.00    +0.000 A 
ATOM     23  C   UNL     1       3.298   2.345  20.375  0.00  0.00    +0.000 A 
ATOM     24  C   UNL     1       2.646   2.568  21.590  0.00  0.00    +0.000 A 
ATOM     25  C   UNL     1       1.307   2.955  21.604  0.00  0.00    +0.000 A 
ATOM     26  C   UNL     1       0.618   3.123  20.407  0.00  0.00    +0.000 A 
ATOM     27  C   UNL     1       1.267   2.902  19.191  0.00  0.00    +0.000 A 
ENDBRANCH  21  22
ENDBRANCH  20  21
ENDBRANCH  18  20
ENDBRANCH   1  17
TORSDOF 4
ENDMDL
MODEL 3
REMARK VINA RESULT:      -7.9      3.959      5.598
REMARK  Name = 
REMARK  4 active torsions:
REMARK  status: ('A' for Active; 'I' for Inactive)
REMARK    1  A    between atoms: C_2  and  C_12
REMARK    2  A    between atoms: N_3  and  C_4
REMARK    3  A    between atoms: C_4  and  C_5
REMARK    4  A    between atoms: C_5  and  C_6
REMARK                            x       y       z     vdW  Elec       q    Type
REMARK                         _______ _______ _______ _____ _____    ______ ____
ROOT
ATOM      1  C   UNL     1       5.433   5.595  17.697  0.00  0.00    +0.000 C 
ATOM      2  C   UNL     1       5.183   5.583  19.216  0.00  0.00    +0.000 C 
ATOM      3  C   UNL     1       3.720   5.841  19.609  0.00  0.00    +0.000 C 
ATOM      4  N   UNL     1       3.196   6.978  18.870  0.00  0.00    +0.000 N 
ATOM      5  C   UNL     1       2.236   7.787  19.368  0.00  0.00    +0.000 A 
ATOM      6  N   UNL     1       1.660   8.795  18.747  0.00  0.00    +0.000 NA
ATOM      7  C   UNL     1       0.905   9.392  19.710  0.00  0.00    +0.000 A 
ATOM      8  C   UNL     1       0.138  10.561  19.670  0.00  0.00    +0.000 A 
ATOM      9  C   UNL     1      -0.496  10.974  20.847  0.00  0.00    +0.000 A 
ATOM     10  C   UNL     1      -0.397  10.214  22.021  0.00  0.00    +0.000 A 
ATOM     11  C   UNL     1       0.345   9.026  22.069  0.00  0.00    +0.000 A 
ATOM     12  C   UNL     1       0.994   8.677  20.891  0.00  0.00    +0.000 A 
ATOM     13  O   UNL     1       1.842   7.628  20.673  0.00  0.00    +0.000 OA
ATOM     14  C   UNL     1       3.329   6.940  17.420  0.00  0.00    +0.000 C 
ATOM     15  C   UNL     1       4.813   6.852  17.077  0.00  0.00    +0.000 C 
ENDROOT
BRANCH   1  17
ATOM     16  O   UNL     1       4.820   4.242  15.773  0.00  0.00    +0.000 OA
ATOM     17  C   UNL     1       4.931   4.329  16.991  0.00  0.00    +0.000 C 
ATOM     18  N   UNL     1       4.667   3.284  17.837  0.00  0.00    +0.000 N 
ATOM     19  H   UNL     1       5.029   3.332  18.780  0.00  0.00    +0.000 HD
BRANCH  18  20
ATOM     20  C   UNL     1       4.220   2.002  17.323  0.00  0.00    +0.000 C 
BRANCH  20  21
ATOM     21  C   UNL     1       3.494   1.210  18.403  0.00  0.00    +0.000 C 
BRANCH  21  22
ATOM     22  C   UNL     1       2.657   2.074  19.308  0.00  0.00    +0.000 A 
ATOM     23  C   UNL     1       3.046   2.298  20.634  0.00  0.00    +0.000 A 
ATOM     24  C   UNL     1       2.273   3.114  21.466  0.00  0.00    +0.000 A 
ATOM     25  C   UNL     1       1.103   3.696  20.982  0.00  0.00    +0.000 A 
ATOM     26  C   UNL     1       0.703   3.468  19.668  0.00  0.00    +0.000 A 
ATOM     27  C   UNL     1       1.473   2.654  18.835  0.00  0.00    +0.000 A 
ENDBRANCH  21  22
ENDBRANCH  20  21
ENDBRANCH  18  20
ENDBRANCH   1  17
TORSDOF 4
ENDMDL
MODEL 4
REMARK VINA RESULT:      -7.8      3.467      6.928
REMARK  Name = 
REMARK  4 active torsions:
REMARK  status: ('A' for Active; 'I' for Inactive)
REMARK    1  A    between atoms: C_2  and  C_12
REMARK    2  A    between atoms: N_3  and  C_4
REMARK    3  A    between atoms: C_4  and  C_5
REMARK    4  A    between atoms: C_5  and  C_6
REMARK                            x       y       z     vdW  Elec       q    Type
REMARK                         _______ _______ _______ _____ _____    ______ ____
ROOT
ATOM      1  C   UNL     1       2.890   4.414  18.968  0.00  0.00    +0.000 C 
ATOM      2  C   UNL     1       2.605   5.648  18.091  0.00  0.00    +0.000 C 
ATOM      3  C   UNL     1       2.711   6.983  18.843  0.00  0.00    +0.000 C 
ATOM      4  N   UNL     1       2.001   6.904  20.108  0.00  0.00    +0.000 N 
ATOM      5  C   UNL     1       1.422   7.980  20.685  0.00  0.00    +0.000 A 
ATOM      6  N   UNL     1       0.816   8.012  21.854  0.00  0.00    +0.000 NA
ATOM      7  C   UNL     1       0.258   9.253  21.905  0.00  0.00    +0.000 A 
ATOM      8  C   UNL     1      -0.580   9.834  22.862  0.00  0.00    +0.000 A 
ATOM      9  C   UNL     1      -1.058  11.127  22.622  0.00  0.00    +0.000 A 
ATOM     10  C   UNL     1      -0.675  11.833  21.472  0.00  0.00    +0.000 A 
ATOM     11  C   UNL     1       0.186  11.274  20.518  0.00  0.00    +0.000 A 
ATOM     12  C   UNL     1       0.601   9.973  20.775  0.00  0.00    +0.000 A 
ATOM     13  O   UNL     1       1.366   9.160  19.986  0.00  0.00    +0.000 OA
ATOM     14  C   UNL     1       2.350   5.800  20.993  0.00  0.00    +0.000 C 
ATOM     15  C   UNL     1       2.070   4.492  20.260  0.00  0.00    +0.000 C 
ENDROOT
BRANCH   1  17
ATOM     16  O   UNL     1       4.887   3.123  19.475  0.00  0.00    +0.000 OA
ATOM     17  C   UNL     1       4.382   4.222  19.275  0.00  0.00    +0.000 C 
ATOM     18  N   UNL     1       5.111   5.382  19.252  0.00  0.00    +0.000 N 
ATOM     19  H   UNL     1       4.695   6.197  18.823  0.00  0.00    +0.000 HD
BRANCH  18  20
ATOM     20  C   UNL     1       6.545   5.366  19.484  0.00  0.00    +0.000 C 
BRANCH  20  21
ATOM     21  C   UNL     1       7.290   5.973  18.303  0.00  0.00    +0.000 C 
BRANCH  21  22
ATOM     22  C   UNL     1       6.711   5.575  16.971  0.00  0.00    +0.000 A 
ATOM     23  C   UNL     1       5.776   6.395  16.329  0.00  0.00    +0.000 A 
ATOM     24  C   UNL     1       5.254   6.028  15.086  0.00  0.00    +0.000 A 
ATOM     25  C   UNL     1       5.651   4.835  14.486  0.00  0.00    +0.000 A 
ATOM     26  C   UNL     1       6.571   4.007  15.123  0.00  0.00    +0.000 A 
ATOM     27  C   UNL     1       7.095   4.371  16.365  0.00  0.00    +0.000 A 
ENDBRANCH  21  22
ENDBRANCH  20  21
ENDBRANCH  18  20
ENDBRANCH   1  17
TORSDOF 4
ENDMDL
MODEL 5
REMARK VINA RESULT:      -7.8      3.899      7.152
REMARK  Name = 
REMARK  4 active torsions:
REMARK  status: ('A' for Active; 'I' for Inactive)
REMARK    1  A    between atoms: C_2  and  C_12
REMARK    2  A    between atoms: N_3  and  C_4
REMARK    3  A    between atoms: C_4  and  C_5
REMARK    4  A    between atoms: C_5  and  C_6
REMARK                            x       y       z     vdW  Elec       q    Type
REMARK                         _______ _______ _______ _____ _____    ______ ____
ROOT
ATOM      1  C   UNL     1       2.938   4.032  18.592  0.00  0.00    +0.000 C 
ATOM      2  C   UNL     1       2.328   5.135  17.707  0.00  0.00    +0.000 C 
ATOM      3  C   UNL     1       2.505   6.554  18.269  0.00  0.00    +0.000 C 
ATOM      4  N   UNL     1       2.156   6.581  19.679  0.00  0.00    +0.000 N 
ATOM      5  C   UNL     1       1.652   7.681  20.281  0.00  0.00    +0.000 A 
ATOM      6  N   UNL     1       1.369   7.815  21.560  0.00  0.00    +0.000 NA
ATOM      7  C   UNL     1       0.735   9.017  21.637  0.00  0.00    +0.000 A 
ATOM      8  C   UNL     1       0.125   9.656  22.722  0.00  0.00    +0.000 A 
ATOM      9  C   UNL     1      -0.512  10.881  22.492  0.00  0.00    +0.000 A 
ATOM     10  C   UNL     1      -0.502  11.468  21.219  0.00  0.00    +0.000 A 
ATOM     11  C   UNL     1       0.129  10.853  20.129  0.00  0.00    +0.000 A 
ATOM     12  C   UNL     1       0.709   9.618  20.391  0.00  0.00    +0.000 A 
ATOM     13  O   UNL     1       1.314   8.765  19.511  0.00  0.00    +0.000 OA
ATOM     14  C   UNL     1       2.819   5.612  20.542  0.00  0.00    +0.000 C 
ATOM     15  C   UNL     1       2.476   4.212  20.042  0.00  0.00    +0.000 C 
ENDROOT
BRANCH   1  17
ATOM     16  O   UNL     1       5.164   3.447  19.372  0.00  0.00    +0.000 OA
ATOM     17  C   UNL     1       4.469   3.967  18.507  0.00  0.00    +0.000 C 
ATOM     18  N   UNL     1       4.988   4.494  17.354  0.00  0.00    +0.000 N 
ATOM     19  H   UNL     1       4.359   4.656  16.580  0.00  0.00    +0.000 HD
BRANCH  18  20
ATOM     20  C   UNL     1       6.418   4.474  17.103  0.00  0.00    +0.000 C 
BRANCH  20  21
ATOM     21  C   UNL     1       6.795   5.503  16.044  0.00  0.00    +0.000 C 
BRANCH  21  22
ATOM     22  C   UNL     1       6.799   4.940  14.648  0.00  0.00    +0.000 A 
ATOM     23  C   UNL     1       5.900   3.929  14.287  0.00  0.00    +0.000 A 
ATOM     24  C   UNL     1       5.898   3.421  12.985  0.00  0.00    +0.000 A 
ATOM     25  C   UNL     1       6.803   3.909  12.044  0.00  0.00    +0.000 A 
ATOM     26  C   UNL     1       7.708   4.904  12.398  0.00  0.00    +0.000 A 
ATOM     27  C   UNL     1       7.712   5.414  13.698  0.00  0.00    +0.000 A 
ENDBRANCH  21  22
ENDBRANCH  20  21
ENDBRANCH  18  20
ENDBRANCH   1  17
TORSDOF 4
ENDMDL
MODEL 6
REMARK VINA RESULT:      -7.7      4.035      6.008
REMARK  Name = 
REMARK  4 active torsions:
REMARK  status: ('A' for Active; 'I' for Inactive)
REMARK    1  A    between atoms: C_2  and  C_12
REMARK    2  A    between atoms: N_3  and  C_4
REMARK    3  A    between atoms: C_4  and  C_5
REMARK    4  A    between atoms: C_5  and  C_6
REMARK                            x       y       z     vdW  Elec       q    Type
REMARK                         _______ _______ _______ _____ _____    ______ ____
ROOT
ATOM      1  C   UNL     1       4.870   5.980  17.867  0.00  0.00    +0.000 C 
ATOM      2  C   UNL     1       4.594   5.749  19.364  0.00  0.00    +0.000 C 
ATOM      3  C   UNL     1       3.143   6.034  19.781  0.00  0.00    +0.000 C 
ATOM      4  N   UNL     1       2.701   7.302  19.223  0.00  0.00    +0.000 N 
ATOM      5  C   UNL     1       1.783   8.082  19.833  0.00  0.00    +0.000 A 
ATOM      6  N   UNL     1       1.280   9.208  19.372  0.00  0.00    +0.000 NA
ATOM      7  C   UNL     1       0.546   9.696  20.409  0.00  0.00    +0.000 A 
ATOM      8  C   UNL     1      -0.149  10.902  20.545  0.00  0.00    +0.000 A 
ATOM      9  C   UNL     1      -0.776  11.167  21.768  0.00  0.00    +0.000 A 
ATOM     10  C   UNL     1      -0.742  10.231  22.811  0.00  0.00    +0.000 A 
ATOM     11  C   UNL     1      -0.074   9.007  22.680  0.00  0.00    +0.000 A 
ATOM     12  C   UNL     1       0.572   8.804  21.467  0.00  0.00    +0.000 A 
ATOM     13  O   UNL     1       1.360   7.750  21.096  0.00  0.00    +0.000 OA
ATOM     14  C   UNL     1       2.855   7.479  17.785  0.00  0.00    +0.000 C 
ATOM     15  C   UNL     1       4.336   7.353  17.443  0.00  0.00    +0.000 C 
ENDROOT
BRANCH   1  17
ATOM     16  O   UNL     1       4.847   4.507  15.933  0.00  0.00    +0.000 OA
ATOM     17  C   UNL     1       4.304   4.870  16.970  0.00  0.00    +0.000 C 
ATOM     18  N   UNL     1       3.165   4.284  17.457  0.00  0.00    +0.000 N 
ATOM     19  H   UNL     1       2.928   4.441  18.427  0.00  0.00    +0.000 HD
BRANCH  18  20
ATOM     20  C   UNL     1       2.526   3.191  16.746  0.00  0.00    +0.000 C 
BRANCH  20  21
ATOM     21  C   UNL     1       2.378   1.973  17.648  0.00  0.00    +0.000 C 
BRANCH  21  22
ATOM     22  C   UNL     1       2.245   2.329  19.105  0.00  0.00    +0.000 A 
ATOM     23  C   UNL     1       1.028   2.797  19.614  0.00  0.00    +0.000 A 
ATOM     24  C   UNL     1       0.906   3.112  20.970  0.00  0.00    +0.000 A 
ATOM     25  C   UNL     1       2.001   2.974  21.820  0.00  0.00    +0.000 A 
ATOM     26  C   UNL     1       3.218   2.521  21.320  0.00  0.00    +0.000 A 
ATOM     27  C   UNL     1       3.343   2.205  19.966  0.00  0.00    +0.000 A 
ENDBRANCH  21  22
ENDBRANCH  20  21
ENDBRANCH  18  20
ENDBRANCH   1  17
TORSDOF 4
ENDMDL
MODEL 7
REMARK VINA RESULT:      -7.6      1.082      1.567
REMARK  Name = 
REMARK  4 active torsions:
REMARK  status: ('A' for Active; 'I' for Inactive)
REMARK    1  A    between atoms: C_2  and  C_12
REMARK    2  A    between atoms: N_3  and  C_4
REMARK    3  A    between atoms: C_4  and  C_5
REMARK    4  A    between atoms: C_5  and  C_6
REMARK                            x       y       z     vdW  Elec       q    Type
REMARK                         _______ _______ _______ _____ _____    ______ ____
ROOT
ATOM      1  C   UNL     1       6.769   4.782  17.265  0.00  0.00    +0.000 C 
ATOM      2  C   UNL     1       7.977   4.968  18.201  0.00  0.00    +0.000 C 
ATOM      3  C   UNL     1       7.967   6.294  18.975  0.00  0.00    +0.000 C 
ATOM      4  N   UNL     1       7.661   7.396  18.078  0.00  0.00    +0.000 N 
ATOM      5  C   UNL     1       8.131   8.647  18.277  0.00  0.00    +0.000 A 
ATOM      6  N   UNL     1       7.854   9.713  17.555  0.00  0.00    +0.000 NA
ATOM      7  C   UNL     1       8.692  10.670  18.039  0.00  0.00    +0.000 A 
ATOM      8  C   UNL     1       8.919  11.982  17.612  0.00  0.00    +0.000 A 
ATOM      9  C   UNL     1       9.898  12.731  18.273  0.00  0.00    +0.000 A 
ATOM     10  C   UNL     1      10.603  12.194  19.359  0.00  0.00    +0.000 A 
ATOM     11  C   UNL     1      10.368  10.890  19.816  0.00  0.00    +0.000 A 
ATOM     12  C   UNL     1       9.420  10.167  19.103  0.00  0.00    +0.000 A 
ATOM     13  O   UNL     1       9.051   8.862  19.272  0.00  0.00    +0.000 OA
ATOM     14  C   UNL     1       6.453   7.274  17.272  0.00  0.00    +0.000 C 
ATOM     15  C   UNL     1       6.584   6.031  16.397  0.00  0.00    +0.000 C 
ENDROOT
BRANCH   1  17
ATOM     16  O   UNL     1       5.426   3.614  18.920  0.00  0.00    +0.000 OA
ATOM     17  C   UNL     1       5.474   4.435  18.011  0.00  0.00    +0.000 C 
ATOM     18  N   UNL     1       4.385   5.164  17.610  0.00  0.00    +0.000 N 
ATOM     19  H   UNL     1       4.547   5.996  17.059  0.00  0.00    +0.000 HD
BRANCH  18  20
ATOM     20  C   UNL     1       3.091   4.983  18.244  0.00  0.00    +0.000 C 
BRANCH  20  21
ATOM     21  C   UNL     1       2.993   5.814  19.517  0.00  0.00    +0.000 C 
BRANCH  21  22
ATOM     22  C   UNL     1       2.346   7.155  19.299  0.00  0.00    +0.000 A 
ATOM     23  C   UNL     1       1.711   7.818  20.356  0.00  0.00    +0.000 A 
ATOM     24  C   UNL     1       1.125   9.070  20.152  0.00  0.00    +0.000 A 
ATOM     25  C   UNL     1       1.158   9.659  18.889  0.00  0.00    +0.000 A 
ATOM     26  C   UNL     1       1.777   9.001  17.830  0.00  0.00    +0.000 A 
ATOM     27  C   UNL     1       2.363   7.751  18.031  0.00  0.00    +0.000 A 
ENDBRANCH  21  22
ENDBRANCH  20  21
ENDBRANCH  18  20
ENDBRANCH   1  17
TORSDOF 4
ENDMDL
MODEL 8
REMARK VINA RESULT:      -7.5      2.881      6.630
REMARK  Name = 
REMARK  4 active torsions:
REMARK  status: ('A' for Active; 'I' for Inactive)
REMARK    1  A    between atoms: C_2  and  C_12
REMARK    2  A    between atoms: N_3  and  C_4
REMARK    3  A    between atoms: C_4  and  C_5
REMARK    4  A    between atoms: C_5  and  C_6
REMARK                            x       y       z     vdW  Elec       q    Type
REMARK                         _______ _______ _______ _____ _____    ______ ____
ROOT
ATOM      1  C   UNL     1       2.543   3.624  18.404  0.00  0.00    +0.000 C 
ATOM      2  C   UNL     1       1.903   4.748  17.569  0.00  0.00    +0.000 C 
ATOM      3  C   UNL     1       2.213   6.161  18.086  0.00  0.00    +0.000 C 
ATOM      4  N   UNL     1       2.016   6.224  19.524  0.00  0.00    +0.000 N 
ATOM      5  C   UNL     1       1.637   7.356  20.157  0.00  0.00    +0.000 A 
ATOM      6  N   UNL     1       1.497   7.519  21.456  0.00  0.00    +0.000 NA
ATOM      7  C   UNL     1       0.939   8.755  21.578  0.00  0.00    +0.000 A 
ATOM      8  C   UNL     1       0.480   9.438  22.709  0.00  0.00    +0.000 A 
ATOM      9  C   UNL     1      -0.111  10.693  22.526  0.00  0.00    +0.000 A 
ATOM     10  C   UNL     1      -0.204  11.265  21.249  0.00  0.00    +0.000 A 
ATOM     11  C   UNL     1       0.276  10.604  20.110  0.00  0.00    +0.000 A 
ATOM     12  C   UNL     1       0.815   9.343  20.332  0.00  0.00    +0.000 A 
ATOM     13  O   UNL     1       1.278   8.448  19.408  0.00  0.00    +0.000 OA
ATOM     14  C   UNL     1       2.713   5.229  20.329  0.00  0.00    +0.000 C 
ATOM     15  C   UNL     1       2.246   3.845  19.891  0.00  0.00    +0.000 C 
ENDROOT
BRANCH   1  17
ATOM     16  O   UNL     1       4.842   3.162  19.045  0.00  0.00    +0.000 OA
ATOM     17  C   UNL     1       4.051   3.475  18.162  0.00  0.00    +0.000 C 
ATOM     18  N   UNL     1       4.430   3.668  16.860  0.00  0.00    +0.000 N 
ATOM     19  H   UNL     1       3.712   3.655  16.149  0.00  0.00    +0.000 HD
BRANCH  18  20
ATOM     20  C   UNL     1       5.819   3.525  16.458  0.00  0.00    +0.000 C 
BRANCH  20  21
ATOM     21  C   UNL     1       6.350   4.830  15.880  0.00  0.00    +0.000 C 
BRANCH  21  22
ATOM     22  C   UNL     1       7.016   5.705  16.908  0.00  0.00    +0.000 A 
ATOM     23  C   UNL     1       7.169   7.078  16.681  0.00  0.00    +0.000 A 
ATOM     24  C   UNL     1       7.774   7.888  17.646  0.00  0.00    +0.000 A 
ATOM     25  C   UNL     1       8.241   7.330  18.834  0.00  0.00    +0.000 A 
ATOM     26  C   UNL     1       8.104   5.963  19.062  0.00  0.00    +0.000 A 
ATOM     27  C   UNL     1       7.500   5.152  18.101  0.00  0.00    +0.000 A 
ENDBRANCH  21  22
ENDBRANCH  20  21
ENDBRANCH  18  20
ENDBRANCH   1  17
TORSDOF 4
ENDMDL
MODEL 9
REMARK VINA RESULT:      -7.4      4.346      6.075
REMARK  Name = 
REMARK  4 active torsions:
REMARK  status: ('A' for Active; 'I' for Inactive)
REMARK    1  A    between atoms: C_2  and  C_12
REMARK    2  A    between atoms: N_3  and  C_4
REMARK    3  A    between atoms: C_4  and  C_5
REMARK    4  A    between atoms: C_5  and  C_6
REMARK                            x       y       z     vdW  Elec       q    Type
REMARK                         _______ _______ _______ _____ _____    ______ ____
ROOT
ATOM      1  C   UNL     1       3.506   3.601  19.730  0.00  0.00    +0.000 C 
ATOM      2  C   UNL     1       4.793   4.434  19.590  0.00  0.00    +0.000 C 
ATOM      3  C   UNL     1       4.925   5.153  18.239  0.00  0.00    +0.000 C 
ATOM      4  N   UNL     1       4.617   4.239  17.151  0.00  0.00    +0.000 N 
ATOM      5  C   UNL     1       5.177   4.352  15.927  0.00  0.00    +0.000 A 
ATOM      6  N   UNL     1       4.910   3.611  14.872  0.00  0.00    +0.000 NA
ATOM      7  C   UNL     1       5.840   3.992  13.954  0.00  0.00    +0.000 A 
ATOM      8  C   UNL     1       6.112   3.496  12.674  0.00  0.00    +0.000 A 
ATOM      9  C   UNL     1       7.184   4.050  11.967  0.00  0.00    +0.000 A 
ATOM     10  C   UNL     1       7.939   5.099  12.511  0.00  0.00    +0.000 A 
ATOM     11  C   UNL     1       7.662   5.624  13.780  0.00  0.00    +0.000 A 
ATOM     12  C   UNL     1       6.617   5.016  14.465  0.00  0.00    +0.000 A 
ATOM     13  O   UNL     1       6.184   5.264  15.737  0.00  0.00    +0.000 OA
ATOM     14  C   UNL     1       3.344   3.533  17.224  0.00  0.00    +0.000 C 
ATOM     15  C   UNL     1       3.329   2.701  18.502  0.00  0.00    +0.000 C 
ENDROOT
BRANCH   1  17
ATOM     16  O   UNL     1       1.123   4.080  19.686  0.00  0.00    +0.000 OA
ATOM     17  C   UNL     1       2.255   4.458  19.967  0.00  0.00    +0.000 C 
ATOM     18  N   UNL     1       2.508   5.662  20.570  0.00  0.00    +0.000 N 
ATOM     19  H   UNL     1       3.407   5.793  21.012  0.00  0.00    +0.000 HD
BRANCH  18  20
ATOM     20  C   UNL     1       1.426   6.574  20.898  0.00  0.00    +0.000 C 
BRANCH  20  21
ATOM     21  C   UNL     1       1.731   7.978  20.392  0.00  0.00    +0.000 C 
BRANCH  21  22
ATOM     22  C   UNL     1       0.850   9.032  21.007  0.00  0.00    +0.000 A 
ATOM     23  C   UNL     1       0.301  10.049  20.216  0.00  0.00    +0.000 A 
ATOM     24  C   UNL     1      -0.528  11.017  20.790  0.00  0.00    +0.000 A 
ATOM     25  C   UNL     1      -0.801  10.982  22.156  0.00  0.00    +0.000 A 
ATOM     26  C   UNL     1      -0.249   9.983  22.951  0.00  0.00    +0.000 A 
ATOM     27  C   UNL     1       0.580   9.014  22.382  0.00  0.00    +0.000 A 
ENDBRANCH  21  22
ENDBRANCH  20  21
ENDBRANCH  18  20
ENDBRANCH   1  17
TORSDOF 4
ENDMDL
