MODEL 1
REMARK VINA RESULT:      -7.1      0.000      0.000
REMARK  Name = 
REMARK  15 active torsions:
REMARK  status: ('A' for Active; 'I' for Inactive)
REMARK    1  A    between atoms: C_1  and  C_2
REMARK    2  A    between atoms: C_4  and  C_5
REMARK    3  A    between atoms: C_5  and  N_6
REMARK    4  A    between atoms: N_6  and  C_7
REMARK    5  A    between atoms: N_6  and  C_8
REMARK    6  A    between atoms: C_8  and  C_9
REMARK    7  A    between atoms: C_12  and  O_13
REMARK    8  A    between atoms: O_13  and  C_14
REMARK    9  A    between atoms: C_14  and  C_15
REMARK   10  A    between atoms: C_15  and  O_16
REMARK   11  A    between atoms: C_15  and  C_17
REMARK   12  A    between atoms: C_17  and  N_18
REMARK   13  A    between atoms: N_18  and  C_19
REMARK   14  A    between atoms: N_18  and  C_20
REMARK   15  A    between atoms: C_20  and  C_21
REMARK                            x       y       z     vdW  Elec       q    Type
REMARK                         _______ _______ _______ _____ _____    ______ ____
ROOT
ATOM      1  C   UNL     1       2.375   6.863  19.557  0.00  0.00    +0.000 A 
ATOM      2  C   UNL     1       2.419   7.613  18.377  0.00  0.00    +0.000 A 
ATOM      3  C   UNL     1       1.849   8.879  18.320  0.00  0.00    +0.000 A 
ATOM      4  C   UNL     1       1.223   9.418  19.444  0.00  0.00    +0.000 A 
ATOM      5  C   UNL     1       1.110   8.647  20.603  0.00  0.00    +0.000 A 
ATOM      6  C   UNL     1       1.678   7.371  20.662  0.00  0.00    +0.000 A 
ENDROOT
BRANCH   1   7
ATOM      7  C   UNL     1       3.173   5.583  19.651  0.00  0.00    +0.000 C 
BRANCH   7   8
ATOM      8  N   UNL     1       3.024   4.758  18.438  0.00  0.00    +0.000 NA
ATOM      9  C   UNL     1       2.005   3.727  18.661  0.00  0.00    +0.000 C 
BRANCH   8  10
ATOM     10  C   UNL     1       4.311   4.158  18.022  0.00  0.00    +0.000 C 
BRANCH  10  14
ATOM     11  C   UNL     1       7.769   7.863  17.583  0.00  0.00    +0.000 C 
ATOM     12  C   UNL     1       6.736   6.830  17.366  0.00  0.00    +0.000 A 
ATOM     13  C   UNL     1       6.401   5.742  18.200  0.00  0.00    +0.000 A 
ATOM     14  C   UNL     1       5.285   5.201  17.609  0.00  0.00    +0.000 A 
ATOM     15  O   UNL     1       5.025   5.859  16.450  0.00  0.00    +0.000 OA
ATOM     16  N   UNL     1       5.940   6.886  16.292  0.00  0.00    +0.000 NA
ENDBRANCH  10  14
ENDBRANCH   8  10
ENDBRANCH   7   8
ENDBRANCH   1   7
BRANCH   4  17
ATOM     17  O   UNL     1       0.714  10.689  19.521  0.00  0.00    +0.000 OA
BRANCH  17  18
ATOM     18  C   UNL     1      -0.481  10.920  18.756  0.00  0.00    +0.000 C 
BRANCH  18  19
ATOM     19  C   UNL     1      -0.630  12.419  18.484  0.00  0.00    +0.000 C 
BRANCH  19  20
ATOM     20  O   UNL     1      -1.436  12.554  17.306  0.00  0.00    +0.000 OA
ATOM     21  H   UNL     1      -2.235  13.045  17.580  0.00  0.00    +0.000 HD
ENDBRANCH  19  20
BRANCH  19  22
ATOM     22  C   UNL     1      -1.242  13.148  19.707  0.00  0.00    +0.000 C 
BRANCH  22  23
ATOM     23  N   UNL     1      -2.310  12.407  20.423  0.00  0.00    +0.000 NA
ATOM     24  C   UNL     1      -1.939  12.175  21.826  0.00  0.00    +0.000 C 
BRANCH  23  25
ATOM     25  C   UNL     1      -3.579  13.156  20.321  0.00  0.00    +0.000 C 
BRANCH  25  26
ATOM     26  C   UNL     1      -4.725  12.349  19.744  0.00  0.00    +0.000 A 
ATOM     27  C   UNL     1      -5.872  12.101  20.514  0.00  0.00    +0.000 A 
ATOM     28  C   UNL     1      -6.914  11.328  20.002  0.00  0.00    +0.000 A 
ATOM     29  C   UNL     1      -6.822  10.795  18.718  0.00  0.00    +0.000 A 
ATOM     30  C   UNL     1      -5.688  11.034  17.943  0.00  0.00    +0.000 A 
ATOM     31  C   UNL     1      -4.645  11.810  18.452  0.00  0.00    +0.000 A 
ENDBRANCH  25  26
ENDBRANCH  23  25
ENDBRANCH  22  23
ENDBRANCH  19  22
ENDBRANCH  18  19
ENDBRANCH  17  18
ENDBRANCH   4  17
TORSDOF 12
ENDMDL
MODEL 2
REMARK VINA RESULT:      -7.1      2.438      3.719
REMARK  Name = 
REMARK  15 active torsions:
REMARK  status: ('A' for Active; 'I' for Inactive)
REMARK    1  A    between atoms: C_1  and  C_2
REMARK    2  A    between atoms: C_4  and  C_5
REMARK    3  A    between atoms: C_5  and  N_6
REMARK    4  A    between atoms: N_6  and  C_7
REMARK    5  A    between atoms: N_6  and  C_8
REMARK    6  A    between atoms: C_8  and  C_9
REMARK    7  A    between atoms: C_12  and  O_13
REMARK    8  A    between atoms: O_13  and  C_14
REMARK    9  A    between atoms: C_14  and  C_15
REMARK   10  A    between atoms: C_15  and  O_16
REMARK   11  A    between atoms: C_15  and  C_17
REMARK   12  A    between atoms: C_17  and  N_18
REMARK   13  A    between atoms: N_18  and  C_19
REMARK   14  A    between atoms: N_18  and  C_20
REMARK   15  A    between atoms: C_20  and  C_21
REMARK                            x       y       z     vdW  Elec       q    Type
REMARK                         _______ _______ _______ _____ _____    ______ ____
ROOT
ATOM      1  C   UNL     1       3.876   6.378  17.793  0.00  0.00    +0.000 A 
ATOM      2  C   UNL     1       3.335   7.615  17.426  0.00  0.00    +0.000 A 
ATOM      3  C   UNL     1       2.466   8.288  18.277  0.00  0.00    +0.000 A 
ATOM      4  C   UNL     1       2.122   7.735  19.510  0.00  0.00    +0.000 A 
ATOM      5  C   UNL     1       2.600   6.468  19.851  0.00  0.00    +0.000 A 
ATOM      6  C   UNL     1       3.470   5.785  18.995  0.00  0.00    +0.000 A 
ENDROOT
BRANCH   1   7
ATOM      7  C   UNL     1       4.968   5.767  16.944  0.00  0.00    +0.000 C 
BRANCH   7   8
ATOM      8  N   UNL     1       6.245   5.684  17.676  0.00  0.00    +0.000 NA
ATOM      9  C   UNL     1       6.853   7.015  17.766  0.00  0.00    +0.000 C 
BRANCH   8  10
ATOM     10  C   UNL     1       7.172   4.713  17.051  0.00  0.00    +0.000 C 
BRANCH  10  14
ATOM     11  C   UNL     1       6.218   3.376  12.236  0.00  0.00    +0.000 C 
ATOM     12  C   UNL     1       6.578   4.070  13.490  0.00  0.00    +0.000 A 
ATOM     13  C   UNL     1       6.208   3.735  14.809  0.00  0.00    +0.000 A 
ATOM     14  C   UNL     1       6.933   4.603  15.588  0.00  0.00    +0.000 A 
ATOM     15  O   UNL     1       7.618   5.462  14.789  0.00  0.00    +0.000 OA
ATOM     16  N   UNL     1       7.395   5.129  13.464  0.00  0.00    +0.000 NA
ENDBRANCH  10  14
ENDBRANCH   8  10
ENDBRANCH   7   8
ENDBRANCH   1   7
BRANCH   4  17
ATOM     17  O   UNL     1       1.351   8.357  20.458  0.00  0.00    +0.000 OA
BRANCH  17  18
ATOM     18  C   UNL     1       1.175   9.772  20.273  0.00  0.00    +0.000 C 
BRANCH  18  19
ATOM     19  C   UNL     1       0.061  10.270  21.198  0.00  0.00    +0.000 C 
BRANCH  19  20
ATOM     20  O   UNL     1       0.536  10.129  22.543  0.00  0.00    +0.000 OA
ATOM     21  H   UNL     1       0.691  11.035  22.872  0.00  0.00    +0.000 HD
ENDBRANCH  19  20
BRANCH  19  22
ATOM     22  C   UNL     1      -0.331  11.732  20.859  0.00  0.00    +0.000 C 
BRANCH  22  23
ATOM     23  N   UNL     1      -1.194  11.900  19.664  0.00  0.00    +0.000 NA
ATOM     24  C   UNL     1      -0.505  12.674  18.622  0.00  0.00    +0.000 C 
BRANCH  23  25
ATOM     25  C   UNL     1      -1.602  10.571  19.163  0.00  0.00    +0.000 C 
BRANCH  25  26
ATOM     26  C   UNL     1      -2.439  10.620  17.901  0.00  0.00    +0.000 A 
ATOM     27  C   UNL     1      -2.038   9.910  16.759  0.00  0.00    +0.000 A 
ATOM     28  C   UNL     1      -2.784   9.981  15.583  0.00  0.00    +0.000 A 
ATOM     29  C   UNL     1      -3.939  10.760  15.534  0.00  0.00    +0.000 A 
ATOM     30  C   UNL     1      -4.348  11.471  16.662  0.00  0.00    +0.000 A 
ATOM     31  C   UNL     1      -3.604  11.399  17.841  0.00  0.00    +0.000 A 
ENDBRANCH  25  26
ENDBRANCH  23  25
ENDBRANCH  22  23
ENDBRANCH  19  22
ENDBRANCH  18  19
ENDBRANCH  17  18
ENDBRANCH   4  17
TORSDOF 12
ENDMDL
MODEL 3
REMARK VINA RESULT:      -7.1      3.158      9.986
REMARK  Name = 
REMARK  15 active torsions:
REMARK  status: ('A' for Active; 'I' for Inactive)
REMARK    1  A    between atoms: C_1  and  C_2
REMARK    2  A    between atoms: C_4  and  C_5
REMARK    3  A    between atoms: C_5  and  N_6
REMARK    4  A    between atoms: N_6  and  C_7
REMARK    5  A    between atoms: N_6  and  C_8
REMARK    6  A    between atoms: C_8  and  C_9
REMARK    7  A    between atoms: C_12  and  O_13
REMARK    8  A    between atoms: O_13  and  C_14
REMARK    9  A    between atoms: C_14  and  C_15
REMARK   10  A    between atoms: C_15  and  O_16
REMARK   11  A    between atoms: C_15  and  C_17
REMARK   12  A    between atoms: C_17  and  N_18
REMARK   13  A    between atoms: N_18  and  C_19
REMARK   14  A    between atoms: N_18  and  C_20
REMARK   15  A    between atoms: C_20  and  C_21
REMARK                            x       y       z     vdW  Elec       q    Type
REMARK                         _______ _______ _______ _____ _____    ______ ____
ROOT
ATOM      1  C   UNL     1       1.553   9.217  18.856  0.00  0.00    +0.000 A 
ATOM      2  C   UNL     1       1.237   8.837  20.165  0.00  0.00    +0.000 A 
ATOM      3  C   UNL     1       1.595   7.582  20.644  0.00  0.00    +0.000 A 
ATOM      4  C   UNL     1       2.275   6.684  19.822  0.00  0.00    +0.000 A 
ATOM      5  C   UNL     1       2.529   7.028  18.493  0.00  0.00    +0.000 A 
ATOM      6  C   UNL     1       2.166   8.287  18.006  0.00  0.00    +0.000 A 
ENDROOT
BRANCH   1   7
ATOM      7  C   UNL     1       1.333  10.650  18.428  0.00  0.00    +0.000 C 
BRANCH   7   8
ATOM      8  N   UNL     1       0.313  11.316  19.258  0.00  0.00    +0.000 NA
ATOM      9  C   UNL     1      -0.827  11.708  18.424  0.00  0.00    +0.000 C 
BRANCH   8  10
ATOM     10  C   UNL     1       0.871  12.480  19.984  0.00  0.00    +0.000 C 
BRANCH  10  14
ATOM     11  C   UNL     1      -1.446  14.439  24.067  0.00  0.00    +0.000 C 
ATOM     12  C   UNL     1      -0.909  13.571  22.998  0.00  0.00    +0.000 A 
ATOM     13  C   UNL     1      -0.454  13.947  21.717  0.00  0.00    +0.000 A 
ATOM     14  C   UNL     1       0.075  12.789  21.200  0.00  0.00    +0.000 A 
ATOM     15  O   UNL     1      -0.135  11.769  22.071  0.00  0.00    +0.000 OA
ATOM     16  N   UNL     1      -0.758  12.259  23.207  0.00  0.00    +0.000 NA
ENDBRANCH  10  14
ENDBRANCH   8  10
ENDBRANCH   7   8
ENDBRANCH   1   7
BRANCH   4  17
ATOM     17  O   UNL     1       2.754   5.464  20.225  0.00  0.00    +0.000 OA
BRANCH  17  18
ATOM     18  C   UNL     1       1.849   4.683  21.025  0.00  0.00    +0.000 C 
BRANCH  18  19
ATOM     19  C   UNL     1       2.422   3.276  21.213  0.00  0.00    +0.000 C 
BRANCH  19  20
ATOM     20  O   UNL     1       1.536   2.577  22.097  0.00  0.00    +0.000 OA
ATOM     21  H   UNL     1       0.663   3.002  21.997  0.00  0.00    +0.000 HD
ENDBRANCH  19  20
BRANCH  19  22
ATOM     22  C   UNL     1       2.589   2.556  19.851  0.00  0.00    +0.000 C 
BRANCH  22  23
ATOM     23  N   UNL     1       3.970   2.529  19.309  0.00  0.00    +0.000 NA
ATOM     24  C   UNL     1       4.570   1.196  19.464  0.00  0.00    +0.000 C 
BRANCH  23  25
ATOM     25  C   UNL     1       3.948   2.945  17.891  0.00  0.00    +0.000 C 
BRANCH  25  26
ATOM     26  C   UNL     1       4.786   4.173  17.598  0.00  0.00    +0.000 A 
ATOM     27  C   UNL     1       5.666   4.677  18.568  0.00  0.00    +0.000 A 
ATOM     28  C   UNL     1       6.410   5.829  18.319  0.00  0.00    +0.000 A 
ATOM     29  C   UNL     1       6.287   6.490  17.098  0.00  0.00    +0.000 A 
ATOM     30  C   UNL     1       5.416   5.999  16.125  0.00  0.00    +0.000 A 
ATOM     31  C   UNL     1       4.671   4.845  16.372  0.00  0.00    +0.000 A 
ENDBRANCH  25  26
ENDBRANCH  23  25
ENDBRANCH  22  23
ENDBRANCH  19  22
ENDBRANCH  18  19
ENDBRANCH  17  18
ENDBRANCH   4  17
TORSDOF 12
ENDMDL
MODEL 4
REMARK VINA RESULT:      -7.0      3.433      9.139
REMARK  Name = 
REMARK  15 active torsions:
REMARK  status: ('A' for Active; 'I' for Inactive)
REMARK    1  A    between atoms: C_1  and  C_2
REMARK    2  A    between atoms: C_4  and  C_5
REMARK    3  A    between atoms: C_5  and  N_6
REMARK    4  A    between atoms: N_6  and  C_7
REMARK    5  A    between atoms: N_6  and  C_8
REMARK    6  A    between atoms: C_8  and  C_9
REMARK    7  A    between atoms: C_12  and  O_13
REMARK    8  A    between atoms: O_13  and  C_14
REMARK    9  A    between atoms: C_14  and  C_15
REMARK   10  A    between atoms: C_15  and  O_16
REMARK   11  A    between atoms: C_15  and  C_17
REMARK   12  A    between atoms: C_17  and  N_18
REMARK   13  A    between atoms: N_18  and  C_19
REMARK   14  A    between atoms: N_18  and  C_20
REMARK   15  A    between atoms: C_20  and  C_21
REMARK                            x       y       z     vdW  Elec       q    Type
REMARK                         _______ _______ _______ _____ _____    ______ ____
ROOT
ATOM      1  C   UNL     1       0.830   8.989  19.950  0.00  0.00    +0.000 A 
ATOM      2  C   UNL     1       1.042   9.621  18.719  0.00  0.00    +0.000 A 
ATOM      3  C   UNL     1       1.970   9.119  17.815  0.00  0.00    +0.000 A 
ATOM      4  C   UNL     1       2.705   7.975  18.126  0.00  0.00    +0.000 A 
ATOM      5  C   UNL     1       2.553   7.381  19.381  0.00  0.00    +0.000 A 
ATOM      6  C   UNL     1       1.623   7.887  20.295  0.00  0.00    +0.000 A 
ENDROOT
BRANCH   1   7
ATOM      7  C   UNL     1      -0.321   9.435  20.822  0.00  0.00    +0.000 C 
BRANCH   7   8
ATOM      8  N   UNL     1       0.127  10.343  21.893  0.00  0.00    +0.000 NA
ATOM      9  C   UNL     1      -0.178   9.756  23.202  0.00  0.00    +0.000 C 
BRANCH   8  10
ATOM     10  C   UNL     1      -0.473  11.689  21.757  0.00  0.00    +0.000 C 
BRANCH  10  14
ATOM     11  C   UNL     1       3.575  14.435  20.360  0.00  0.00    +0.000 C 
ATOM     12  C   UNL     1       2.304  13.934  20.922  0.00  0.00    +0.000 A 
ATOM     13  C   UNL     1       1.551  12.815  20.512  0.00  0.00    +0.000 A 
ATOM     14  C   UNL     1       0.562  12.714  21.460  0.00  0.00    +0.000 A 
ATOM     15  O   UNL     1       0.658  13.756  22.325  0.00  0.00    +0.000 OA
ATOM     16  N   UNL     1       1.756  14.530  21.987  0.00  0.00    +0.000 NA
ENDBRANCH  10  14
ENDBRANCH   8  10
ENDBRANCH   7   8
ENDBRANCH   1   7
BRANCH   4  17
ATOM     17  O   UNL     1       3.574   7.348  17.270  0.00  0.00    +0.000 OA
BRANCH  17  18
ATOM     18  C   UNL     1       4.822   6.938  17.854  0.00  0.00    +0.000 C 
BRANCH  18  19
ATOM     19  C   UNL     1       5.883   6.821  16.756  0.00  0.00    +0.000 C 
BRANCH  19  20
ATOM     20  O   UNL     1       6.974   7.670  17.134  0.00  0.00    +0.000 OA
ATOM     21  H   UNL     1       7.772   7.107  17.124  0.00  0.00    +0.000 HD
ENDBRANCH  19  20
BRANCH  19  22
ATOM     22  C   UNL     1       6.320   5.346  16.560  0.00  0.00    +0.000 C 
BRANCH  22  23
ATOM     23  N   UNL     1       5.323   4.468  15.901  0.00  0.00    +0.000 NA
ATOM     24  C   UNL     1       5.804   4.019  14.587  0.00  0.00    +0.000 C 
BRANCH  23  25
ATOM     25  C   UNL     1       5.022   3.320  16.782  0.00  0.00    +0.000 C 
BRANCH  25  26
ATOM     26  C   UNL     1       3.823   3.534  17.684  0.00  0.00    +0.000 A 
ATOM     27  C   UNL     1       2.581   3.886  17.134  0.00  0.00    +0.000 A 
ATOM     28  C   UNL     1       1.483   4.121  17.961  0.00  0.00    +0.000 A 
ATOM     29  C   UNL     1       1.612   4.006  19.344  0.00  0.00    +0.000 A 
ATOM     30  C   UNL     1       2.842   3.656  19.902  0.00  0.00    +0.000 A 
ATOM     31  C   UNL     1       3.941   3.418  19.076  0.00  0.00    +0.000 A 
ENDBRANCH  25  26
ENDBRANCH  23  25
ENDBRANCH  22  23
ENDBRANCH  19  22
ENDBRANCH  18  19
ENDBRANCH  17  18
ENDBRANCH   4  17
TORSDOF 12
ENDMDL
MODEL 5
REMARK VINA RESULT:      -7.0      1.897      2.831
REMARK  Name = 
REMARK  15 active torsions:
REMARK  status: ('A' for Active; 'I' for Inactive)
REMARK    1  A    between atoms: C_1  and  C_2
REMARK    2  A    between atoms: C_4  and  C_5
REMARK    3  A    between atoms: C_5  and  N_6
REMARK    4  A    between atoms: N_6  and  C_7
REMARK    5  A    between atoms: N_6  and  C_8
REMARK    6  A    between atoms: C_8  and  C_9
REMARK    7  A    between atoms: C_12  and  O_13
REMARK    8  A    between atoms: O_13  and  C_14
REMARK    9  A    between atoms: C_14  and  C_15
REMARK   10  A    between atoms: C_15  and  O_16
REMARK   11  A    between atoms: C_15  and  C_17
REMARK   12  A    between atoms: C_17  and  N_18
REMARK   13  A    between atoms: N_18  and  C_19
REMARK   14  A    between atoms: N_18  and  C_20
REMARK   15  A    between atoms: C_20  and  C_21
REMARK                            x       y       z     vdW  Elec       q    Type
REMARK                         _______ _______ _______ _____ _____    ______ ____
ROOT
ATOM      1  C   UNL     1       2.751   7.048  18.860  0.00  0.00    +0.000 A 
ATOM      2  C   UNL     1       2.072   7.373  20.040  0.00  0.00    +0.000 A 
ATOM      3  C   UNL     1       1.274   8.509  20.108  0.00  0.00    +0.000 A 
ATOM      4  C   UNL     1       1.141   9.341  18.997  0.00  0.00    +0.000 A 
ATOM      5  C   UNL     1       1.873   9.064  17.840  0.00  0.00    +0.000 A 
ATOM      6  C   UNL     1       2.681   7.924  17.770  0.00  0.00    +0.000 A 
ENDROOT
BRANCH   1   7
ATOM      7  C   UNL     1       3.445   5.710  18.751  0.00  0.00    +0.000 C 
BRANCH   7   8
ATOM      8  N   UNL     1       2.909   4.907  17.637  0.00  0.00    +0.000 NA
ATOM      9  C   UNL     1       1.567   4.422  17.975  0.00  0.00    +0.000 C 
BRANCH   8  10
ATOM     10  C   UNL     1       3.810   3.786  17.285  0.00  0.00    +0.000 C 
BRANCH  10  14
ATOM     11  C   UNL     1       7.397   5.021  13.895  0.00  0.00    +0.000 C 
ATOM     12  C   UNL     1       6.592   4.775  15.110  0.00  0.00    +0.000 A 
ATOM     13  C   UNL     1       5.193   4.625  15.213  0.00  0.00    +0.000 A 
ATOM     14  C   UNL     1       4.993   4.263  16.523  0.00  0.00    +0.000 A 
ATOM     15  O   UNL     1       6.179   4.289  17.183  0.00  0.00    +0.000 OA
ATOM     16  N   UNL     1       7.190   4.613  16.295  0.00  0.00    +0.000 NA
ENDBRANCH  10  14
ENDBRANCH   8  10
ENDBRANCH   7   8
ENDBRANCH   1   7
BRANCH   4  17
ATOM     17  O   UNL     1       0.309  10.429  18.930  0.00  0.00    +0.000 OA
BRANCH  17  18
ATOM     18  C   UNL     1      -0.882  10.243  18.146  0.00  0.00    +0.000 C 
BRANCH  18  19
ATOM     19  C   UNL     1      -1.587  11.590  17.965  0.00  0.00    +0.000 C 
BRANCH  19  20
ATOM     20  O   UNL     1      -1.942  11.695  16.580  0.00  0.00    +0.000 OA
ATOM     21  H   UNL     1      -2.776  12.202  16.552  0.00  0.00    +0.000 HD
ENDBRANCH  19  20
BRANCH  19  22
ATOM     22  C   UNL     1      -2.817  11.705  18.902  0.00  0.00    +0.000 C 
BRANCH  22  23
ATOM     23  N   UNL     1      -2.607  12.507  20.133  0.00  0.00    +0.000 NA
ATOM     24  C   UNL     1      -1.508  13.467  19.955  0.00  0.00    +0.000 C 
BRANCH  23  25
ATOM     25  C   UNL     1      -3.866  13.194  20.490  0.00  0.00    +0.000 C 
BRANCH  25  26
ATOM     26  C   UNL     1      -4.301  12.975  21.925  0.00  0.00    +0.000 A 
ATOM     27  C   UNL     1      -3.363  12.589  22.896  0.00  0.00    +0.000 A 
ATOM     28  C   UNL     1      -3.764  12.348  24.210  0.00  0.00    +0.000 A 
ATOM     29  C   UNL     1      -5.102  12.493  24.569  0.00  0.00    +0.000 A 
ATOM     30  C   UNL     1      -6.043  12.876  23.614  0.00  0.00    +0.000 A 
ATOM     31  C   UNL     1      -5.644  13.119  22.299  0.00  0.00    +0.000 A 
ENDBRANCH  25  26
ENDBRANCH  23  25
ENDBRANCH  22  23
ENDBRANCH  19  22
ENDBRANCH  18  19
ENDBRANCH  17  18
ENDBRANCH   4  17
TORSDOF 12
ENDMDL
MODEL 6
REMARK VINA RESULT:      -6.9      2.108      2.659
REMARK  Name = 
REMARK  15 active torsions:
REMARK  status: ('A' for Active; 'I' for Inactive)
REMARK    1  A    between atoms: C_1  and  C_2
REMARK    2  A    between atoms: C_4  and  C_5
REMARK    3  A    between atoms: C_5  and  N_6
REMARK    4  A    between atoms: N_6  and  C_7
REMARK    5  A    between atoms: N_6  and  C_8
REMARK    6  A    between atoms: C_8  and  C_9
REMARK    7  A    between atoms: C_12  and  O_13
REMARK    8  A    between atoms: O_13  and  C_14
REMARK    9  A    between atoms: C_14  and  C_15
REMARK   10  A    between atoms: C_15  and  O_16
REMARK   11  A    between atoms: C_15  and  C_17
REMARK   12  A    between atoms: C_17  and  N_18
REMARK   13  A    between atoms: N_18  and  C_19
REMARK   14  A    between atoms: N_18  and  C_20
REMARK   15  A    between atoms: C_20  and  C_21
REMARK                            x       y       z     vdW  Elec       q    Type
REMARK                         _______ _______ _______ _____ _____    ______ ____
ROOT
ATOM      1  C   UNL     1       2.248   5.398  19.418  0.00  0.00    +0.000 A 
ATOM      2  C   UNL     1       2.349   5.828  18.090  0.00  0.00    +0.000 A 
ATOM      3  C   UNL     1       2.236   7.176  17.772  0.00  0.00    +0.000 A 
ATOM      4  C   UNL     1       2.019   8.119  18.777  0.00  0.00    +0.000 A 
ATOM      5  C   UNL     1       1.844   7.690  20.094  0.00  0.00    +0.000 A 
ATOM      6  C   UNL     1       1.952   6.333  20.417  0.00  0.00    +0.000 A 
ENDROOT
BRANCH   1   7
ATOM      7  C   UNL     1       2.574   3.961  19.756  0.00  0.00    +0.000 C 
BRANCH   7   8
ATOM      8  N   UNL     1       3.580   3.399  18.836  0.00  0.00    +0.000 NA
ATOM      9  C   UNL     1       3.440   1.940  18.779  0.00  0.00    +0.000 C 
BRANCH   8  10
ATOM     10  C   UNL     1       4.955   3.790  19.220  0.00  0.00    +0.000 C 
BRANCH  10  14
ATOM     11  C   UNL     1       6.975   4.806  14.663  0.00  0.00    +0.000 C 
ATOM     12  C   UNL     1       6.677   4.668  16.104  0.00  0.00    +0.000 A 
ATOM     13  C   UNL     1       5.427   4.442  16.717  0.00  0.00    +0.000 A 
ATOM     14  C   UNL     1       5.737   4.241  18.040  0.00  0.00    +0.000 A 
ATOM     15  O   UNL     1       7.070   4.428  18.224  0.00  0.00    +0.000 OA
ATOM     16  N   UNL     1       7.666   4.700  17.003  0.00  0.00    +0.000 NA
ENDBRANCH  10  14
ENDBRANCH   8  10
ENDBRANCH   7   8
ENDBRANCH   1   7
BRANCH   4  17
ATOM     17  O   UNL     1       1.986   9.476  18.582  0.00  0.00    +0.000 OA
BRANCH  17  18
ATOM     18  C   UNL     1       1.159  10.209  19.502  0.00  0.00    +0.000 C 
BRANCH  18  19
ATOM     19  C   UNL     1       1.198  11.697  19.146  0.00  0.00    +0.000 C 
BRANCH  19  20
ATOM     20  O   UNL     1       2.045  11.832  17.997  0.00  0.00    +0.000 OA
ATOM     21  H   UNL     1       1.450  11.854  17.223  0.00  0.00    +0.000 HD
ENDBRANCH  19  20
BRANCH  19  22
ATOM     22  C   UNL     1      -0.230  12.247  18.896  0.00  0.00    +0.000 C 
BRANCH  22  23
ATOM     23  N   UNL     1      -1.260  11.812  19.872  0.00  0.00    +0.000 NA
ATOM     24  C   UNL     1      -1.095  12.509  21.156  0.00  0.00    +0.000 C 
BRANCH  23  25
ATOM     25  C   UNL     1      -2.603  12.047  19.304  0.00  0.00    +0.000 C 
BRANCH  25  26
ATOM     26  C   UNL     1      -2.873  11.282  18.023  0.00  0.00    +0.000 A 
ATOM     27  C   UNL     1      -2.039  10.218  17.648  0.00  0.00    +0.000 A 
ATOM     28  C   UNL     1      -2.258   9.534  16.453  0.00  0.00    +0.000 A 
ATOM     29  C   UNL     1      -3.312   9.905  15.620  0.00  0.00    +0.000 A 
ATOM     30  C   UNL     1      -4.148  10.961  15.981  0.00  0.00    +0.000 A 
ATOM     31  C   UNL     1      -3.932  11.644  17.179  0.00  0.00    +0.000 A 
ENDBRANCH  25  26
ENDBRANCH  23  25
ENDBRANCH  22  23
ENDBRANCH  19  22
ENDBRANCH  18  19
ENDBRANCH  17  18
ENDBRANCH   4  17
TORSDOF 12
ENDMDL
MODEL 7
REMARK VINA RESULT:      -6.9      2.698      4.840
REMARK  Name = 
REMARK  15 active torsions:
REMARK  status: ('A' for Active; 'I' for Inactive)
REMARK    1  A    between atoms: C_1  and  C_2
REMARK    2  A    between atoms: C_4  and  C_5
REMARK    3  A    between atoms: C_5  and  N_6
REMARK    4  A    between atoms: N_6  and  C_7
REMARK    5  A    between atoms: N_6  and  C_8
REMARK    6  A    between atoms: C_8  and  C_9
REMARK    7  A    between atoms: C_12  and  O_13
REMARK    8  A    between atoms: O_13  and  C_14
REMARK    9  A    between atoms: C_14  and  C_15
REMARK   10  A    between atoms: C_15  and  O_16
REMARK   11  A    between atoms: C_15  and  C_17
REMARK   12  A    between atoms: C_17  and  N_18
REMARK   13  A    between atoms: N_18  and  C_19
REMARK   14  A    between atoms: N_18  and  C_20
REMARK   15  A    between atoms: C_20  and  C_21
REMARK                            x       y       z     vdW  Elec       q    Type
REMARK                         _______ _______ _______ _____ _____    ______ ____
ROOT
ATOM      1  C   UNL     1       3.099   6.616  18.393  0.00  0.00    +0.000 A 
ATOM      2  C   UNL     1       2.614   7.921  18.254  0.00  0.00    +0.000 A 
ATOM      3  C   UNL     1       1.877   8.514  19.272  0.00  0.00    +0.000 A 
ATOM      4  C   UNL     1       1.611   7.813  20.448  0.00  0.00    +0.000 A 
ATOM      5  C   UNL     1       2.029   6.485  20.564  0.00  0.00    +0.000 A 
ATOM      6  C   UNL     1       2.767   5.883  19.539  0.00  0.00    +0.000 A 
ENDROOT
BRANCH   1   7
ATOM      7  C   UNL     1       4.062   6.072  17.363  0.00  0.00    +0.000 C 
BRANCH   7   8
ATOM      8  N   UNL     1       5.449   6.062  17.864  0.00  0.00    +0.000 NA
ATOM      9  C   UNL     1       6.156   7.256  17.391  0.00  0.00    +0.000 C 
BRANCH   8  10
ATOM     10  C   UNL     1       6.164   4.826  17.473  0.00  0.00    +0.000 C 
BRANCH  10  14
ATOM     11  C   UNL     1       6.357   3.669  12.523  0.00  0.00    +0.000 C 
ATOM     12  C   UNL     1       6.494   4.277  13.862  0.00  0.00    +0.000 A 
ATOM     13  C   UNL     1       5.686   4.072  15.000  0.00  0.00    +0.000 A 
ATOM     14  C   UNL     1       6.342   4.749  16.000  0.00  0.00    +0.000 A 
ATOM     15  O   UNL     1       7.416   5.395  15.477  0.00  0.00    +0.000 OA
ATOM     16  N   UNL     1       7.515   5.101  14.127  0.00  0.00    +0.000 NA
ENDBRANCH  10  14
ENDBRANCH   8  10
ENDBRANCH   7   8
ENDBRANCH   1   7
BRANCH   4  17
ATOM     17  O   UNL     1       0.977   8.337  21.545  0.00  0.00    +0.000 OA
BRANCH  17  18
ATOM     18  C   UNL     1       0.100   9.443  21.276  0.00  0.00    +0.000 C 
BRANCH  18  19
ATOM     19  C   UNL     1      -0.508   9.942  22.590  0.00  0.00    +0.000 C 
BRANCH  19  20
ATOM     20  O   UNL     1       0.425   9.621  23.631  0.00  0.00    +0.000 OA
ATOM     21  H   UNL     1       0.514   8.649  23.625  0.00  0.00    +0.000 HD
ENDBRANCH  19  20
BRANCH  19  22
ATOM     22  C   UNL     1      -0.818  11.459  22.520  0.00  0.00    +0.000 C 
BRANCH  22  23
ATOM     23  N   UNL     1      -0.766  12.058  21.163  0.00  0.00    +0.000 NA
ATOM     24  C   UNL     1      -2.119  12.312  20.648  0.00  0.00    +0.000 C 
BRANCH  23  25
ATOM     25  C   UNL     1       0.032  13.300  21.206  0.00  0.00    +0.000 C 
BRANCH  25  26
ATOM     26  C   UNL     1       1.095  13.387  20.129  0.00  0.00    +0.000 A 
ATOM     27  C   UNL     1       1.767  14.596  19.896  0.00  0.00    +0.000 A 
ATOM     28  C   UNL     1       2.719  14.693  18.881  0.00  0.00    +0.000 A 
ATOM     29  C   UNL     1       3.010  13.584  18.090  0.00  0.00    +0.000 A 
ATOM     30  C   UNL     1       2.349  12.376  18.311  0.00  0.00    +0.000 A 
ATOM     31  C   UNL     1       1.398  12.277  19.328  0.00  0.00    +0.000 A 
ENDBRANCH  25  26
ENDBRANCH  23  25
ENDBRANCH  22  23
ENDBRANCH  19  22
ENDBRANCH  18  19
ENDBRANCH  17  18
ENDBRANCH   4  17
TORSDOF 12
ENDMDL
MODEL 8
REMARK VINA RESULT:      -6.9      3.154      9.601
REMARK  Name = 
REMARK  15 active torsions:
REMARK  status: ('A' for Active; 'I' for Inactive)
REMARK    1  A    between atoms: C_1  and  C_2
REMARK    2  A    between atoms: C_4  and  C_5
REMARK    3  A    between atoms: C_5  and  N_6
REMARK    4  A    between atoms: N_6  and  C_7
REMARK    5  A    between atoms: N_6  and  C_8
REMARK    6  A    between atoms: C_8  and  C_9
REMARK    7  A    between atoms: C_12  and  O_13
REMARK    8  A    between atoms: O_13  and  C_14
REMARK    9  A    between atoms: C_14  and  C_15
REMARK   10  A    between atoms: C_15  and  O_16
REMARK   11  A    between atoms: C_15  and  C_17
REMARK   12  A    between atoms: C_17  and  N_18
REMARK   13  A    between atoms: N_18  and  C_19
REMARK   14  A    between atoms: N_18  and  C_20
REMARK   15  A    between atoms: C_20  and  C_21
REMARK                            x       y       z     vdW  Elec       q    Type
REMARK                         _______ _______ _______ _____ _____    ______ ____
ROOT
ATOM      1  C   UNL     1       0.454   9.952  19.731  0.00  0.00    +0.000 A 
ATOM      2  C   UNL     1       1.205   9.578  18.611  0.00  0.00    +0.000 A 
ATOM      3  C   UNL     1       1.973   8.419  18.627  0.00  0.00    +0.000 A 
ATOM      4  C   UNL     1       2.005   7.614  19.766  0.00  0.00    +0.000 A 
ATOM      5  C   UNL     1       1.317   8.019  20.912  0.00  0.00    +0.000 A 
ATOM      6  C   UNL     1       0.547   9.186  20.900  0.00  0.00    +0.000 A 
ENDROOT
BRANCH   1   7
ATOM      7  C   UNL     1      -0.523  11.099  19.617  0.00  0.00    +0.000 C 
BRANCH   7   8
ATOM      8  N   UNL     1       0.118  12.393  19.912  0.00  0.00    +0.000 NA
ATOM      9  C   UNL     1      -0.485  12.983  21.112  0.00  0.00    +0.000 C 
BRANCH   8  10
ATOM     10  C   UNL     1       0.037  13.320  18.761  0.00  0.00    +0.000 C 
BRANCH  10  14
ATOM     11  C   UNL     1       4.918  14.588  18.089  0.00  0.00    +0.000 C 
ATOM     12  C   UNL     1       3.447  14.558  18.219  0.00  0.00    +0.000 A 
ATOM     13  C   UNL     1       2.586  13.444  18.128  0.00  0.00    +0.000 A 
ATOM     14  C   UNL     1       1.356  13.944  18.478  0.00  0.00    +0.000 A 
ATOM     15  O   UNL     1       1.453  15.285  18.671  0.00  0.00    +0.000 OA
ATOM     16  N   UNL     1       2.771  15.676  18.506  0.00  0.00    +0.000 NA
ENDBRANCH  10  14
ENDBRANCH   8  10
ENDBRANCH   7   8
ENDBRANCH   1   7
BRANCH   4  17
ATOM     17  O   UNL     1       2.652   6.409  19.852  0.00  0.00    +0.000 OA
BRANCH  17  18
ATOM     18  C   UNL     1       2.014   5.427  20.686  0.00  0.00    +0.000 C 
BRANCH  18  19
ATOM     19  C   UNL     1       2.525   4.033  20.314  0.00  0.00    +0.000 C 
BRANCH  19  20
ATOM     20  O   UNL     1       1.639   3.085  20.922  0.00  0.00    +0.000 OA
ATOM     21  H   UNL     1       1.796   3.144  21.884  0.00  0.00    +0.000 HD
ENDBRANCH  19  20
BRANCH  19  22
ATOM     22  C   UNL     1       2.610   3.864  18.776  0.00  0.00    +0.000 C 
BRANCH  22  23
ATOM     23  N   UNL     1       3.796   3.123  18.280  0.00  0.00    +0.000 NA
ATOM     24  C   UNL     1       3.486   1.699  18.091  0.00  0.00    +0.000 C 
BRANCH  23  25
ATOM     25  C   UNL     1       4.268   3.739  17.022  0.00  0.00    +0.000 C 
BRANCH  25  26
ATOM     26  C   UNL     1       5.326   4.806  17.219  0.00  0.00    +0.000 A 
ATOM     27  C   UNL     1       6.588   4.463  17.729  0.00  0.00    +0.000 A 
ATOM     28  C   UNL     1       7.553   5.445  17.948  0.00  0.00    +0.000 A 
ATOM     29  C   UNL     1       7.271   6.778  17.658  0.00  0.00    +0.000 A 
ATOM     30  C   UNL     1       6.022   7.132  17.150  0.00  0.00    +0.000 A 
ATOM     31  C   UNL     1       5.054   6.150  16.928  0.00  0.00    +0.000 A 
ENDBRANCH  25  26
ENDBRANCH  23  25
ENDBRANCH  22  23
ENDBRANCH  19  22
ENDBRANCH  18  19
ENDBRANCH  17  18
ENDBRANCH   4  17
TORSDOF 12
ENDMDL
MODEL 9
REMARK VINA RESULT:      -6.8      1.512      1.902
REMARK  Name = 
REMARK  15 active torsions:
REMARK  status: ('A' for Active; 'I' for Inactive)
REMARK    1  A    between atoms: C_1  and  C_2
REMARK    2  A    between atoms: C_4  and  C_5
REMARK    3  A    between atoms: C_5  and  N_6
REMARK    4  A    between atoms: N_6  and  C_7
REMARK    5  A    between atoms: N_6  and  C_8
REMARK    6  A    between atoms: C_8  and  C_9
REMARK    7  A    between atoms: C_12  and  O_13
REMARK    8  A    between atoms: O_13  and  C_14
REMARK    9  A    between atoms: C_14  and  C_15
REMARK   10  A    between atoms: C_15  and  O_16
REMARK   11  A    between atoms: C_15  and  C_17
REMARK   12  A    between atoms: C_17  and  N_18
REMARK   13  A    between atoms: N_18  and  C_19
REMARK   14  A    between atoms: N_18  and  C_20
REMARK   15  A    between atoms: C_20  and  C_21
REMARK                            x       y       z     vdW  Elec       q    Type
REMARK                         _______ _______ _______ _____ _____    ______ ____
ROOT
ATOM      1  C   UNL     1       2.345   6.492  19.938  0.00  0.00    +0.000 A 
ATOM      2  C   UNL     1       1.661   7.370  20.786  0.00  0.00    +0.000 A 
ATOM      3  C   UNL     1       1.259   8.622  20.335  0.00  0.00    +0.000 A 
ATOM      4  C   UNL     1       1.535   9.019  19.027  0.00  0.00    +0.000 A 
ATOM      5  C   UNL     1       2.281   8.178  18.198  0.00  0.00    +0.000 A 
ATOM      6  C   UNL     1       2.691   6.920  18.650  0.00  0.00    +0.000 A 
ENDROOT
BRANCH   1   7
ATOM      7  C   UNL     1       2.590   5.070  20.387  0.00  0.00    +0.000 C 
BRANCH   7   8
ATOM      8  N   UNL     1       2.227   4.098  19.340  0.00  0.00    +0.000 NA
ATOM      9  C   UNL     1       0.967   3.435  19.693  0.00  0.00    +0.000 C 
BRANCH   8  10
ATOM     10  C   UNL     1       3.306   3.110  19.113  0.00  0.00    +0.000 C 
BRANCH  10  14
ATOM     11  C   UNL     1       7.052   4.800  16.114  0.00  0.00    +0.000 C 
ATOM     12  C   UNL     1       6.154   4.457  17.237  0.00  0.00    +0.000 A 
ATOM     13  C   UNL     1       4.788   4.110  17.186  0.00  0.00    +0.000 A 
ATOM     14  C   UNL     1       4.490   3.741  18.475  0.00  0.00    +0.000 A 
ATOM     15  O   UNL     1       5.577   3.944  19.264  0.00  0.00    +0.000 OA
ATOM     16  N   UNL     1       6.629   4.398  18.486  0.00  0.00    +0.000 NA
ENDBRANCH  10  14
ENDBRANCH   8  10
ENDBRANCH   7   8
ENDBRANCH   1   7
BRANCH   4  17
ATOM     17  O   UNL     1       1.103  10.189  18.458  0.00  0.00    +0.000 OA
BRANCH  17  18
ATOM     18  C   UNL     1       1.199  11.352  19.297  0.00  0.00    +0.000 C 
BRANCH  18  19
ATOM     19  C   UNL     1      -0.083  12.179  19.168  0.00  0.00    +0.000 C 
BRANCH  19  20
ATOM     20  O   UNL     1      -0.212  12.541  17.787  0.00  0.00    +0.000 OA
ATOM     21  H   UNL     1       0.466  12.027  17.308  0.00  0.00    +0.000 HD
ENDBRANCH  19  20
BRANCH  19  22
ATOM     22  C   UNL     1      -1.310  11.388  19.689  0.00  0.00    +0.000 C 
BRANCH  22  23
ATOM     23  N   UNL     1      -2.483  12.211  20.074  0.00  0.00    +0.000 NA
ATOM     24  C   UNL     1      -2.065  13.555  20.499  0.00  0.00    +0.000 C 
BRANCH  23  25
ATOM     25  C   UNL     1      -3.429  12.277  18.942  0.00  0.00    +0.000 C 
BRANCH  25  26
ATOM     26  C   UNL     1      -4.838  11.842  19.291  0.00  0.00    +0.000 A 
ATOM     27  C   UNL     1      -5.424  12.248  20.500  0.00  0.00    +0.000 A 
ATOM     28  C   UNL     1      -6.705  11.820  20.845  0.00  0.00    +0.000 A 
ATOM     29  C   UNL     1      -7.417  10.984  19.987  0.00  0.00    +0.000 A 
ATOM     30  C   UNL     1      -6.846  10.573  18.782  0.00  0.00    +0.000 A 
ATOM     31  C   UNL     1      -5.564  11.002  18.434  0.00  0.00    +0.000 A 
ENDBRANCH  25  26
ENDBRANCH  23  25
ENDBRANCH  22  23
ENDBRANCH  19  22
ENDBRANCH  18  19
ENDBRANCH  17  18
ENDBRANCH   4  17
TORSDOF 12
ENDMDL
