MODEL 1
REMARK VINA RESULT:      -9.0      0.000      0.000
REMARK  Name = 
REMARK  5 active torsions:
REMARK  status: ('A' for Active; 'I' for Inactive)
REMARK    1  A    between atoms: C_1  and  C_2
REMARK    2  A    between atoms: C_8  and  N_9
REMARK    3  A    between atoms: C_10  and  C_12
REMARK    4  A    between atoms: C_16  and  C_17
REMARK    5  A    between atoms: C_21  and  C_22
REMARK                            x       y       z     vdW  Elec       q    Type
REMARK                         _______ _______ _______ _____ _____    ______ ____
ROOT
ATOM      1  C   UNL     1       1.329   8.685  20.545  0.00  0.00    +0.000 A 
ATOM      2  C   UNL     1       1.666   9.045  21.870  0.00  0.00    +0.000 A 
ATOM      3  N   UNL     1       0.949  10.057  22.347  0.00  0.00    +0.000 NA
ATOM      4  N   UNL     1       0.106  10.371  21.339  0.00  0.00    +0.000 N 
ATOM      5  C   UNL     1      -0.905  11.323  21.371  0.00  0.00    +0.000 A 
ATOM      6  C   UNL     1      -1.700  11.469  20.299  0.00  0.00    +0.000 A 
ATOM      7  C   UNL     1      -1.403  10.601  19.117  0.00  0.00    +0.000 A 
ATOM      8  N   UNL     1      -0.453   9.700  19.075  0.00  0.00    +0.000 NA
ATOM      9  C   UNL     1       0.313   9.559  20.204  0.00  0.00    +0.000 A 
ENDROOT
BRANCH   7  10
ATOM     10  C   UNL     1      -2.309  10.780  17.946  0.00  0.00    +0.000 A 
ATOM     11  C   UNL     1      -3.506  11.505  18.035  0.00  0.00    +0.000 A 
ATOM     12  C   UNL     1      -4.361  11.586  16.934  0.00  0.00    +0.000 A 
ATOM     13  C   UNL     1      -4.017  10.961  15.738  0.00  0.00    +0.000 A 
ATOM     14  C   UNL     1      -2.813  10.265  15.633  0.00  0.00    +0.000 A 
ATOM     15  C   UNL     1      -1.958  10.175  16.734  0.00  0.00    +0.000 A 
ENDBRANCH   7  10
BRANCH   1  17
ATOM     16  N   UNL     1       2.230   6.417  20.537  0.00  0.00    +0.000 N 
ATOM     17  C   UNL     1       1.966   7.588  19.835  0.00  0.00    +0.000 C 
ATOM     18  O   UNL     1       2.205   7.747  18.640  0.00  0.00    +0.000 OA
ATOM     19  H   UNL     1       1.810   6.336  21.457  0.00  0.00    +0.000 HD
BRANCH  16  27
ATOM     20  C   UNL     1       0.976   3.711  20.496  0.00  0.00    +0.000 C 
ATOM     21  C   UNL     1       2.351   4.010  19.963  0.00  0.00    +0.000 A 
ATOM     22  C   UNL     1       3.068   2.937  19.383  0.00  0.00    +0.000 A 
ATOM     23  C   UNL     1       4.342   3.119  18.849  0.00  0.00    +0.000 A 
ATOM     24  C   UNL     1       4.923   4.374  18.908  0.00  0.00    +0.000 A 
ATOM     25 CL   UNL     1       6.506   4.617  18.273  0.00  0.00    +0.000 Cl
ATOM     26  C   UNL     1       4.235   5.443  19.481  0.00  0.00    +0.000 A 
ATOM     27  C   UNL     1       2.932   5.296  19.993  0.00  0.00    +0.000 A 
ENDBRANCH  16  27
ENDBRANCH   1  17
BRANCH   5  28
ATOM     28  C   UNL     1      -1.075  12.092  22.635  0.00  0.00    +0.000 C 
ATOM     29  F   UNL     1      -1.623  13.312  22.380  0.00  0.00    +0.000 F 
ATOM     30  F   UNL     1      -1.962  11.465  23.462  0.00  0.00    +0.000 F 
ENDBRANCH   5  28
TORSDOF 4
ENDMDL
MODEL 2
REMARK VINA RESULT:      -8.6      1.612      2.077
REMARK  Name = 
REMARK  5 active torsions:
REMARK  status: ('A' for Active; 'I' for Inactive)
REMARK    1  A    between atoms: C_1  and  C_2
REMARK    2  A    between atoms: C_8  and  N_9
REMARK    3  A    between atoms: C_10  and  C_12
REMARK    4  A    between atoms: C_16  and  C_17
REMARK    5  A    between atoms: C_21  and  C_22
REMARK                            x       y       z     vdW  Elec       q    Type
REMARK                         _______ _______ _______ _____ _____    ______ ____
ROOT
ATOM      1  C   UNL     1       1.176   8.555  20.855  0.00  0.00    +0.000 A 
ATOM      2  C   UNL     1       1.572   9.095  22.100  0.00  0.00    +0.000 A 
ATOM      3  N   UNL     1       1.007  10.265  22.379  0.00  0.00    +0.000 NA
ATOM      4  N   UNL     1       0.206  10.508  21.318  0.00  0.00    +0.000 N 
ATOM      5  C   UNL     1      -0.663  11.581  21.164  0.00  0.00    +0.000 A 
ATOM      6  C   UNL     1      -1.440  11.642  20.072  0.00  0.00    +0.000 A 
ATOM      7  C   UNL     1      -1.277  10.545  19.067  0.00  0.00    +0.000 A 
ATOM      8  N   UNL     1      -0.463   9.528  19.201  0.00  0.00    +0.000 NA
ATOM      9  C   UNL     1       0.287   9.486  20.349  0.00  0.00    +0.000 A 
ENDROOT
BRANCH   7  10
ATOM     10  C   UNL     1      -2.161  10.636  17.869  0.00  0.00    +0.000 A 
ATOM     11  C   UNL     1      -3.296  11.459  17.842  0.00  0.00    +0.000 A 
ATOM     12  C   UNL     1      -4.137  11.458  16.728  0.00  0.00    +0.000 A 
ATOM     13  C   UNL     1      -3.839  10.653  15.631  0.00  0.00    +0.000 A 
ATOM     14  C   UNL     1      -2.695   9.856  15.639  0.00  0.00    +0.000 A 
ATOM     15  C   UNL     1      -1.854   9.847  16.754  0.00  0.00    +0.000 A 
ENDBRANCH   7  10
BRANCH   1  17
ATOM     16  N   UNL     1       2.199   7.221  19.086  0.00  0.00    +0.000 N 
ATOM     17  C   UNL     1       1.647   7.272  20.362  0.00  0.00    +0.000 C 
ATOM     18  O   UNL     1       1.562   6.306  21.118  0.00  0.00    +0.000 OA
ATOM     19  H   UNL     1       2.394   8.111  18.642  0.00  0.00    +0.000 HD
BRANCH  16  27
ATOM     20  C   UNL     1       4.579   7.205  17.289  0.00  0.00    +0.000 C 
ATOM     21  C   UNL     1       3.744   5.991  17.590  0.00  0.00    +0.000 A 
ATOM     22  C   UNL     1       4.143   4.768  17.001  0.00  0.00    +0.000 A 
ATOM     23  C   UNL     1       3.442   3.586  17.233  0.00  0.00    +0.000 A 
ATOM     24  C   UNL     1       2.318   3.619  18.042  0.00  0.00    +0.000 A 
ATOM     25 CL   UNL     1       1.424   2.174  18.325  0.00  0.00    +0.000 Cl
ATOM     26  C   UNL     1       1.906   4.816  18.627  0.00  0.00    +0.000 A 
ATOM     27  C   UNL     1       2.618   6.015  18.441  0.00  0.00    +0.000 A 
ENDBRANCH  16  27
ENDBRANCH   1  17
BRANCH   5  28
ATOM     28  C   UNL     1      -0.713  12.578  22.269  0.00  0.00    +0.000 C 
ATOM     29  F   UNL     1      -1.492  13.639  21.918  0.00  0.00    +0.000 F 
ATOM     30  F   UNL     1      -1.311  12.042  23.373  0.00  0.00    +0.000 F 
ENDBRANCH   5  28
TORSDOF 4
ENDMDL
MODEL 3
REMARK VINA RESULT:      -8.5      4.350      8.685
REMARK  Name = 
REMARK  5 active torsions:
REMARK  status: ('A' for Active; 'I' for Inactive)
REMARK    1  A    between atoms: C_1  and  C_2
REMARK    2  A    between atoms: C_8  and  N_9
REMARK    3  A    between atoms: C_10  and  C_12
REMARK    4  A    between atoms: C_16  and  C_17
REMARK    5  A    between atoms: C_21  and  C_22
REMARK                            x       y       z     vdW  Elec       q    Type
REMARK                         _______ _______ _______ _____ _____    ______ ____
ROOT
ATOM      1  C   UNL     1       2.151   7.380  19.094  0.00  0.00    +0.000 A 
ATOM      2  C   UNL     1       1.624   6.887  20.310  0.00  0.00    +0.000 A 
ATOM      3  N   UNL     1       2.010   5.648  20.596  0.00  0.00    +0.000 NA
ATOM      4  N   UNL     1       2.823   5.308  19.572  0.00  0.00    +0.000 N 
ATOM      5  C   UNL     1       3.545   4.129  19.443  0.00  0.00    +0.000 A 
ATOM      6  C   UNL     1       4.360   3.973  18.388  0.00  0.00    +0.000 A 
ATOM      7  C   UNL     1       4.398   5.091  17.395  0.00  0.00    +0.000 A 
ATOM      8  N   UNL     1       3.723   6.208  17.505  0.00  0.00    +0.000 NA
ATOM      9  C   UNL     1       2.929   6.341  18.617  0.00  0.00    +0.000 A 
ENDROOT
BRANCH   7  10
ATOM     10  C   UNL     1       5.320   4.892  16.239  0.00  0.00    +0.000 A 
ATOM     11  C   UNL     1       6.636   5.374  16.245  0.00  0.00    +0.000 A 
ATOM     12  C   UNL     1       7.441   5.230  15.114  0.00  0.00    +0.000 A 
ATOM     13  C   UNL     1       6.943   4.590  13.982  0.00  0.00    +0.000 A 
ATOM     14  C   UNL     1       5.645   4.081  13.979  0.00  0.00    +0.000 A 
ATOM     15  C   UNL     1       4.833   4.228  15.106  0.00  0.00    +0.000 A 
ENDBRANCH   7  10
BRANCH   1  17
ATOM     16  N   UNL     1       1.168   9.590  19.415  0.00  0.00    +0.000 N 
ATOM     17  C   UNL     1       1.882   8.720  18.599  0.00  0.00    +0.000 C 
ATOM     18  O   UNL     1       2.334   9.019  17.496  0.00  0.00    +0.000 OA
ATOM     19  H   UNL     1       1.023   9.295  20.375  0.00  0.00    +0.000 HD
BRANCH  16  27
ATOM     20  C   UNL     1      -1.613  10.087  18.457  0.00  0.00    +0.000 C 
ATOM     21  C   UNL     1      -0.558  11.154  18.569  0.00  0.00    +0.000 A 
ATOM     22  C   UNL     1      -0.933  12.474  18.225  0.00  0.00    +0.000 A 
ATOM     23  C   UNL     1      -0.030  13.532  18.311  0.00  0.00    +0.000 A 
ATOM     24  C   UNL     1       1.267  13.277  18.724  0.00  0.00    +0.000 A 
ATOM     25 CL   UNL     1       2.406  14.566  18.817  0.00  0.00    +0.000 Cl
ATOM     26  C   UNL     1       1.657  11.981  19.063  0.00  0.00    +0.000 A 
ATOM     27  C   UNL     1       0.755  10.902  19.022  0.00  0.00    +0.000 A 
ENDBRANCH  16  27
ENDBRANCH   1  17
BRANCH   5  28
ATOM     28  C   UNL     1       3.404   3.124  20.532  0.00  0.00    +0.000 C 
ATOM     29  F   UNL     1       2.315   2.334  20.315  0.00  0.00    +0.000 F 
ATOM     30  F   UNL     1       4.470   2.271  20.538  0.00  0.00    +0.000 F 
ENDBRANCH   5  28
TORSDOF 4
ENDMDL
MODEL 4
REMARK VINA RESULT:      -8.5      1.626      2.310
REMARK  Name = 
REMARK  5 active torsions:
REMARK  status: ('A' for Active; 'I' for Inactive)
REMARK    1  A    between atoms: C_1  and  C_2
REMARK    2  A    between atoms: C_8  and  N_9
REMARK    3  A    between atoms: C_10  and  C_12
REMARK    4  A    between atoms: C_16  and  C_17
REMARK    5  A    between atoms: C_21  and  C_22
REMARK                            x       y       z     vdW  Elec       q    Type
REMARK                         _______ _______ _______ _____ _____    ______ ____
ROOT
ATOM      1  C   UNL     1       1.179   8.542  20.856  0.00  0.00    +0.000 A 
ATOM      2  C   UNL     1       1.575   9.095  22.096  0.00  0.00    +0.000 A 
ATOM      3  N   UNL     1       0.993  10.257  22.372  0.00  0.00    +0.000 NA
ATOM      4  N   UNL     1       0.181  10.482  21.315  0.00  0.00    +0.000 N 
ATOM      5  C   UNL     1      -0.705  11.540  21.162  0.00  0.00    +0.000 A 
ATOM      6  C   UNL     1      -1.490  11.583  20.074  0.00  0.00    +0.000 A 
ATOM      7  C   UNL     1      -1.317  10.483  19.074  0.00  0.00    +0.000 A 
ATOM      8  N   UNL     1      -0.485   9.480  19.208  0.00  0.00    +0.000 NA
ATOM      9  C   UNL     1       0.273   9.456  20.351  0.00  0.00    +0.000 A 
ENDROOT
BRANCH   7  10
ATOM     10  C   UNL     1      -2.210  10.554  17.881  0.00  0.00    +0.000 A 
ATOM     11  C   UNL     1      -1.929   9.854  16.699  0.00  0.00    +0.000 A 
ATOM     12  C   UNL     1      -2.752  10.006  15.582  0.00  0.00    +0.000 A 
ATOM     13  C   UNL     1      -3.865  10.840  15.645  0.00  0.00    +0.000 A 
ATOM     14  C   UNL     1      -4.167  11.516  16.827  0.00  0.00    +0.000 A 
ATOM     15  C   UNL     1      -3.343  11.372  17.946  0.00  0.00    +0.000 A 
ENDBRANCH   7  10
BRANCH   1  17
ATOM     16  N   UNL     1       2.205   7.213  19.085  0.00  0.00    +0.000 N 
ATOM     17  C   UNL     1       1.668   7.264  20.367  0.00  0.00    +0.000 C 
ATOM     18  O   UNL     1       1.609   6.303  21.131  0.00  0.00    +0.000 OA
ATOM     19  H   UNL     1       2.379   8.104  18.632  0.00  0.00    +0.000 HD
BRANCH  16  27
ATOM     20  C   UNL     1       4.598   7.215  17.304  0.00  0.00    +0.000 C 
ATOM     21  C   UNL     1       3.770   5.995  17.600  0.00  0.00    +0.000 A 
ATOM     22  C   UNL     1       4.183   4.774  17.015  0.00  0.00    +0.000 A 
ATOM     23  C   UNL     1       3.490   3.587  17.243  0.00  0.00    +0.000 A 
ATOM     24  C   UNL     1       2.360   3.612  18.044  0.00  0.00    +0.000 A 
ATOM     25 CL   UNL     1       1.475   2.160  18.322  0.00  0.00    +0.000 Cl
ATOM     26  C   UNL     1       1.934   4.805  18.625  0.00  0.00    +0.000 A 
ATOM     27  C   UNL     1       2.638   6.011  18.443  0.00  0.00    +0.000 A 
ENDBRANCH  16  27
ENDBRANCH   1  17
BRANCH   5  28
ATOM     28  C   UNL     1      -0.764  12.543  22.261  0.00  0.00    +0.000 C 
ATOM     29  F   UNL     1       0.255  13.439  22.144  0.00  0.00    +0.000 F 
ATOM     30  F   UNL     1      -1.906  13.285  22.173  0.00  0.00    +0.000 F 
ENDBRANCH   5  28
TORSDOF 4
ENDMDL
MODEL 5
REMARK VINA RESULT:      -8.1      4.042      8.528
REMARK  Name = 
REMARK  5 active torsions:
REMARK  status: ('A' for Active; 'I' for Inactive)
REMARK    1  A    between atoms: C_1  and  C_2
REMARK    2  A    between atoms: C_8  and  N_9
REMARK    3  A    between atoms: C_10  and  C_12
REMARK    4  A    between atoms: C_16  and  C_17
REMARK    5  A    between atoms: C_21  and  C_22
REMARK                            x       y       z     vdW  Elec       q    Type
REMARK                         _______ _______ _______ _____ _____    ______ ____
ROOT
ATOM      1  C   UNL     1       1.762   7.939  19.618  0.00  0.00    +0.000 A 
ATOM      2  C   UNL     1       1.044   7.498  20.755  0.00  0.00    +0.000 A 
ATOM      3  N   UNL     1       1.306   6.242  21.097  0.00  0.00    +0.000 NA
ATOM      4  N   UNL     1       2.225   5.835  20.194  0.00  0.00    +0.000 N 
ATOM      5  C   UNL     1       2.878   4.610  20.170  0.00  0.00    +0.000 A 
ATOM      6  C   UNL     1       3.815   4.386  19.235  0.00  0.00    +0.000 A 
ATOM      7  C   UNL     1       4.060   5.485  18.250  0.00  0.00    +0.000 A 
ATOM      8  N   UNL     1       3.451   6.645  18.262  0.00  0.00    +0.000 NA
ATOM      9  C   UNL     1       2.526   6.845  19.256  0.00  0.00    +0.000 A 
ENDROOT
BRANCH   7  10
ATOM     10  C   UNL     1       5.114   5.210  17.230  0.00  0.00    +0.000 A 
ATOM     11  C   UNL     1       4.861   5.306  15.855  0.00  0.00    +0.000 A 
ATOM     12  C   UNL     1       5.854   4.968  14.934  0.00  0.00    +0.000 A 
ATOM     13  C   UNL     1       7.105   4.552  15.380  0.00  0.00    +0.000 A 
ATOM     14  C   UNL     1       7.374   4.484  16.747  0.00  0.00    +0.000 A 
ATOM     15  C   UNL     1       6.381   4.814  17.673  0.00  0.00    +0.000 A 
ENDBRANCH   7  10
BRANCH   1  17
ATOM     16  N   UNL     1       0.984  10.241  19.844  0.00  0.00    +0.000 N 
ATOM     17  C   UNL     1       1.651   9.286  19.085  0.00  0.00    +0.000 C 
ATOM     18  O   UNL     1       2.186   9.513  18.001  0.00  0.00    +0.000 OA
ATOM     19  H   UNL     1       0.761   9.984  20.800  0.00  0.00    +0.000 HD
BRANCH  16  27
ATOM     20  C   UNL     1      -1.513  10.887  18.346  0.00  0.00    +0.000 C 
ATOM     21  C   UNL     1      -0.457  11.899  18.698  0.00  0.00    +0.000 A 
ATOM     22  C   UNL     1      -0.691  13.241  18.313  0.00  0.00    +0.000 A 
ATOM     23  C   UNL     1       0.223  14.251  18.608  0.00  0.00    +0.000 A 
ATOM     24  C   UNL     1       1.393  13.926  19.273  0.00  0.00    +0.000 A 
ATOM     25 CL   UNL     1       2.546  15.156  19.628  0.00  0.00    +0.000 Cl
ATOM     26  C   UNL     1       1.645  12.609  19.655  0.00  0.00    +0.000 A 
ATOM     27  C   UNL     1       0.722  11.576  19.405  0.00  0.00    +0.000 A 
ENDBRANCH  16  27
ENDBRANCH   1  17
BRANCH   5  28
ATOM     28  C   UNL     1       2.526   3.631  21.236  0.00  0.00    +0.000 C 
ATOM     29  F   UNL     1       1.276   3.130  21.029  0.00  0.00    +0.000 F 
ATOM     30  F   UNL     1       3.359   2.550  21.189  0.00  0.00    +0.000 F 
ENDBRANCH   5  28
TORSDOF 4
ENDMDL
MODEL 6
REMARK VINA RESULT:      -7.9      4.668      8.459
REMARK  Name = 
REMARK  5 active torsions:
REMARK  status: ('A' for Active; 'I' for Inactive)
REMARK    1  A    between atoms: C_1  and  C_2
REMARK    2  A    between atoms: C_8  and  N_9
REMARK    3  A    between atoms: C_10  and  C_12
REMARK    4  A    between atoms: C_16  and  C_17
REMARK    5  A    between atoms: C_21  and  C_22
REMARK                            x       y       z     vdW  Elec       q    Type
REMARK                         _______ _______ _______ _____ _____    ______ ____
ROOT
ATOM      1  C   UNL     1       1.292   9.557  18.829  0.00  0.00    +0.000 A 
ATOM      2  C   UNL     1       2.061  10.251  17.867  0.00  0.00    +0.000 A 
ATOM      3  N   UNL     1       3.041   9.525  17.341  0.00  0.00    +0.000 NA
ATOM      4  N   UNL     1       2.920   8.319  17.941  0.00  0.00    +0.000 N 
ATOM      5  C   UNL     1       3.671   7.182  17.674  0.00  0.00    +0.000 A 
ATOM      6  C   UNL     1       3.380   6.041  18.318  0.00  0.00    +0.000 A 
ATOM      7  C   UNL     1       2.271   6.097  19.320  0.00  0.00    +0.000 A 
ATOM      8  N   UNL     1       1.555   7.162  19.581  0.00  0.00    +0.000 NA
ATOM      9  C   UNL     1       1.863   8.298  18.874  0.00  0.00    +0.000 A 
ENDROOT
BRANCH   7  10
ATOM     10  C   UNL     1       1.966   4.810  20.012  0.00  0.00    +0.000 A 
ATOM     11  C   UNL     1       2.393   4.551  21.322  0.00  0.00    +0.000 A 
ATOM     12  C   UNL     1       2.150   3.306  21.905  0.00  0.00    +0.000 A 
ATOM     13  C   UNL     1       1.465   2.325  21.192  0.00  0.00    +0.000 A 
ATOM     14  C   UNL     1       1.011   2.587  19.900  0.00  0.00    +0.000 A 
ATOM     15  C   UNL     1       1.258   3.828  19.310  0.00  0.00    +0.000 A 
ENDBRANCH   7  10
BRANCH   1  17
ATOM     16  N   UNL     1       0.400  11.022  20.565  0.00  0.00    +0.000 N 
ATOM     17  C   UNL     1       0.153  10.149  19.511  0.00  0.00    +0.000 C 
ATOM     18  O   UNL     1      -0.968   9.869  19.092  0.00  0.00    +0.000 OA
ATOM     19  H   UNL     1       1.360  11.325  20.687  0.00  0.00    +0.000 HD
BRANCH  16  27
ATOM     20  C   UNL     1      -0.403   9.746  23.139  0.00  0.00    +0.000 C 
ATOM     21  C   UNL     1      -1.010  11.014  22.603  0.00  0.00    +0.000 A 
ATOM     22  C   UNL     1      -1.999  11.644  23.394  0.00  0.00    +0.000 A 
ATOM     23  C   UNL     1      -2.608  12.831  22.989  0.00  0.00    +0.000 A 
ATOM     24  C   UNL     1      -2.248  13.390  21.774  0.00  0.00    +0.000 A 
ATOM     25 CL   UNL     1      -3.003  14.845  21.243  0.00  0.00    +0.000 Cl
ATOM     26  C   UNL     1      -1.279  12.781  20.978  0.00  0.00    +0.000 A 
ATOM     27  C   UNL     1      -0.621  11.604  21.381  0.00  0.00    +0.000 A 
ENDBRANCH  16  27
ENDBRANCH   1  17
BRANCH   5  28
ATOM     28  C   UNL     1       4.729   7.296  16.633  0.00  0.00    +0.000 C 
ATOM     29  F   UNL     1       5.960   7.381  17.211  0.00  0.00    +0.000 F 
ATOM     30  F   UNL     1       4.771   6.167  15.866  0.00  0.00    +0.000 F 
ENDBRANCH   5  28
TORSDOF 4
ENDMDL
MODEL 7
REMARK VINA RESULT:      -7.9      1.201      1.551
REMARK  Name = 
REMARK  5 active torsions:
REMARK  status: ('A' for Active; 'I' for Inactive)
REMARK    1  A    between atoms: C_1  and  C_2
REMARK    2  A    between atoms: C_8  and  N_9
REMARK    3  A    between atoms: C_10  and  C_12
REMARK    4  A    between atoms: C_16  and  C_17
REMARK    5  A    between atoms: C_21  and  C_22
REMARK                            x       y       z     vdW  Elec       q    Type
REMARK                         _______ _______ _______ _____ _____    ______ ____
ROOT
ATOM      1  C   UNL     1       1.567   8.835  19.770  0.00  0.00    +0.000 A 
ATOM      2  C   UNL     1       1.999   8.979  21.109  0.00  0.00    +0.000 A 
ATOM      3  N   UNL     1       1.229   9.781  21.836  0.00  0.00    +0.000 NA
ATOM      4  N   UNL     1       0.255  10.169  20.983  0.00  0.00    +0.000 N 
ATOM      5  C   UNL     1      -0.846  10.959  21.286  0.00  0.00    +0.000 A 
ATOM      6  C   UNL     1      -1.760  11.201  20.334  0.00  0.00    +0.000 A 
ATOM      7  C   UNL     1      -1.494  10.618  18.982  0.00  0.00    +0.000 A 
ATOM      8  N   UNL     1      -0.461   9.871  18.683  0.00  0.00    +0.000 NA
ATOM      9  C   UNL     1       0.430   9.619  19.696  0.00  0.00    +0.000 A 
ENDROOT
BRANCH   7  10
ATOM     10  C   UNL     1      -2.533  10.897  17.948  0.00  0.00    +0.000 A 
ATOM     11  C   UNL     1      -2.338  10.586  16.595  0.00  0.00    +0.000 A 
ATOM     12  C   UNL     1      -3.305  10.931  15.649  0.00  0.00    +0.000 A 
ATOM     13  C   UNL     1      -4.475  11.569  16.051  0.00  0.00    +0.000 A 
ATOM     14  C   UNL     1      -4.690  11.854  17.400  0.00  0.00    +0.000 A 
ATOM     15  C   UNL     1      -3.722  11.517  18.348  0.00  0.00    +0.000 A 
ENDBRANCH   7  10
BRANCH   1  17
ATOM     16  N   UNL     1       2.609   6.702  19.204  0.00  0.00    +0.000 N 
ATOM     17  C   UNL     1       2.244   7.984  18.806  0.00  0.00    +0.000 C 
ATOM     18  O   UNL     1       2.425   8.436  17.678  0.00  0.00    +0.000 OA
ATOM     19  H   UNL     1       2.231   6.378  20.088  0.00  0.00    +0.000 HD
BRANCH  16  27
ATOM     20  C   UNL     1       1.452   4.074  18.399  0.00  0.00    +0.000 C 
ATOM     21  C   UNL     1       2.823   4.547  18.001  0.00  0.00    +0.000 A 
ATOM     22  C   UNL     1       3.587   3.694  17.169  0.00  0.00    +0.000 A 
ATOM     23  C   UNL     1       4.862   4.053  16.736  0.00  0.00    +0.000 A 
ATOM     24  C   UNL     1       5.397   5.261  17.148  0.00  0.00    +0.000 A 
ATOM     25 CL   UNL     1       6.981   5.714  16.642  0.00  0.00    +0.000 Cl
ATOM     26  C   UNL     1       4.663   6.112  17.973  0.00  0.00    +0.000 A 
ATOM     27  C   UNL     1       3.358   5.793  18.393  0.00  0.00    +0.000 A 
ENDBRANCH  16  27
ENDBRANCH   1  17
BRANCH   5  28
ATOM     28  C   UNL     1      -0.967  11.447  22.688  0.00  0.00    +0.000 C 
ATOM     29  F   UNL     1      -1.928  12.407  22.778  0.00  0.00    +0.000 F 
ATOM     30  F   UNL     1      -1.386  10.441  23.511  0.00  0.00    +0.000 F 
ENDBRANCH   5  28
TORSDOF 4
ENDMDL
MODEL 8
REMARK VINA RESULT:      -7.9      4.045      8.560
REMARK  Name = 
REMARK  5 active torsions:
REMARK  status: ('A' for Active; 'I' for Inactive)
REMARK    1  A    between atoms: C_1  and  C_2
REMARK    2  A    between atoms: C_8  and  N_9
REMARK    3  A    between atoms: C_10  and  C_12
REMARK    4  A    between atoms: C_16  and  C_17
REMARK    5  A    between atoms: C_21  and  C_22
REMARK                            x       y       z     vdW  Elec       q    Type
REMARK                         _______ _______ _______ _____ _____    ______ ____
ROOT
ATOM      1  C   UNL     1       1.962   7.206  19.552  0.00  0.00    +0.000 A 
ATOM      2  C   UNL     1       1.303   6.595  20.643  0.00  0.00    +0.000 A 
ATOM      3  N   UNL     1       1.602   5.309  20.796  0.00  0.00    +0.000 NA
ATOM      4  N   UNL     1       2.488   5.054  19.807  0.00  0.00    +0.000 N 
ATOM      5  C   UNL     1       3.161   3.861  19.586  0.00  0.00    +0.000 A 
ATOM      6  C   UNL     1       4.061   3.792  18.593  0.00  0.00    +0.000 A 
ATOM      7  C   UNL     1       4.243   5.023  17.762  0.00  0.00    +0.000 A 
ATOM      8  N   UNL     1       3.615   6.155  17.961  0.00  0.00    +0.000 NA
ATOM      9  C   UNL     1       2.730   6.192  19.009  0.00  0.00    +0.000 A 
ENDROOT
BRANCH   7  10
ATOM     10  C   UNL     1       5.257   4.918  16.672  0.00  0.00    +0.000 A 
ATOM     11  C   UNL     1       6.451   5.652  16.694  0.00  0.00    +0.000 A 
ATOM     12  C   UNL     1       7.338   5.580  15.618  0.00  0.00    +0.000 A 
ATOM     13  C   UNL     1       7.046   4.763  14.528  0.00  0.00    +0.000 A 
ATOM     14  C   UNL     1       5.875   4.006  14.515  0.00  0.00    +0.000 A 
ATOM     15  C   UNL     1       4.981   4.081  15.585  0.00  0.00    +0.000 A 
ENDBRANCH   7  10
BRANCH   1  17
ATOM     16  N   UNL     1       0.898   9.365  19.955  0.00  0.00    +0.000 N 
ATOM     17  C   UNL     1       1.805   8.612  19.217  0.00  0.00    +0.000 C 
ATOM     18  O   UNL     1       2.511   9.064  18.318  0.00  0.00    +0.000 OA
ATOM     19  H   UNL     1       0.525   8.931  20.793  0.00  0.00    +0.000 HD
BRANCH  16  27
ATOM     20  C   UNL     1      -1.127  10.059  17.877  0.00  0.00    +0.000 C 
ATOM     21  C   UNL     1      -0.382  11.075  18.700  0.00  0.00    +0.000 A 
ATOM     22  C   UNL     1      -0.695  12.438  18.484  0.00  0.00    +0.000 A 
ATOM     23  C   UNL     1      -0.070  13.451  19.208  0.00  0.00    +0.000 A 
ATOM     24  C   UNL     1       0.893  13.112  20.144  0.00  0.00    +0.000 A 
ATOM     25 CL   UNL     1       1.695  14.350  21.036  0.00  0.00    +0.000 Cl
ATOM     26  C   UNL     1       1.220  11.775  20.367  0.00  0.00    +0.000 A 
ATOM     27  C   UNL     1       0.576  10.730  19.677  0.00  0.00    +0.000 A 
ENDBRANCH  16  27
ENDBRANCH   1  17
BRANCH   5  28
ATOM     28  C   UNL     1       2.873   2.735  20.517  0.00  0.00    +0.000 C 
ATOM     29  F   UNL     1       2.910   3.164  21.809  0.00  0.00    +0.000 F 
ATOM     30  F   UNL     1       1.603   2.270  20.329  0.00  0.00    +0.000 F 
ENDBRANCH   5  28
TORSDOF 4
ENDMDL
MODEL 9
REMARK VINA RESULT:      -7.8      4.665      7.119
REMARK  Name = 
REMARK  5 active torsions:
REMARK  status: ('A' for Active; 'I' for Inactive)
REMARK    1  A    between atoms: C_1  and  C_2
REMARK    2  A    between atoms: C_8  and  N_9
REMARK    3  A    between atoms: C_10  and  C_12
REMARK    4  A    between atoms: C_16  and  C_17
REMARK    5  A    between atoms: C_21  and  C_22
REMARK                            x       y       z     vdW  Elec       q    Type
REMARK                         _______ _______ _______ _____ _____    ______ ____
ROOT
ATOM      1  C   UNL     1       4.359   4.380  17.294  0.00  0.00    +0.000 A 
ATOM      2  C   UNL     1       4.374   3.025  17.698  0.00  0.00    +0.000 A 
ATOM      3  N   UNL     1       3.693   2.794  18.815  0.00  0.00    +0.000 NA
ATOM      4  N   UNL     1       3.197   4.003  19.159  0.00  0.00    +0.000 N 
ATOM      5  C   UNL     1       2.347   4.279  20.221  0.00  0.00    +0.000 A 
ATOM      6  C   UNL     1       1.892   5.531  20.388  0.00  0.00    +0.000 A 
ATOM      7  C   UNL     1       2.379   6.559  19.416  0.00  0.00    +0.000 A 
ATOM      8  N   UNL     1       3.181   6.312  18.410  0.00  0.00    +0.000 NA
ATOM      9  C   UNL     1       3.593   5.012  18.256  0.00  0.00    +0.000 A 
ENDROOT
BRANCH   7  10
ATOM     10  C   UNL     1       1.849   7.938  19.622  0.00  0.00    +0.000 A 
ATOM     11  C   UNL     1       1.356   8.368  20.862  0.00  0.00    +0.000 A 
ATOM     12  C   UNL     1       0.801   9.643  20.992  0.00  0.00    +0.000 A 
ATOM     13  C   UNL     1       0.754  10.497  19.894  0.00  0.00    +0.000 A 
ATOM     14  C   UNL     1       1.271  10.087  18.665  0.00  0.00    +0.000 A 
ATOM     15  C   UNL     1       1.821   8.811  18.528  0.00  0.00    +0.000 A 
ENDBRANCH   7  10
BRANCH   1  17
ATOM     16  N   UNL     1       5.483   3.909  15.179  0.00  0.00    +0.000 N 
ATOM     17  C   UNL     1       5.015   4.854  16.086  0.00  0.00    +0.000 C 
ATOM     18  O   UNL     1       5.088   6.069  15.920  0.00  0.00    +0.000 OA
ATOM     19  H   UNL     1       5.189   2.950  15.332  0.00  0.00    +0.000 HD
BRANCH  16  27
ATOM     20  C   UNL     1       4.546   2.996  12.499  0.00  0.00    +0.000 C 
ATOM     21  C   UNL     1       5.794   3.807  12.723  0.00  0.00    +0.000 A 
ATOM     22  C   UNL     1       6.541   4.176  11.580  0.00  0.00    +0.000 A 
ATOM     23  C   UNL     1       7.702   4.939  11.686  0.00  0.00    +0.000 A 
ATOM     24  C   UNL     1       8.141   5.324  12.941  0.00  0.00    +0.000 A 
ATOM     25 CL   UNL     1       9.586   6.250  13.097  0.00  0.00    +0.000 Cl
ATOM     26  C   UNL     1       7.422   4.965  14.080  0.00  0.00    +0.000 A 
ATOM     27  C   UNL     1       6.225   4.228  13.999  0.00  0.00    +0.000 A 
ENDBRANCH  16  27
ENDBRANCH   1  17
BRANCH   5  28
ATOM     28  C   UNL     1       1.946   3.134  21.086  0.00  0.00    +0.000 C 
ATOM     29  F   UNL     1       2.180   3.421  22.396  0.00  0.00    +0.000 F 
ATOM     30  F   UNL     1       0.601   2.916  21.000  0.00  0.00    +0.000 F 
ENDBRANCH   5  28
TORSDOF 4
ENDMDL
