MODEL 1
REMARK VINA RESULT:      -6.9      0.000      0.000
REMARK  Name = 
REMARK  4 active torsions:
REMARK  status: ('A' for Active; 'I' for Inactive)
REMARK    1  A    between atoms: C_1  and  C_2
REMARK    2  A    between atoms: C_2  and  O_3
REMARK    3  A    between atoms: O_3  and  C_4
REMARK    4  A    between atoms: N_12  and  C_13
REMARK                            x       y       z     vdW  Elec       q    Type
REMARK                         _______ _______ _______ _____ _____    ______ ____
ROOT
ATOM      1  C   UNL     1       1.551   5.574  20.343  0.00  0.00    +0.000 C 
ATOM      2  O   UNL     1       1.464   6.607  20.997  0.00  0.00    +0.000 OA
ATOM      3  N   UNL     1       2.017   5.523  19.047  0.00  0.00    +0.000 N 
ATOM      4  C   UNL     1       2.541   6.742  18.436  0.00  0.00    +0.000 C 
ATOM      5  C   UNL     1       4.028   6.577  18.112  0.00  0.00    +0.000 C 
ATOM      6  N   UNL     1       4.247   5.383  17.280  0.00  0.00    +0.000 N 
ATOM      7  C   UNL     1       5.040   5.530  16.152  0.00  0.00    +0.000 C 
ATOM      8  O   UNL     1       5.556   6.621  15.901  0.00  0.00    +0.000 OA
ATOM      9  N   UNL     1       5.166   4.422  15.348  0.00  0.00    +0.000 N 
ATOM     10  C   UNL     1       3.734   4.140  17.879  0.00  0.00    +0.000 C 
ATOM     11  C   UNL     1       2.253   4.286  18.292  0.00  0.00    +0.000 C 
ATOM     12  H   UNL     1       4.445   3.725  15.424  0.00  0.00    +0.000 HD
ENDROOT
BRANCH   9  13
ATOM     13  C   UNL     1       5.964   4.348  14.178  0.00  0.00    +0.000 A 
ATOM     14  C   UNL     1       7.148   5.076  14.008  0.00  0.00    +0.000 A 
ATOM     15  C   UNL     1       7.869   5.006  12.816  0.00  0.00    +0.000 A 
ATOM     16  C   UNL     1       7.429   4.189  11.779  0.00  0.00    +0.000 A 
ATOM     17  C   UNL     1       6.272   3.432  11.944  0.00  0.00    +0.000 A 
ATOM     18  C   UNL     1       5.548   3.503  13.141  0.00  0.00    +0.000 A 
ENDBRANCH   9  13
BRANCH   1  19
ATOM     19  O   UNL     1       1.272   4.342  20.841  0.00  0.00    +0.000 OA
BRANCH  19  21
ATOM     20  C   UNL     1       2.082   2.301  21.778  0.00  0.00    +0.000 C 
ATOM     21  C   UNL     1       2.269   3.807  21.721  0.00  0.00    +0.000 C 
ENDBRANCH  19  21
ENDBRANCH   1  19
TORSDOF 3
ENDMDL
MODEL 2
REMARK VINA RESULT:      -6.7      1.347      1.569
REMARK  Name = 
REMARK  4 active torsions:
REMARK  status: ('A' for Active; 'I' for Inactive)
REMARK    1  A    between atoms: C_1  and  C_2
REMARK    2  A    between atoms: C_2  and  O_3
REMARK    3  A    between atoms: O_3  and  C_4
REMARK    4  A    between atoms: N_12  and  C_13
REMARK                            x       y       z     vdW  Elec       q    Type
REMARK                         _______ _______ _______ _____ _____    ______ ____
ROOT
ATOM      1  C   UNL     1       2.107   4.656  20.580  0.00  0.00    +0.000 C 
ATOM      2  O   UNL     1       2.558   4.674  21.719  0.00  0.00    +0.000 OA
ATOM      3  N   UNL     1       2.832   5.009  19.462  0.00  0.00    +0.000 N 
ATOM      4  C   UNL     1       4.250   5.324  19.609  0.00  0.00    +0.000 C 
ATOM      5  C   UNL     1       5.103   4.313  18.840  0.00  0.00    +0.000 C 
ATOM      6  N   UNL     1       4.679   4.243  17.432  0.00  0.00    +0.000 N 
ATOM      7  C   UNL     1       5.671   4.311  16.466  0.00  0.00    +0.000 C 
ATOM      8  O   UNL     1       6.853   4.392  16.801  0.00  0.00    +0.000 OA
ATOM      9  N   UNL     1       5.245   4.324  15.158  0.00  0.00    +0.000 N 
ATOM     10  C   UNL     1       3.255   3.918  17.258  0.00  0.00    +0.000 C 
ATOM     11  C   UNL     1       2.357   4.869  18.079  0.00  0.00    +0.000 C 
ATOM     12  H   UNL     1       4.298   4.620  14.995  0.00  0.00    +0.000 HD
ENDROOT
BRANCH   9  13
ATOM     13  C   UNL     1       6.095   4.344  14.023  0.00  0.00    +0.000 A 
ATOM     14  C   UNL     1       7.195   5.201  13.902  0.00  0.00    +0.000 A 
ATOM     15  C   UNL     1       7.969   5.217  12.740  0.00  0.00    +0.000 A 
ATOM     16  C   UNL     1       7.667   4.358  11.688  0.00  0.00    +0.000 A 
ATOM     17  C   UNL     1       6.597   3.475  11.805  0.00  0.00    +0.000 A 
ATOM     18  C   UNL     1       5.820   3.461  12.971  0.00  0.00    +0.000 A 
ENDBRANCH   9  13
BRANCH   1  19
ATOM     19  O   UNL     1       0.862   4.211  20.268  0.00  0.00    +0.000 OA
BRANCH  19  21
ATOM     20  C   UNL     1       0.579   2.213  18.993  0.00  0.00    +0.000 C 
ATOM     21  C   UNL     1       0.680   2.794  20.393  0.00  0.00    +0.000 C 
ENDBRANCH  19  21
ENDBRANCH   1  19
TORSDOF 3
ENDMDL
MODEL 3
REMARK VINA RESULT:      -6.7      0.147      1.085
REMARK  Name = 
REMARK  4 active torsions:
REMARK  status: ('A' for Active; 'I' for Inactive)
REMARK    1  A    between atoms: C_1  and  C_2
REMARK    2  A    between atoms: C_2  and  O_3
REMARK    3  A    between atoms: O_3  and  C_4
REMARK    4  A    between atoms: N_12  and  C_13
REMARK                            x       y       z     vdW  Elec       q    Type
REMARK                         _______ _______ _______ _____ _____    ______ ____
ROOT
ATOM      1  C   UNL     1       1.572   5.754  20.305  0.00  0.00    +0.000 C 
ATOM      2  O   UNL     1       1.534   6.796  20.948  0.00  0.00    +0.000 OA
ATOM      3  N   UNL     1       2.015   5.673  19.002  0.00  0.00    +0.000 N 
ATOM      4  C   UNL     1       2.574   6.865  18.370  0.00  0.00    +0.000 C 
ATOM      5  C   UNL     1       4.048   6.643  18.024  0.00  0.00    +0.000 C 
ATOM      6  N   UNL     1       4.210   5.434  17.201  0.00  0.00    +0.000 N 
ATOM      7  C   UNL     1       4.990   5.541  16.060  0.00  0.00    +0.000 C 
ATOM      8  O   UNL     1       5.540   6.609  15.788  0.00  0.00    +0.000 OA
ATOM      9  N   UNL     1       5.062   4.420  15.265  0.00  0.00    +0.000 N 
ATOM     10  C   UNL     1       3.662   4.217  17.822  0.00  0.00    +0.000 C 
ATOM     11  C   UNL     1       2.195   4.420  18.257  0.00  0.00    +0.000 C 
ATOM     12  H   UNL     1       4.318   3.751  15.361  0.00  0.00    +0.000 HD
ENDROOT
BRANCH   9  13
ATOM     13  C   UNL     1       5.838   4.305  14.084  0.00  0.00    +0.000 A 
ATOM     14  C   UNL     1       5.471   3.499  12.999  0.00  0.00    +0.000 A 
ATOM     15  C   UNL     1       6.296   3.381  11.881  0.00  0.00    +0.000 A 
ATOM     16  C   UNL     1       7.495   4.086  11.819  0.00  0.00    +0.000 A 
ATOM     17  C   UNL     1       7.859   4.919  12.874  0.00  0.00    +0.000 A 
ATOM     18  C   UNL     1       7.029   5.035  13.997  0.00  0.00    +0.000 A 
ENDBRANCH   9  13
BRANCH   1  19
ATOM     19  O   UNL     1       1.258   4.538  20.820  0.00  0.00    +0.000 OA
BRANCH  19  21
ATOM     20  C   UNL     1       1.976   2.450  21.727  0.00  0.00    +0.000 C 
ATOM     21  C   UNL     1       2.290   3.931  21.608  0.00  0.00    +0.000 C 
ENDBRANCH  19  21
ENDBRANCH   1  19
TORSDOF 3
ENDMDL
MODEL 4
REMARK VINA RESULT:      -6.6      2.115      7.733
REMARK  Name = 
REMARK  4 active torsions:
REMARK  status: ('A' for Active; 'I' for Inactive)
REMARK    1  A    between atoms: C_1  and  C_2
REMARK    2  A    between atoms: C_2  and  O_3
REMARK    3  A    between atoms: O_3  and  C_4
REMARK    4  A    between atoms: N_12  and  C_13
REMARK                            x       y       z     vdW  Elec       q    Type
REMARK                         _______ _______ _______ _____ _____    ______ ____
ROOT
ATOM      1  C   UNL     1       7.548   5.007  13.469  0.00  0.00    +0.000 C 
ATOM      2  O   UNL     1       8.466   5.818  13.432  0.00  0.00    +0.000 OA
ATOM      3  N   UNL     1       7.033   4.485  14.636  0.00  0.00    +0.000 N 
ATOM      4  C   UNL     1       7.522   4.994  15.915  0.00  0.00    +0.000 C 
ATOM      5  C   UNL     1       6.390   5.680  16.683  0.00  0.00    +0.000 C 
ATOM      6  N   UNL     1       5.242   4.772  16.834  0.00  0.00    +0.000 N 
ATOM      7  C   UNL     1       4.685   4.655  18.098  0.00  0.00    +0.000 C 
ATOM      8  O   UNL     1       5.133   5.322  19.032  0.00  0.00    +0.000 OA
ATOM      9  N   UNL     1       3.666   3.742  18.232  0.00  0.00    +0.000 N 
ATOM     10  C   UNL     1       4.725   4.252  15.557  0.00  0.00    +0.000 C 
ATOM     11  C   UNL     1       5.851   3.616  14.713  0.00  0.00    +0.000 C 
ATOM     12  H   UNL     1       3.622   3.010  17.543  0.00  0.00    +0.000 HD
ENDROOT
BRANCH   9  13
ATOM     13  C   UNL     1       2.935   3.502  19.423  0.00  0.00    +0.000 A 
ATOM     14  C   UNL     1       3.410   2.698  20.467  0.00  0.00    +0.000 A 
ATOM     15  C   UNL     1       2.627   2.453  21.597  0.00  0.00    +0.000 A 
ATOM     16  C   UNL     1       1.364   3.026  21.710  0.00  0.00    +0.000 A 
ATOM     17  C   UNL     1       0.891   3.855  20.697  0.00  0.00    +0.000 A 
ATOM     18  C   UNL     1       1.676   4.099  19.563  0.00  0.00    +0.000 A 
ENDBRANCH   9  13
BRANCH   1  19
ATOM     19  O   UNL     1       6.873   4.580  12.371  0.00  0.00    +0.000 OA
BRANCH  19  21
ATOM     20  C   UNL     1       6.071   2.489  11.546  0.00  0.00    +0.000 C 
ATOM     21  C   UNL     1       7.307   3.318  11.849  0.00  0.00    +0.000 C 
ENDBRANCH  19  21
ENDBRANCH   1  19
TORSDOF 3
ENDMDL
MODEL 5
REMARK VINA RESULT:      -6.6      3.717      8.072
REMARK  Name = 
REMARK  4 active torsions:
REMARK  status: ('A' for Active; 'I' for Inactive)
REMARK    1  A    between atoms: C_1  and  C_2
REMARK    2  A    between atoms: C_2  and  O_3
REMARK    3  A    between atoms: O_3  and  C_4
REMARK    4  A    between atoms: N_12  and  C_13
REMARK                            x       y       z     vdW  Elec       q    Type
REMARK                         _______ _______ _______ _____ _____    ______ ____
ROOT
ATOM      1  C   UNL     1       4.445   3.910  17.997  0.00  0.00    +0.000 C 
ATOM      2  O   UNL     1       4.810   3.874  16.828  0.00  0.00    +0.000 OA
ATOM      3  N   UNL     1       4.124   5.073  18.665  0.00  0.00    +0.000 N 
ATOM      4  C   UNL     1       4.110   6.332  17.925  0.00  0.00    +0.000 C 
ATOM      5  C   UNL     1       2.697   6.920  17.902  0.00  0.00    +0.000 C 
ATOM      6  N   UNL     1       2.171   7.057  19.270  0.00  0.00    +0.000 N 
ATOM      7  C   UNL     1       1.595   8.271  19.610  0.00  0.00    +0.000 C 
ATOM      8  O   UNL     1       1.509   9.169  18.771  0.00  0.00    +0.000 OA
ATOM      9  N   UNL     1       1.182   8.404  20.916  0.00  0.00    +0.000 N 
ATOM     10  C   UNL     1       2.167   5.799  20.033  0.00  0.00    +0.000 C 
ATOM     11  C   UNL     1       3.558   5.130  20.020  0.00  0.00    +0.000 C 
ATOM     12  H   UNL     1       1.611   7.792  21.588  0.00  0.00    +0.000 HD
ENDROOT
BRANCH   9  13
ATOM     13  C   UNL     1       0.530   9.542  21.455  0.00  0.00    +0.000 A 
ATOM     14  C   UNL     1       0.757  10.846  20.997  0.00  0.00    +0.000 A 
ATOM     15  C   UNL     1       0.127  11.937  21.597  0.00  0.00    +0.000 A 
ATOM     16  C   UNL     1      -0.758  11.739  22.653  0.00  0.00    +0.000 A 
ATOM     17  C   UNL     1      -1.020  10.446  23.099  0.00  0.00    +0.000 A 
ATOM     18  C   UNL     1      -0.387   9.352  22.496  0.00  0.00    +0.000 A 
ENDBRANCH   9  13
BRANCH   1  19
ATOM     19  O   UNL     1       4.235   2.804  18.756  0.00  0.00    +0.000 OA
BRANCH  19  21
ATOM     20  C   UNL     1       1.969   2.226  18.278  0.00  0.00    +0.000 C 
ATOM     21  C   UNL     1       3.420   1.797  18.143  0.00  0.00    +0.000 C 
ENDBRANCH  19  21
ENDBRANCH   1  19
TORSDOF 3
ENDMDL
MODEL 6
REMARK VINA RESULT:      -6.5      4.594      6.958
REMARK  Name = 
REMARK  4 active torsions:
REMARK  status: ('A' for Active; 'I' for Inactive)
REMARK    1  A    between atoms: C_1  and  C_2
REMARK    2  A    between atoms: C_2  and  O_3
REMARK    3  A    between atoms: O_3  and  C_4
REMARK    4  A    between atoms: N_12  and  C_13
REMARK                            x       y       z     vdW  Elec       q    Type
REMARK                         _______ _______ _______ _____ _____    ______ ____
ROOT
ATOM      1  C   UNL     1      -0.200  11.873  20.999  0.00  0.00    +0.000 C 
ATOM      2  O   UNL     1      -0.272  12.763  20.160  0.00  0.00    +0.000 OA
ATOM      3  N   UNL     1      -0.074  10.535  20.689  0.00  0.00    +0.000 N 
ATOM      4  C   UNL     1       0.093  10.146  19.292  0.00  0.00    +0.000 C 
ATOM      5  C   UNL     1       1.457   9.484  19.082  0.00  0.00    +0.000 C 
ATOM      6  N   UNL     1       1.634   8.358  20.012  0.00  0.00    +0.000 N 
ATOM      7  C   UNL     1       2.087   7.160  19.480  0.00  0.00    +0.000 C 
ATOM      8  O   UNL     1       2.354   7.081  18.280  0.00  0.00    +0.000 OA
ATOM      9  N   UNL     1       2.169   6.100  20.353  0.00  0.00    +0.000 N 
ATOM     10  C   UNL     1       1.479   8.727  21.428  0.00  0.00    +0.000 C 
ATOM     11  C   UNL     1       0.146   9.467  21.673  0.00  0.00    +0.000 C 
ATOM     12  H   UNL     1       1.602   6.153  21.182  0.00  0.00    +0.000 HD
ENDROOT
BRANCH   9  13
ATOM     13  C   UNL     1       2.648   4.806  20.024  0.00  0.00    +0.000 A 
ATOM     14  C   UNL     1       3.981   4.544  19.684  0.00  0.00    +0.000 A 
ATOM     15  C   UNL     1       4.390   3.261  19.318  0.00  0.00    +0.000 A 
ATOM     16  C   UNL     1       3.475   2.213  19.307  0.00  0.00    +0.000 A 
ATOM     17  C   UNL     1       2.153   2.449  19.674  0.00  0.00    +0.000 A 
ATOM     18  C   UNL     1       1.743   3.737  20.040  0.00  0.00    +0.000 A 
ENDBRANCH   9  13
BRANCH   1  19
ATOM     19  O   UNL     1      -0.158  12.099  22.337  0.00  0.00    +0.000 OA
BRANCH  19  21
ATOM     20  C   UNL     1      -2.373  11.951  23.214  0.00  0.00    +0.000 C 
ATOM     21  C   UNL     1      -1.237  12.891  22.849  0.00  0.00    +0.000 C 
ENDBRANCH  19  21
ENDBRANCH   1  19
TORSDOF 3
ENDMDL
MODEL 7
REMARK VINA RESULT:      -6.5      3.768      7.551
REMARK  Name = 
REMARK  4 active torsions:
REMARK  status: ('A' for Active; 'I' for Inactive)
REMARK    1  A    between atoms: C_1  and  C_2
REMARK    2  A    between atoms: C_2  and  O_3
REMARK    3  A    between atoms: O_3  and  C_4
REMARK    4  A    between atoms: N_12  and  C_13
REMARK                            x       y       z     vdW  Elec       q    Type
REMARK                         _______ _______ _______ _____ _____    ______ ____
ROOT
ATOM      1  C   UNL     1       4.976   4.151  18.037  0.00  0.00    +0.000 C 
ATOM      2  O   UNL     1       5.675   4.011  17.041  0.00  0.00    +0.000 OA
ATOM      3  N   UNL     1       4.529   5.373  18.495  0.00  0.00    +0.000 N 
ATOM      4  C   UNL     1       4.805   6.568  17.703  0.00  0.00    +0.000 C 
ATOM      5  C   UNL     1       3.499   7.194  17.210  0.00  0.00    +0.000 C 
ATOM      6  N   UNL     1       2.592   7.456  18.340  0.00  0.00    +0.000 N 
ATOM      7  C   UNL     1       2.004   8.710  18.405  0.00  0.00    +0.000 C 
ATOM      8  O   UNL     1       2.223   9.539  17.521  0.00  0.00    +0.000 OA
ATOM      9  N   UNL     1       1.224   8.959  19.510  0.00  0.00    +0.000 N 
ATOM     10  C   UNL     1       2.292   6.263  19.149  0.00  0.00    +0.000 C 
ATOM     11  C   UNL     1       3.585   5.555  19.606  0.00  0.00    +0.000 C 
ATOM     12  H   UNL     1       1.398   8.391  20.322  0.00  0.00    +0.000 HD
ENDROOT
BRANCH   9  13
ATOM     13  C   UNL     1       0.500  10.155  19.747  0.00  0.00    +0.000 A 
ATOM     14  C   UNL     1       0.977  11.194  20.555  0.00  0.00    +0.000 A 
ATOM     15  C   UNL     1       0.201  12.329  20.797  0.00  0.00    +0.000 A 
ATOM     16  C   UNL     1      -1.057  12.453  20.215  0.00  0.00    +0.000 A 
ATOM     17  C   UNL     1      -1.532  11.444  19.381  0.00  0.00    +0.000 A 
ATOM     18  C   UNL     1      -0.753  10.305  19.140  0.00  0.00    +0.000 A 
ENDBRANCH   9  13
BRANCH   1  19
ATOM     19  O   UNL     1       4.489   3.116  18.770  0.00  0.00    +0.000 OA
BRANCH  19  21
ATOM     20  C   UNL     1       2.304   2.155  18.790  0.00  0.00    +0.000 C 
ATOM     21  C   UNL     1       3.630   2.221  18.052  0.00  0.00    +0.000 C 
ENDBRANCH  19  21
ENDBRANCH   1  19
TORSDOF 3
ENDMDL
MODEL 8
REMARK VINA RESULT:      -6.5      2.076      7.733
REMARK  Name = 
REMARK  4 active torsions:
REMARK  status: ('A' for Active; 'I' for Inactive)
REMARK    1  A    between atoms: C_1  and  C_2
REMARK    2  A    between atoms: C_2  and  O_3
REMARK    3  A    between atoms: O_3  and  C_4
REMARK    4  A    between atoms: N_12  and  C_13
REMARK                            x       y       z     vdW  Elec       q    Type
REMARK                         _______ _______ _______ _____ _____    ______ ____
ROOT
ATOM      1  C   UNL     1       7.578   5.048  13.376  0.00  0.00    +0.000 C 
ATOM      2  O   UNL     1       8.486   5.871  13.336  0.00  0.00    +0.000 OA
ATOM      3  N   UNL     1       7.052   4.541  14.545  0.00  0.00    +0.000 N 
ATOM      4  C   UNL     1       7.516   5.081  15.821  0.00  0.00    +0.000 C 
ATOM      5  C   UNL     1       6.364   5.767  16.559  0.00  0.00    +0.000 C 
ATOM      6  N   UNL     1       5.225   4.846  16.710  0.00  0.00    +0.000 N 
ATOM      7  C   UNL     1       4.651   4.746  17.968  0.00  0.00    +0.000 C 
ATOM      8  O   UNL     1       5.076   5.437  18.895  0.00  0.00    +0.000 OA
ATOM      9  N   UNL     1       3.642   3.822  18.104  0.00  0.00    +0.000 N 
ATOM     10  C   UNL     1       4.735   4.296  15.436  0.00  0.00    +0.000 C 
ATOM     11  C   UNL     1       5.880   3.659  14.621  0.00  0.00    +0.000 C 
ATOM     12  H   UNL     1       3.618   3.077  17.429  0.00  0.00    +0.000 HD
ENDROOT
BRANCH   9  13
ATOM     13  C   UNL     1       2.896   3.595  19.289  0.00  0.00    +0.000 A 
ATOM     14  C   UNL     1       1.665   4.210  19.551  0.00  0.00    +0.000 A 
ATOM     15  C   UNL     1       0.997   3.991  20.756  0.00  0.00    +0.000 A 
ATOM     16  C   UNL     1       1.539   3.137  21.712  0.00  0.00    +0.000 A 
ATOM     17  C   UNL     1       2.745   2.492  21.453  0.00  0.00    +0.000 A 
ATOM     18  C   UNL     1       3.416   2.712  20.243  0.00  0.00    +0.000 A 
ENDBRANCH   9  13
BRANCH   1  19
ATOM     19  O   UNL     1       6.925   4.592  12.276  0.00  0.00    +0.000 OA
BRANCH  19  21
ATOM     20  C   UNL     1       6.046   2.507  11.516  0.00  0.00    +0.000 C 
ATOM     21  C   UNL     1       7.311   3.280  11.846  0.00  0.00    +0.000 C 
ENDBRANCH  19  21
ENDBRANCH   1  19
TORSDOF 3
ENDMDL
MODEL 9
REMARK VINA RESULT:      -6.5      1.382      1.945
REMARK  Name = 
REMARK  4 active torsions:
REMARK  status: ('A' for Active; 'I' for Inactive)
REMARK    1  A    between atoms: C_1  and  C_2
REMARK    2  A    between atoms: C_2  and  O_3
REMARK    3  A    between atoms: O_3  and  C_4
REMARK    4  A    between atoms: N_12  and  C_13
REMARK                            x       y       z     vdW  Elec       q    Type
REMARK                         _______ _______ _______ _____ _____    ______ ____
ROOT
ATOM      1  C   UNL     1       2.185   4.578  20.605  0.00  0.00    +0.000 C 
ATOM      2  O   UNL     1       2.666   4.551  21.732  0.00  0.00    +0.000 OA
ATOM      3  N   UNL     1       2.893   4.933  19.477  0.00  0.00    +0.000 N 
ATOM      4  C   UNL     1       4.326   5.192  19.594  0.00  0.00    +0.000 C 
ATOM      5  C   UNL     1       5.120   4.171  18.777  0.00  0.00    +0.000 C 
ATOM      6  N   UNL     1       4.657   4.152  17.380  0.00  0.00    +0.000 N 
ATOM      7  C   UNL     1       5.625   4.208  16.389  0.00  0.00    +0.000 C 
ATOM      8  O   UNL     1       6.818   4.238  16.694  0.00  0.00    +0.000 OA
ATOM      9  N   UNL     1       5.166   4.270  15.094  0.00  0.00    +0.000 N 
ATOM     10  C   UNL     1       3.217   3.884  17.236  0.00  0.00    +0.000 C 
ATOM     11  C   UNL     1       2.377   4.845  18.104  0.00  0.00    +0.000 C 
ATOM     12  H   UNL     1       4.227   4.604  14.964  0.00  0.00    +0.000 HD
ENDROOT
BRANCH   9  13
ATOM     13  C   UNL     1       5.985   4.288  13.937  0.00  0.00    +0.000 A 
ATOM     14  C   UNL     1       5.777   3.448  12.835  0.00  0.00    +0.000 A 
ATOM     15  C   UNL     1       6.645   3.470  11.742  0.00  0.00    +0.000 A 
ATOM     16  C   UNL     1       7.724   4.348  11.724  0.00  0.00    +0.000 A 
ATOM     17  C   UNL     1       7.926   5.214  12.796  0.00  0.00    +0.000 A 
ATOM     18  C   UNL     1       7.055   5.190  13.893  0.00  0.00    +0.000 A 
ENDBRANCH   9  13
BRANCH   1  19
ATOM     19  O   UNL     1       0.917   4.187  20.317  0.00  0.00    +0.000 OA
BRANCH  19  21
ATOM     20  C   UNL     1       0.515   2.244  18.990  0.00  0.00    +0.000 C 
ATOM     21  C   UNL     1       0.688   2.774  20.402  0.00  0.00    +0.000 C 
ENDBRANCH  19  21
ENDBRANCH   1  19
TORSDOF 3
ENDMDL
