MODEL 1
REMARK VINA RESULT:      -8.1      0.000      0.000
REMARK  Name = 
REMARK  10 active torsions:
REMARK  status: ('A' for Active; 'I' for Inactive)
REMARK    1  A    between atoms: C_1  and  C_2
REMARK    2  A    between atoms: C_2  and  C_3
REMARK    3  A    between atoms: C_3  and  N_4
REMARK    4  A    between atoms: C_8  and  C_9
REMARK    5  A    between atoms: C_11  and  C_12
REMARK    6  A    between atoms: C_15  and  C_16
REMARK    7  A    between atoms: C_19  and  O_20
REMARK    8  A    between atoms: O_20  and  C_21
REMARK    9  A    between atoms: C_31  and  C_32
REMARK   10  A    between atoms: C_32  and  O_33
REMARK                            x       y       z     vdW  Elec       q    Type
REMARK                         _______ _______ _______ _____ _____    ______ ____
ROOT
ATOM      1  C   UNL     1       0.967  10.042  19.467  0.00  0.00    +0.000 A 
ATOM      2  C   UNL     1       1.207   8.831  20.139  0.00  0.00    +0.000 A 
ATOM      3  C   UNL     1       1.979   7.808  19.577  0.00  0.00    +0.000 A 
ATOM      4  C   UNL     1       2.540   7.938  18.300  0.00  0.00    +0.000 A 
ATOM      5  C   UNL     1       2.265   9.124  17.604  0.00  0.00    +0.000 A 
ATOM      6  C   UNL     1       1.504  10.149  18.175  0.00  0.00    +0.000 A 
ENDROOT
BRANCH   1  12
ATOM      7  N   UNL     1      -3.295  12.382  22.238  0.00  0.00    +0.000 N 
ATOM      8  C   UNL     1      -2.929  12.482  20.921  0.00  0.00    +0.000 C 
ATOM      9  O   UNL     1      -3.631  12.981  20.050  0.00  0.00    +0.000 OA
ATOM     10  N   UNL     1      -1.682  11.998  20.665  0.00  0.00    +0.000 N 
ATOM     11  C   UNL     1      -1.016  11.909  19.363  0.00  0.00    +0.000 C 
ATOM     12  C   UNL     1       0.128  11.199  20.150  0.00  0.00    +0.000 C 
ATOM     13  C   UNL     1      -0.955  10.853  21.219  0.00  0.00    +0.000 C 
ATOM     14  H   UNL     1      -2.508  12.518  22.863  0.00  0.00    +0.000 HD
BRANCH  11  15
ATOM     15  C   UNL     1      -1.728  11.122  18.371  0.00  0.00    +0.000 C 
ATOM     16  N   UNL     1      -2.338  10.493  17.608  0.00  0.00    +0.000 NA
ENDBRANCH  11  15
BRANCH   7  17
ATOM     17  C   UNL     1      -4.558  12.929  22.686  0.00  0.00    +0.000 C 
BRANCH  17  19
ATOM     18  C   UNL     1      -3.381  14.077  24.609  0.00  0.00    +0.000 C 
ATOM     19  C   UNL     1      -4.555  13.204  24.184  0.00  0.00    +0.000 C 
ENDBRANCH  17  19
ENDBRANCH   7  17
BRANCH  13  20
ATOM     20  C   UNL     1      -0.544  10.962  22.681  0.00  0.00    +0.000 C 
BRANCH  20  21
ATOM     21  O   UNL     1      -1.375  10.162  23.520  0.00  0.00    +0.000 OA
ATOM     22  H   UNL     1      -2.239  10.605  23.592  0.00  0.00    +0.000 HD
ENDBRANCH  20  21
ENDBRANCH  13  20
ENDBRANCH   1  12
BRANCH   4  23
ATOM     23  C   UNL     1       3.393   6.886  17.709  0.00  0.00    +0.000 A 
ATOM     24  C   UNL     1       3.097   5.520  17.861  0.00  0.00    +0.000 A 
ATOM     25  C   UNL     1       3.890   4.535  17.264  0.00  0.00    +0.000 A 
ATOM     26  C   UNL     1       4.988   4.898  16.489  0.00  0.00    +0.000 A 
ATOM     27  C   UNL     1       5.346   6.240  16.385  0.00  0.00    +0.000 A 
ATOM     28  C   UNL     1       4.546   7.221  16.975  0.00  0.00    +0.000 A 
BRANCH  26  29
ATOM     29  O   UNL     1       5.691   3.870  15.909  0.00  0.00    +0.000 OA
BRANCH  29  30
ATOM     30  C   UNL     1       6.100   3.987  14.600  0.00  0.00    +0.000 A 
ATOM     31  C   UNL     1       7.227   4.781  14.383  0.00  0.00    +0.000 A 
ATOM     32  C   UNL     1       7.723   4.963  13.090  0.00  0.00    +0.000 A 
ATOM     33  C   UNL     1       7.088   4.352  12.012  0.00  0.00    +0.000 A 
ATOM     34  C   UNL     1       5.980   3.532  12.224  0.00  0.00    +0.000 A 
ATOM     35  C   UNL     1       5.503   3.328  13.521  0.00  0.00    +0.000 A 
ENDBRANCH  29  30
ENDBRANCH  26  29
ENDBRANCH   4  23
TORSDOF 9
ENDMDL
MODEL 2
REMARK VINA RESULT:      -8.0      0.523      1.293
REMARK  Name = 
REMARK  10 active torsions:
REMARK  status: ('A' for Active; 'I' for Inactive)
REMARK    1  A    between atoms: C_1  and  C_2
REMARK    2  A    between atoms: C_2  and  C_3
REMARK    3  A    between atoms: C_3  and  N_4
REMARK    4  A    between atoms: C_8  and  C_9
REMARK    5  A    between atoms: C_11  and  C_12
REMARK    6  A    between atoms: C_15  and  C_16
REMARK    7  A    between atoms: C_19  and  O_20
REMARK    8  A    between atoms: O_20  and  C_21
REMARK    9  A    between atoms: C_31  and  C_32
REMARK   10  A    between atoms: C_32  and  O_33
REMARK                            x       y       z     vdW  Elec       q    Type
REMARK                         _______ _______ _______ _____ _____    ______ ____
ROOT
ATOM      1  C   UNL     1       0.769  10.207  19.690  0.00  0.00    +0.000 A 
ATOM      2  C   UNL     1       1.387  10.353  18.436  0.00  0.00    +0.000 A 
ATOM      3  C   UNL     1       2.165   9.337  17.867  0.00  0.00    +0.000 A 
ATOM      4  C   UNL     1       2.381   8.126  18.536  0.00  0.00    +0.000 A 
ATOM      5  C   UNL     1       1.808   7.992  19.808  0.00  0.00    +0.000 A 
ATOM      6  C   UNL     1       1.019   9.003  20.367  0.00  0.00    +0.000 A 
ENDROOT
BRANCH   1  12
ATOM      7  N   UNL     1      -3.613  12.465  22.339  0.00  0.00    +0.000 N 
ATOM      8  C   UNL     1      -3.279  12.470  21.010  0.00  0.00    +0.000 C 
ATOM      9  O   UNL     1      -4.033  12.833  20.115  0.00  0.00    +0.000 OA
ATOM     10  N   UNL     1      -2.002  12.060  20.769  0.00  0.00    +0.000 N 
ATOM     11  C   UNL     1      -1.355  11.902  19.465  0.00  0.00    +0.000 C 
ATOM     12  C   UNL     1      -0.145  11.356  20.285  0.00  0.00    +0.000 C 
ATOM     13  C   UNL     1      -1.180  11.029  21.407  0.00  0.00    +0.000 C 
ATOM     14  H   UNL     1      -2.828  12.717  22.930  0.00  0.00    +0.000 HD
BRANCH  11  15
ATOM     15  C   UNL     1      -2.020  10.975  18.566  0.00  0.00    +0.000 C 
ATOM     16  N   UNL     1      -2.518  10.244  17.812  0.00  0.00    +0.000 NA
ENDBRANCH  11  15
BRANCH   7  17
ATOM     17  C   UNL     1      -4.908  12.953  22.766  0.00  0.00    +0.000 C 
BRANCH  17  19
ATOM     18  C   UNL     1      -3.838  14.710  24.241  0.00  0.00    +0.000 C 
ATOM     19  C   UNL     1      -4.858  14.428  23.145  0.00  0.00    +0.000 C 
ENDBRANCH  17  19
ENDBRANCH   7  17
BRANCH  13  20
ATOM     20  C   UNL     1      -0.754  11.304  22.842  0.00  0.00    +0.000 C 
BRANCH  20  21
ATOM     21  O   UNL     1      -0.106  10.173  23.422  0.00  0.00    +0.000 OA
ATOM     22  H   UNL     1       0.718  10.016  22.926  0.00  0.00    +0.000 HD
ENDBRANCH  20  21
ENDBRANCH  13  20
ENDBRANCH   1  12
BRANCH   4  23
ATOM     23  C   UNL     1       3.164   7.028  17.933  0.00  0.00    +0.000 A 
ATOM     24  C   UNL     1       2.809   5.679  18.109  0.00  0.00    +0.000 A 
ATOM     25  C   UNL     1       3.536   4.652  17.501  0.00  0.00    +0.000 A 
ATOM     26  C   UNL     1       4.627   4.954  16.691  0.00  0.00    +0.000 A 
ATOM     27  C   UNL     1       5.045   6.276  16.560  0.00  0.00    +0.000 A 
ATOM     28  C   UNL     1       4.310   7.300  17.162  0.00  0.00    +0.000 A 
BRANCH  26  29
ATOM     29  O   UNL     1       5.262   3.887  16.102  0.00  0.00    +0.000 OA
BRANCH  29  30
ATOM     30  C   UNL     1       5.903   4.064  14.897  0.00  0.00    +0.000 A 
ATOM     31  C   UNL     1       5.290   3.479  13.789  0.00  0.00    +0.000 A 
ATOM     32  C   UNL     1       5.862   3.602  12.520  0.00  0.00    +0.000 A 
ATOM     33  C   UNL     1       7.050   4.309  12.361  0.00  0.00    +0.000 A 
ATOM     34  C   UNL     1       7.653   4.922  13.458  0.00  0.00    +0.000 A 
ATOM     35  C   UNL     1       7.065   4.823  14.721  0.00  0.00    +0.000 A 
ENDBRANCH  29  30
ENDBRANCH  26  29
ENDBRANCH   4  23
TORSDOF 9
ENDMDL
MODEL 3
REMARK VINA RESULT:      -8.0      0.588      1.402
REMARK  Name = 
REMARK  10 active torsions:
REMARK  status: ('A' for Active; 'I' for Inactive)
REMARK    1  A    between atoms: C_1  and  C_2
REMARK    2  A    between atoms: C_2  and  C_3
REMARK    3  A    between atoms: C_3  and  N_4
REMARK    4  A    between atoms: C_8  and  C_9
REMARK    5  A    between atoms: C_11  and  C_12
REMARK    6  A    between atoms: C_15  and  C_16
REMARK    7  A    between atoms: C_19  and  O_20
REMARK    8  A    between atoms: O_20  and  C_21
REMARK    9  A    between atoms: C_31  and  C_32
REMARK   10  A    between atoms: C_32  and  O_33
REMARK                            x       y       z     vdW  Elec       q    Type
REMARK                         _______ _______ _______ _____ _____    ______ ____
ROOT
ATOM      1  C   UNL     1       0.795  10.217  19.704  0.00  0.00    +0.000 A 
ATOM      2  C   UNL     1       1.396  10.356  18.441  0.00  0.00    +0.000 A 
ATOM      3  C   UNL     1       2.156   9.333  17.862  0.00  0.00    +0.000 A 
ATOM      4  C   UNL     1       2.369   8.120  18.528  0.00  0.00    +0.000 A 
ATOM      5  C   UNL     1       1.814   7.992  19.809  0.00  0.00    +0.000 A 
ATOM      6  C   UNL     1       1.044   9.012  20.378  0.00  0.00    +0.000 A 
ENDROOT
BRANCH   1  12
ATOM      7  N   UNL     1      -3.664  12.553  22.150  0.00  0.00    +0.000 N 
ATOM      8  C   UNL     1      -3.212  12.637  20.858  0.00  0.00    +0.000 C 
ATOM      9  O   UNL     1      -3.860  13.117  19.935  0.00  0.00    +0.000 OA
ATOM     10  N   UNL     1      -1.946  12.163  20.694  0.00  0.00    +0.000 N 
ATOM     11  C   UNL     1      -1.194  12.062  19.440  0.00  0.00    +0.000 C 
ATOM     12  C   UNL     1      -0.098  11.376  20.312  0.00  0.00    +0.000 C 
ATOM     13  C   UNL     1      -1.247  11.033  21.312  0.00  0.00    +0.000 C 
ATOM     14  H   UNL     1      -2.921  12.706  22.823  0.00  0.00    +0.000 HD
BRANCH  11  15
ATOM     15  C   UNL     1      -1.831  11.253  18.415  0.00  0.00    +0.000 C 
ATOM     16  N   UNL     1      -2.347  10.648  17.568  0.00  0.00    +0.000 NA
ENDBRANCH  11  15
BRANCH   7  17
ATOM     17  C   UNL     1      -4.960  13.092  22.504  0.00  0.00    +0.000 C 
BRANCH  17  19
ATOM     18  C   UNL     1      -6.817  12.865  24.207  0.00  0.00    +0.000 C 
ATOM     19  C   UNL     1      -5.317  12.796  23.955  0.00  0.00    +0.000 C 
ENDBRANCH  17  19
ENDBRANCH   7  17
BRANCH  13  20
ATOM     20  C   UNL     1      -0.936  11.168  22.796  0.00  0.00    +0.000 C 
BRANCH  20  21
ATOM     21  O   UNL     1      -0.973   9.905  23.456  0.00  0.00    +0.000 OA
ATOM     22  H   UNL     1      -0.203   9.389  23.154  0.00  0.00    +0.000 HD
ENDBRANCH  20  21
ENDBRANCH  13  20
ENDBRANCH   1  12
BRANCH   4  23
ATOM     23  C   UNL     1       3.133   7.014  17.914  0.00  0.00    +0.000 A 
ATOM     24  C   UNL     1       4.274   7.248  17.127  0.00  0.00    +0.000 A 
ATOM     25  C   UNL     1       5.011   6.191  16.583  0.00  0.00    +0.000 A 
ATOM     26  C   UNL     1       4.629   4.876  16.829  0.00  0.00    +0.000 A 
ATOM     27  C   UNL     1       3.461   4.618  17.542  0.00  0.00    +0.000 A 
ATOM     28  C   UNL     1       2.733   5.676  18.092  0.00  0.00    +0.000 A 
BRANCH  26  29
ATOM     29  O   UNL     1       5.429   3.898  16.288  0.00  0.00    +0.000 OA
BRANCH  29  30
ATOM     30  C   UNL     1       5.891   4.040  15.000  0.00  0.00    +0.000 A 
ATOM     31  C   UNL     1       7.072   4.768  14.854  0.00  0.00    +0.000 A 
ATOM     32  C   UNL     1       7.624   4.969  13.586  0.00  0.00    +0.000 A 
ATOM     33  C   UNL     1       6.991   4.444  12.463  0.00  0.00    +0.000 A 
ATOM     34  C   UNL     1       5.827   3.690  12.604  0.00  0.00    +0.000 A 
ATOM     35  C   UNL     1       5.291   3.466  13.874  0.00  0.00    +0.000 A 
ENDBRANCH  29  30
ENDBRANCH  26  29
ENDBRANCH   4  23
TORSDOF 9
ENDMDL
MODEL 4
REMARK VINA RESULT:      -7.9      1.695      2.711
REMARK  Name = 
REMARK  10 active torsions:
REMARK  status: ('A' for Active; 'I' for Inactive)
REMARK    1  A    between atoms: C_1  and  C_2
REMARK    2  A    between atoms: C_2  and  C_3
REMARK    3  A    between atoms: C_3  and  N_4
REMARK    4  A    between atoms: C_8  and  C_9
REMARK    5  A    between atoms: C_11  and  C_12
REMARK    6  A    between atoms: C_15  and  C_16
REMARK    7  A    between atoms: C_19  and  O_20
REMARK    8  A    between atoms: O_20  and  C_21
REMARK    9  A    between atoms: C_31  and  C_32
REMARK   10  A    between atoms: C_32  and  O_33
REMARK                            x       y       z     vdW  Elec       q    Type
REMARK                         _______ _______ _______ _____ _____    ______ ____
ROOT
ATOM      1  C   UNL     1       0.561   9.562  19.694  0.00  0.00    +0.000 A 
ATOM      2  C   UNL     1       0.981   9.725  18.363  0.00  0.00    +0.000 A 
ATOM      3  C   UNL     1       1.893   8.853  17.757  0.00  0.00    +0.000 A 
ATOM      4  C   UNL     1       2.448   7.778  18.462  0.00  0.00    +0.000 A 
ATOM      5  C   UNL     1       2.071   7.636  19.804  0.00  0.00    +0.000 A 
ATOM      6  C   UNL     1       1.148   8.501  20.402  0.00  0.00    +0.000 A 
ENDROOT
BRANCH   1  12
ATOM      7  N   UNL     1      -2.501  14.212  20.258  0.00  0.00    +0.000 N 
ATOM      8  C   UNL     1      -1.464  13.733  21.015  0.00  0.00    +0.000 C 
ATOM      9  O   UNL     1      -0.888  14.384  21.879  0.00  0.00    +0.000 OA
ATOM     10  N   UNL     1      -1.145  12.437  20.742  0.00  0.00    +0.000 N 
ATOM     11  C   UNL     1      -0.060  11.649  21.333  0.00  0.00    +0.000 C 
ATOM     12  C   UNL     1      -0.509  10.537  20.336  0.00  0.00    +0.000 C 
ATOM     13  C   UNL     1      -1.128  11.689  19.483  0.00  0.00    +0.000 C 
ATOM     14  H   UNL     1      -3.195  13.497  20.068  0.00  0.00    +0.000 HD
BRANCH  11  15
ATOM     15  C   UNL     1       1.267  12.210  21.149  0.00  0.00    +0.000 C 
ATOM     16  N   UNL     1       2.308  12.698  20.976  0.00  0.00    +0.000 NA
ENDBRANCH  11  15
BRANCH   7  17
ATOM     17  C   UNL     1      -3.014  15.546  20.487  0.00  0.00    +0.000 C 
BRANCH  17  19
ATOM     18  C   UNL     1      -5.213  14.340  20.824  0.00  0.00    +0.000 C 
ATOM     19  C   UNL     1      -4.342  15.520  21.235  0.00  0.00    +0.000 C 
ENDBRANCH  17  19
ENDBRANCH   7  17
BRANCH  13  20
ATOM     20  C   UNL     1      -2.483  11.424  18.842  0.00  0.00    +0.000 C 
BRANCH  20  21
ATOM     21  O   UNL     1      -2.714  12.288  17.730  0.00  0.00    +0.000 OA
ATOM     22  H   UNL     1      -2.637  13.206  18.046  0.00  0.00    +0.000 HD
ENDBRANCH  20  21
ENDBRANCH  13  20
ENDBRANCH   1  12
BRANCH   4  23
ATOM     23  C   UNL     1       3.380   6.824  17.826  0.00  0.00    +0.000 A 
ATOM     24  C   UNL     1       4.486   7.257  17.073  0.00  0.00    +0.000 A 
ATOM     25  C   UNL     1       5.382   6.344  16.509  0.00  0.00    +0.000 A 
ATOM     26  C   UNL     1       5.198   4.977  16.699  0.00  0.00    +0.000 A 
ATOM     27  C   UNL     1       4.070   4.520  17.376  0.00  0.00    +0.000 A 
ATOM     28  C   UNL     1       3.182   5.435  17.946  0.00  0.00    +0.000 A 
BRANCH  26  29
ATOM     29  O   UNL     1       6.145   4.152  16.142  0.00  0.00    +0.000 OA
BRANCH  29  30
ATOM     30  C   UNL     1       6.348   4.180  14.780  0.00  0.00    +0.000 A 
ATOM     31  C   UNL     1       7.465   4.895  14.346  0.00  0.00    +0.000 A 
ATOM     32  C   UNL     1       7.758   4.983  12.982  0.00  0.00    +0.000 A 
ATOM     33  C   UNL     1       6.931   4.359  12.054  0.00  0.00    +0.000 A 
ATOM     34  C   UNL     1       5.830   3.618  12.482  0.00  0.00    +0.000 A 
ATOM     35  C   UNL     1       5.554   3.506  13.847  0.00  0.00    +0.000 A 
ENDBRANCH  29  30
ENDBRANCH  26  29
ENDBRANCH   4  23
TORSDOF 9
ENDMDL
MODEL 5
REMARK VINA RESULT:      -7.8      2.936     11.845
REMARK  Name = 
REMARK  10 active torsions:
REMARK  status: ('A' for Active; 'I' for Inactive)
REMARK    1  A    between atoms: C_1  and  C_2
REMARK    2  A    between atoms: C_2  and  C_3
REMARK    3  A    between atoms: C_3  and  N_4
REMARK    4  A    between atoms: C_8  and  C_9
REMARK    5  A    between atoms: C_11  and  C_12
REMARK    6  A    between atoms: C_15  and  C_16
REMARK    7  A    between atoms: C_19  and  O_20
REMARK    8  A    between atoms: O_20  and  C_21
REMARK    9  A    between atoms: C_31  and  C_32
REMARK   10  A    between atoms: C_32  and  O_33
REMARK                            x       y       z     vdW  Elec       q    Type
REMARK                         _______ _______ _______ _____ _____    ______ ____
ROOT
ATOM      1  C   UNL     1       2.551   7.257  19.456  0.00  0.00    +0.000 A 
ATOM      2  C   UNL     1       2.171   8.309  18.605  0.00  0.00    +0.000 A 
ATOM      3  C   UNL     1       1.250   9.288  18.996  0.00  0.00    +0.000 A 
ATOM      4  C   UNL     1       0.646   9.253  20.259  0.00  0.00    +0.000 A 
ATOM      5  C   UNL     1       0.983   8.180  21.096  0.00  0.00    +0.000 A 
ATOM      6  C   UNL     1       1.914   7.212  20.706  0.00  0.00    +0.000 A 
ENDROOT
BRANCH   1  12
ATOM      7  N   UNL     1       5.766   4.356  15.910  0.00  0.00    +0.000 N 
ATOM      8  C   UNL     1       4.681   3.964  16.651  0.00  0.00    +0.000 C 
ATOM      9  O   UNL     1       4.097   2.898  16.500  0.00  0.00    +0.000 OA
ATOM     10  N   UNL     1       4.323   4.864  17.609  0.00  0.00    +0.000 N 
ATOM     11  C   UNL     1       3.186   4.774  18.528  0.00  0.00    +0.000 C 
ATOM     12  C   UNL     1       3.631   6.192  19.001  0.00  0.00    +0.000 C 
ATOM     13  C   UNL     1       4.328   6.329  17.611  0.00  0.00    +0.000 C 
ATOM     14  H   UNL     1       6.438   4.874  16.465  0.00  0.00    +0.000 HD
BRANCH  11  15
ATOM     15  C   UNL     1       1.891   4.665  17.881  0.00  0.00    +0.000 C 
ATOM     16  N   UNL     1       0.862   4.530  17.358  0.00  0.00    +0.000 NA
ENDBRANCH  11  15
BRANCH   7  17
ATOM     17  C   UNL     1       6.320   3.472  14.907  0.00  0.00    +0.000 C 
BRANCH  17  19
ATOM     18  C   UNL     1       5.979   3.340  12.403  0.00  0.00    +0.000 C 
ATOM     19  C   UNL     1       6.495   4.176  13.567  0.00  0.00    +0.000 C 
ENDBRANCH  17  19
ENDBRANCH   7  17
BRANCH  13  20
ATOM     20  C   UNL     1       5.696   6.996  17.585  0.00  0.00    +0.000 C 
BRANCH  20  21
ATOM     21  O   UNL     1       6.167   7.174  16.250  0.00  0.00    +0.000 OA
ATOM     22  H   UNL     1       7.015   7.652  16.296  0.00  0.00    +0.000 HD
ENDBRANCH  20  21
ENDBRANCH  13  20
ENDBRANCH   1  12
BRANCH   4  23
ATOM     23  C   UNL     1      -0.296  10.301  20.704  0.00  0.00    +0.000 A 
ATOM     24  C   UNL     1      -0.536  10.553  22.067  0.00  0.00    +0.000 A 
ATOM     25  C   UNL     1      -1.400  11.573  22.475  0.00  0.00    +0.000 A 
ATOM     26  C   UNL     1      -2.031  12.374  21.528  0.00  0.00    +0.000 A 
ATOM     27  C   UNL     1      -1.869  12.098  20.173  0.00  0.00    +0.000 A 
ATOM     28  C   UNL     1      -0.998  11.084  19.768  0.00  0.00    +0.000 A 
BRANCH  26  29
ATOM     29  O   UNL     1      -2.834  13.377  22.016  0.00  0.00    +0.000 OA
BRANCH  29  30
ATOM     30  C   UNL     1      -4.118  13.080  22.414  0.00  0.00    +0.000 A 
ATOM     31  C   UNL     1      -5.021  12.789  21.391  0.00  0.00    +0.000 A 
ATOM     32  C   UNL     1      -6.349  12.474  21.691  0.00  0.00    +0.000 A 
ATOM     33  C   UNL     1      -6.774  12.455  23.016  0.00  0.00    +0.000 A 
ATOM     34  C   UNL     1      -5.870  12.714  24.046  0.00  0.00    +0.000 A 
ATOM     35  C   UNL     1      -4.536  13.000  23.747  0.00  0.00    +0.000 A 
ENDBRANCH  29  30
ENDBRANCH  26  29
ENDBRANCH   4  23
TORSDOF 9
ENDMDL
MODEL 6
REMARK VINA RESULT:      -7.8      1.772      2.847
REMARK  Name = 
REMARK  10 active torsions:
REMARK  status: ('A' for Active; 'I' for Inactive)
REMARK    1  A    between atoms: C_1  and  C_2
REMARK    2  A    between atoms: C_2  and  C_3
REMARK    3  A    between atoms: C_3  and  N_4
REMARK    4  A    between atoms: C_8  and  C_9
REMARK    5  A    between atoms: C_11  and  C_12
REMARK    6  A    between atoms: C_15  and  C_16
REMARK    7  A    between atoms: C_19  and  O_20
REMARK    8  A    between atoms: O_20  and  C_21
REMARK    9  A    between atoms: C_31  and  C_32
REMARK   10  A    between atoms: C_32  and  O_33
REMARK                            x       y       z     vdW  Elec       q    Type
REMARK                         _______ _______ _______ _____ _____    ______ ____
ROOT
ATOM      1  C   UNL     1       0.545   9.648  19.756  0.00  0.00    +0.000 A 
ATOM      2  C   UNL     1       0.917   9.756  18.405  0.00  0.00    +0.000 A 
ATOM      3  C   UNL     1       1.797   8.852  17.800  0.00  0.00    +0.000 A 
ATOM      4  C   UNL     1       2.367   7.797  18.525  0.00  0.00    +0.000 A 
ATOM      5  C   UNL     1       2.038   7.711  19.885  0.00  0.00    +0.000 A 
ATOM      6  C   UNL     1       1.148   8.609  20.482  0.00  0.00    +0.000 A 
ENDROOT
BRANCH   1  12
ATOM      7  N   UNL     1      -2.451  14.349  20.251  0.00  0.00    +0.000 N 
ATOM      8  C   UNL     1      -1.390  13.890  20.986  0.00  0.00    +0.000 C 
ATOM      9  O   UNL     1      -0.775  14.568  21.800  0.00  0.00    +0.000 OA
ATOM     10  N   UNL     1      -1.093  12.581  20.753  0.00  0.00    +0.000 N 
ATOM     11  C   UNL     1       0.007  11.806  21.333  0.00  0.00    +0.000 C 
ATOM     12  C   UNL     1      -0.491  10.660  20.400  0.00  0.00    +0.000 C 
ATOM     13  C   UNL     1      -1.132  11.783  19.525  0.00  0.00    +0.000 C 
ATOM     14  H   UNL     1      -3.158  13.635  20.116  0.00  0.00    +0.000 HD
BRANCH  11  15
ATOM     15  C   UNL     1       1.330  12.345  21.075  0.00  0.00    +0.000 C 
ATOM     16  N   UNL     1       2.370  12.823  20.870  0.00  0.00    +0.000 NA
ENDBRANCH  11  15
BRANCH   7  17
ATOM     17  C   UNL     1      -2.943  15.697  20.446  0.00  0.00    +0.000 C 
BRANCH  17  19
ATOM     18  C   UNL     1      -4.256  17.065  22.121  0.00  0.00    +0.000 C 
ATOM     19  C   UNL     1      -4.133  15.731  21.397  0.00  0.00    +0.000 C 
ENDBRANCH  17  19
ENDBRANCH   7  17
BRANCH  13  20
ATOM     20  C   UNL     1      -2.513  11.507  18.948  0.00  0.00    +0.000 C 
BRANCH  20  21
ATOM     21  O   UNL     1      -2.732  12.238  17.743  0.00  0.00    +0.000 OA
ATOM     22  H   UNL     1      -2.559  11.637  16.995  0.00  0.00    +0.000 HD
ENDBRANCH  20  21
ENDBRANCH  13  20
ENDBRANCH   1  12
BRANCH   4  23
ATOM     23  C   UNL     1       3.264   6.809  17.892  0.00  0.00    +0.000 A 
ATOM     24  C   UNL     1       4.446   7.194  17.234  0.00  0.00    +0.000 A 
ATOM     25  C   UNL     1       5.306   6.246  16.673  0.00  0.00    +0.000 A 
ATOM     26  C   UNL     1       5.010   4.890  16.772  0.00  0.00    +0.000 A 
ATOM     27  C   UNL     1       3.810   4.486  17.352  0.00  0.00    +0.000 A 
ATOM     28  C   UNL     1       2.957   5.435  17.920  0.00  0.00    +0.000 A 
BRANCH  26  29
ATOM     29  O   UNL     1       5.928   4.024  16.226  0.00  0.00    +0.000 OA
BRANCH  29  30
ATOM     30  C   UNL     1       6.301   4.178  14.910  0.00  0.00    +0.000 A 
ATOM     31  C   UNL     1       5.493   3.538  13.970  0.00  0.00    +0.000 A 
ATOM     32  C   UNL     1       5.787   3.634  12.607  0.00  0.00    +0.000 A 
ATOM     33  C   UNL     1       6.892   4.368  12.186  0.00  0.00    +0.000 A 
ATOM     34  C   UNL     1       7.686   5.035  13.118  0.00  0.00    +0.000 A 
ATOM     35  C   UNL     1       7.375   4.963  14.478  0.00  0.00    +0.000 A 
ENDBRANCH  29  30
ENDBRANCH  26  29
ENDBRANCH   4  23
TORSDOF 9
ENDMDL
MODEL 7
REMARK VINA RESULT:      -7.8      1.746      2.556
REMARK  Name = 
REMARK  10 active torsions:
REMARK  status: ('A' for Active; 'I' for Inactive)
REMARK    1  A    between atoms: C_1  and  C_2
REMARK    2  A    between atoms: C_2  and  C_3
REMARK    3  A    between atoms: C_3  and  N_4
REMARK    4  A    between atoms: C_8  and  C_9
REMARK    5  A    between atoms: C_11  and  C_12
REMARK    6  A    between atoms: C_15  and  C_16
REMARK    7  A    between atoms: C_19  and  O_20
REMARK    8  A    between atoms: O_20  and  C_21
REMARK    9  A    between atoms: C_31  and  C_32
REMARK   10  A    between atoms: C_32  and  O_33
REMARK                            x       y       z     vdW  Elec       q    Type
REMARK                         _______ _______ _______ _____ _____    ______ ____
ROOT
ATOM      1  C   UNL     1       0.509   9.660  19.667  0.00  0.00    +0.000 A 
ATOM      2  C   UNL     1       1.092   8.607  20.392  0.00  0.00    +0.000 A 
ATOM      3  C   UNL     1       2.015   7.727  19.816  0.00  0.00    +0.000 A 
ATOM      4  C   UNL     1       2.390   7.845  18.472  0.00  0.00    +0.000 A 
ATOM      5  C   UNL     1       1.777   8.863  17.728  0.00  0.00    +0.000 A 
ATOM      6  C   UNL     1       0.866   9.749  18.312  0.00  0.00    +0.000 A 
ENDROOT
BRANCH   1  12
ATOM      7  N   UNL     1      -2.452  14.363  20.324  0.00  0.00    +0.000 N 
ATOM      8  C   UNL     1      -1.362  13.896  21.011  0.00  0.00    +0.000 C 
ATOM      9  O   UNL     1      -0.712  14.566  21.804  0.00  0.00    +0.000 OA
ATOM     10  N   UNL     1      -1.078  12.588  20.755  0.00  0.00    +0.000 N 
ATOM     11  C   UNL     1       0.043  11.806  21.282  0.00  0.00    +0.000 C 
ATOM     12  C   UNL     1      -0.496  10.668  20.361  0.00  0.00    +0.000 C 
ATOM     13  C   UNL     1      -1.170  11.800  19.523  0.00  0.00    +0.000 C 
ATOM     14  H   UNL     1      -3.166  13.651  20.213  0.00  0.00    +0.000 HD
BRANCH  11  15
ATOM     15  C   UNL     1       1.356  12.344  20.973  0.00  0.00    +0.000 C 
ATOM     16  N   UNL     1       2.426  12.747  20.763  0.00  0.00    +0.000 NA
ENDBRANCH  11  15
BRANCH   7  17
ATOM     17  C   UNL     1      -2.932  15.710  20.550  0.00  0.00    +0.000 C 
BRANCH  17  19
ATOM     18  C   UNL     1      -3.576  16.711  22.783  0.00  0.00    +0.000 C 
ATOM     19  C   UNL     1      -3.972  15.759  21.663  0.00  0.00    +0.000 C 
ENDBRANCH  17  19
ENDBRANCH   7  17
BRANCH  13  20
ATOM     20  C   UNL     1      -2.575  11.532  19.002  0.00  0.00    +0.000 C 
BRANCH  20  21
ATOM     21  O   UNL     1      -2.847  12.282  17.820  0.00  0.00    +0.000 OA
ATOM     22  H   UNL     1      -2.545  11.756  17.057  0.00  0.00    +0.000 HD
ENDBRANCH  20  21
ENDBRANCH  13  20
ENDBRANCH   1  12
BRANCH   4  23
ATOM     23  C   UNL     1       3.395   6.951  17.858  0.00  0.00    +0.000 A 
ATOM     24  C   UNL     1       4.458   7.450  17.085  0.00  0.00    +0.000 A 
ATOM     25  C   UNL     1       5.423   6.597  16.542  0.00  0.00    +0.000 A 
ATOM     26  C   UNL     1       5.354   5.227  16.775  0.00  0.00    +0.000 A 
ATOM     27  C   UNL     1       4.271   4.699  17.474  0.00  0.00    +0.000 A 
ATOM     28  C   UNL     1       3.313   5.556  18.023  0.00  0.00    +0.000 A 
BRANCH  26  29
ATOM     29  O   UNL     1       6.363   4.465  16.237  0.00  0.00    +0.000 OA
BRANCH  29  30
ATOM     30  C   UNL     1       6.475   4.364  14.868  0.00  0.00    +0.000 A 
ATOM     31  C   UNL     1       7.524   5.079  14.289  0.00  0.00    +0.000 A 
ATOM     32  C   UNL     1       7.723   5.041  12.906  0.00  0.00    +0.000 A 
ATOM     33  C   UNL     1       6.870   4.290  12.103  0.00  0.00    +0.000 A 
ATOM     34  C   UNL     1       5.838   3.549  12.679  0.00  0.00    +0.000 A 
ATOM     35  C   UNL     1       5.658   3.564  14.063  0.00  0.00    +0.000 A 
ENDBRANCH  29  30
ENDBRANCH  26  29
ENDBRANCH   4  23
TORSDOF 9
ENDMDL
MODEL 8
REMARK VINA RESULT:      -7.7      1.570      2.697
REMARK  Name = 
REMARK  10 active torsions:
REMARK  status: ('A' for Active; 'I' for Inactive)
REMARK    1  A    between atoms: C_1  and  C_2
REMARK    2  A    between atoms: C_2  and  C_3
REMARK    3  A    between atoms: C_3  and  N_4
REMARK    4  A    between atoms: C_8  and  C_9
REMARK    5  A    between atoms: C_11  and  C_12
REMARK    6  A    between atoms: C_15  and  C_16
REMARK    7  A    between atoms: C_19  and  O_20
REMARK    8  A    between atoms: O_20  and  C_21
REMARK    9  A    between atoms: C_31  and  C_32
REMARK   10  A    between atoms: C_32  and  O_33
REMARK                            x       y       z     vdW  Elec       q    Type
REMARK                         _______ _______ _______ _____ _____    ______ ____
ROOT
ATOM      1  C   UNL     1       0.693   9.574  19.510  0.00  0.00    +0.000 A 
ATOM      2  C   UNL     1       1.196   9.747  18.209  0.00  0.00    +0.000 A 
ATOM      3  C   UNL     1       2.090   8.839  17.630  0.00  0.00    +0.000 A 
ATOM      4  C   UNL     1       2.544   7.716  18.334  0.00  0.00    +0.000 A 
ATOM      5  C   UNL     1       2.085   7.563  19.650  0.00  0.00    +0.000 A 
ATOM      6  C   UNL     1       1.180   8.465  20.219  0.00  0.00    +0.000 A 
ENDROOT
BRANCH   1  12
ATOM      7  N   UNL     1      -1.101  14.164  22.163  0.00  0.00    +0.000 N 
ATOM      8  C   UNL     1      -1.111  12.850  22.554  0.00  0.00    +0.000 C 
ATOM      9  O   UNL     1      -1.359  12.476  23.693  0.00  0.00    +0.000 OA
ATOM     10  N   UNL     1      -0.848  11.980  21.539  0.00  0.00    +0.000 N 
ATOM     11  C   UNL     1      -0.733  10.522  21.631  0.00  0.00    +0.000 C 
ATOM     12  C   UNL     1      -0.355  10.594  20.120  0.00  0.00    +0.000 C 
ATOM     13  C   UNL     1       0.062  12.072  20.395  0.00  0.00    +0.000 C 
ATOM     14  H   UNL     1      -1.458  14.284  21.222  0.00  0.00    +0.000 HD
BRANCH  11  15
ATOM     15  C   UNL     1       0.288  10.051  22.550  0.00  0.00    +0.000 C 
ATOM     16  N   UNL     1       1.095   9.627  23.271  0.00  0.00    +0.000 NA
ENDBRANCH  11  15
BRANCH   7  17
ATOM     17  C   UNL     1      -1.444  15.207  23.107  0.00  0.00    +0.000 C 
BRANCH  17  19
ATOM     18  C   UNL     1      -3.832  15.055  23.930  0.00  0.00    +0.000 C 
ATOM     19  C   UNL     1      -2.879  15.684  22.923  0.00  0.00    +0.000 C 
ENDBRANCH  17  19
ENDBRANCH   7  17
BRANCH  13  20
ATOM     20  C   UNL     1      -0.297  13.102  19.334  0.00  0.00    +0.000 C 
BRANCH  20  21
ATOM     21  O   UNL     1       0.516  14.270  19.439  0.00  0.00    +0.000 OA
ATOM     22  H   UNL     1       0.530  14.702  18.566  0.00  0.00    +0.000 HD
ENDBRANCH  20  21
ENDBRANCH  13  20
ENDBRANCH   1  12
BRANCH   4  23
ATOM     23  C   UNL     1       3.455   6.726  17.724  0.00  0.00    +0.000 A 
ATOM     24  C   UNL     1       3.190   5.346  17.773  0.00  0.00    +0.000 A 
ATOM     25  C   UNL     1       4.040   4.421  17.158  0.00  0.00    +0.000 A 
ATOM     26  C   UNL     1       5.165   4.860  16.467  0.00  0.00    +0.000 A 
ATOM     27  C   UNL     1       5.491   6.214  16.467  0.00  0.00    +0.000 A 
ATOM     28  C   UNL     1       4.634   7.136  17.074  0.00  0.00    +0.000 A 
BRANCH  26  29
ATOM     29  O   UNL     1       5.925   3.889  15.861  0.00  0.00    +0.000 OA
BRANCH  29  30
ATOM     30  C   UNL     1       6.377   4.090  14.576  0.00  0.00    +0.000 A 
ATOM     31  C   UNL     1       5.680   3.416  13.573  0.00  0.00    +0.000 A 
ATOM     32  C   UNL     1       6.060   3.554  12.236  0.00  0.00    +0.000 A 
ATOM     33  C   UNL     1       7.141   4.365  11.903  0.00  0.00    +0.000 A 
ATOM     34  C   UNL     1       7.824   5.065  12.896  0.00  0.00    +0.000 A 
ATOM     35  C   UNL     1       7.425   4.950  14.230  0.00  0.00    +0.000 A 
ENDBRANCH  29  30
ENDBRANCH  26  29
ENDBRANCH   4  23
TORSDOF 9
ENDMDL
MODEL 9
REMARK VINA RESULT:      -7.7      2.142      3.169
REMARK  Name = 
REMARK  10 active torsions:
REMARK  status: ('A' for Active; 'I' for Inactive)
REMARK    1  A    between atoms: C_1  and  C_2
REMARK    2  A    between atoms: C_2  and  C_3
REMARK    3  A    between atoms: C_3  and  N_4
REMARK    4  A    between atoms: C_8  and  C_9
REMARK    5  A    between atoms: C_11  and  C_12
REMARK    6  A    between atoms: C_15  and  C_16
REMARK    7  A    between atoms: C_19  and  O_20
REMARK    8  A    between atoms: O_20  and  C_21
REMARK    9  A    between atoms: C_31  and  C_32
REMARK   10  A    between atoms: C_32  and  O_33
REMARK                            x       y       z     vdW  Elec       q    Type
REMARK                         _______ _______ _______ _____ _____    ______ ____
ROOT
ATOM      1  C   UNL     1       0.497  10.051  19.666  0.00  0.00    +0.000 A 
ATOM      2  C   UNL     1       0.968   8.982  20.448  0.00  0.00    +0.000 A 
ATOM      3  C   UNL     1       1.814   7.996  19.928  0.00  0.00    +0.000 A 
ATOM      4  C   UNL     1       2.221   8.020  18.588  0.00  0.00    +0.000 A 
ATOM      5  C   UNL     1       1.717   9.057  17.790  0.00  0.00    +0.000 A 
ATOM      6  C   UNL     1       0.883  10.048  18.317  0.00  0.00    +0.000 A 
ENDROOT
BRANCH   1  12
ATOM      7  N   UNL     1      -1.916  15.079  20.137  0.00  0.00    +0.000 N 
ATOM      8  C   UNL     1      -0.934  14.490  20.890  0.00  0.00    +0.000 C 
ATOM      9  O   UNL     1      -0.258  15.085  21.721  0.00  0.00    +0.000 OA
ATOM     10  N   UNL     1      -0.793  13.156  20.653  0.00  0.00    +0.000 N 
ATOM     11  C   UNL     1       0.192  12.250  21.249  0.00  0.00    +0.000 C 
ATOM     12  C   UNL     1      -0.421  11.178  20.297  0.00  0.00    +0.000 C 
ATOM     13  C   UNL     1      -0.903  12.375  19.419  0.00  0.00    +0.000 C 
ATOM     14  H   UNL     1      -2.702  14.456  19.983  0.00  0.00    +0.000 HD
BRANCH  11  15
ATOM     15  C   UNL     1       1.577  12.626  21.022  0.00  0.00    +0.000 C 
ATOM     16  N   UNL     1       2.691  12.928  20.890  0.00  0.00    +0.000 NA
ENDBRANCH  11  15
BRANCH   7  17
ATOM     17  C   UNL     1      -2.245  16.475  20.333  0.00  0.00    +0.000 C 
BRANCH  17  19
ATOM     18  C   UNL     1      -0.585  16.719  18.438  0.00  0.00    +0.000 C 
ATOM     19  C   UNL     1      -1.772  17.335  19.167  0.00  0.00    +0.000 C 
ENDBRANCH  17  19
ENDBRANCH   7  17
BRANCH  13  20
ATOM     20  C   UNL     1      -2.295  12.272  18.811  0.00  0.00    +0.000 C 
BRANCH  20  21
ATOM     21  O   UNL     1      -2.238  12.111  17.395  0.00  0.00    +0.000 OA
ATOM     22  H   UNL     1      -3.137  11.897  17.085  0.00  0.00    +0.000 HD
ENDBRANCH  20  21
ENDBRANCH  13  20
ENDBRANCH   1  12
BRANCH   4  23
ATOM     23  C   UNL     1       3.148   7.011  18.034  0.00  0.00    +0.000 A 
ATOM     24  C   UNL     1       3.035   5.647  18.353  0.00  0.00    +0.000 A 
ATOM     25  C   UNL     1       3.894   4.697  17.791  0.00  0.00    +0.000 A 
ATOM     26  C   UNL     1       4.875   5.092  16.886  0.00  0.00    +0.000 A 
ATOM     27  C   UNL     1       5.056   6.445  16.611  0.00  0.00    +0.000 A 
ATOM     28  C   UNL     1       4.190   7.390  17.166  0.00  0.00    +0.000 A 
BRANCH  26  29
ATOM     29  O   UNL     1       5.651   4.090  16.354  0.00  0.00    +0.000 OA
BRANCH  29  30
ATOM     30  C   UNL     1       6.129   4.218  15.069  0.00  0.00    +0.000 A 
ATOM     31  C   UNL     1       5.372   3.601  14.073  0.00  0.00    +0.000 A 
ATOM     32  C   UNL     1       5.772   3.673  12.737  0.00  0.00    +0.000 A 
ATOM     33  C   UNL     1       6.934   4.360  12.397  0.00  0.00    +0.000 A 
ATOM     34  C   UNL     1       7.680   5.004  13.383  0.00  0.00    +0.000 A 
ATOM     35  C   UNL     1       7.263   4.957  14.715  0.00  0.00    +0.000 A 
ENDBRANCH  29  30
ENDBRANCH  26  29
ENDBRANCH   4  23
TORSDOF 9
ENDMDL
