MODEL 1
REMARK VINA RESULT:      -8.1      0.000      0.000
REMARK  Name = 
REMARK  12 active torsions:
REMARK  status: ('A' for Active; 'I' for Inactive)
REMARK    1  A    between atoms: C_1  and  O_2
REMARK    2  A    between atoms: O_2  and  C_3
REMARK    3  A    between atoms: C_6  and  N_7
REMARK    4  A    between atoms: C_8  and  C_10
REMARK    5  A    between atoms: C_10  and  C_11
REMARK    6  A    between atoms: C_11  and  C_12
REMARK    7  A    between atoms: N_13  and  N_14
REMARK    8  A    between atoms: C_15  and  C_17
REMARK    9  A    between atoms: N_19  and  C_20
REMARK   10  A    between atoms: C_26  and  C_27
REMARK   11  A    between atoms: C_28  and  O_29
REMARK   12  A    between atoms: O_29  and  C_30
REMARK                            x       y       z     vdW  Elec       q    Type
REMARK                         _______ _______ _______ _____ _____    ______ ____
ROOT
ATOM      1  C   UNL     1       2.319   4.296  20.180  0.00  0.00    +0.000 C 
ATOM      2  C   UNL     1       0.808   4.232  20.212  0.00  0.00    +0.000 C 
ATOM      3  N   UNL     1       3.021   5.392  20.311  0.00  0.00    +0.000 NA
ENDROOT
BRANCH   3   4
ATOM      4  N   UNL     1       2.341   6.555  20.465  0.00  0.00    +0.000 N 
ATOM      5  C   UNL     1       2.200   7.494  19.450  0.00  0.00    +0.000 C 
ATOM      6  O   UNL     1       2.619   7.468  18.304  0.00  0.00    +0.000 OA
ATOM      7  H   UNL     1       1.888   6.792  21.348  0.00  0.00    +0.000 HD
BRANCH   5   8
ATOM      8  C   UNL     1       1.373   8.688  19.957  0.00  0.00    +0.000 C 
ATOM      9  O   UNL     1       1.111   8.710  21.156  0.00  0.00    +0.000 OA
ATOM     10  N   UNL     1       0.977   9.582  18.977  0.00  0.00    +0.000 N 
ATOM     11  H   UNL     1       1.198   9.301  18.025  0.00  0.00    +0.000 HD
BRANCH  10  12
ATOM     12  C   UNL     1       0.234  10.771  19.193  0.00  0.00    +0.000 A 
ATOM     13  C   UNL     1      -1.083  10.707  19.676  0.00  0.00    +0.000 A 
ATOM     14  C   UNL     1      -1.838  11.856  19.896  0.00  0.00    +0.000 A 
ATOM     15  C   UNL     1      -1.276  13.100  19.654  0.00  0.00    +0.000 A 
ATOM     16  C   UNL     1       0.040  13.194  19.192  0.00  0.00    +0.000 A 
ATOM     17 CL   UNL     1       0.649  14.797  18.952  0.00  0.00    +0.000 Cl
ATOM     18  C   UNL     1       0.815  12.038  18.940  0.00  0.00    +0.000 A 
ATOM     19  C   UNL     1       2.224  12.153  18.416  0.00  0.00    +0.000 C 
ENDBRANCH  10  12
ENDBRANCH   5   8
ENDBRANCH   3   4
BRANCH   1  20
ATOM     20  C   UNL     1       3.062   2.996  19.988  0.00  0.00    +0.000 C 
BRANCH  20  22
ATOM     21  N   UNL     1       4.645   4.094  18.491  0.00  0.00    +0.000 N 
ATOM     22  C   UNL     1       3.922   2.936  18.747  0.00  0.00    +0.000 C 
ATOM     23  O   UNL     1       3.879   1.955  18.005  0.00  0.00    +0.000 OA
ATOM     24  H   UNL     1       4.184   4.939  18.819  0.00  0.00    +0.000 HD
BRANCH  21  28
ATOM     25  C   UNL     1       6.661   4.435  14.807  0.00  0.00    +0.000 A 
ATOM     26  C   UNL     1       5.275   4.261  14.854  0.00  0.00    +0.000 A 
ATOM     27  C   UNL     1       4.609   4.165  16.077  0.00  0.00    +0.000 A 
ATOM     28  C   UNL     1       5.339   4.212  17.266  0.00  0.00    +0.000 A 
ATOM     29  C   UNL     1       6.734   4.391  17.238  0.00  0.00    +0.000 A 
ATOM     30  C   UNL     1       7.386   4.510  16.001  0.00  0.00    +0.000 A 
BRANCH  25  32
ATOM     31  C   UNL     1       6.565   3.755  12.525  0.00  0.00    +0.000 C 
ATOM     32  O   UNL     1       7.177   4.538  13.544  0.00  0.00    +0.000 OA
ENDBRANCH  25  32
BRANCH  29  33
ATOM     33  O   UNL     1       7.355   4.538  18.454  0.00  0.00    +0.000 OA
ATOM     34  C   UNL     1       7.654   5.867  18.859  0.00  0.00    +0.000 C 
ENDBRANCH  29  33
ENDBRANCH  21  28
ENDBRANCH  20  22
ENDBRANCH   1  20
TORSDOF 8
ENDMDL
MODEL 2
REMARK VINA RESULT:      -7.9      1.266      1.560
REMARK  Name = 
REMARK  12 active torsions:
REMARK  status: ('A' for Active; 'I' for Inactive)
REMARK    1  A    between atoms: C_1  and  O_2
REMARK    2  A    between atoms: O_2  and  C_3
REMARK    3  A    between atoms: C_6  and  N_7
REMARK    4  A    between atoms: C_8  and  C_10
REMARK    5  A    between atoms: C_10  and  C_11
REMARK    6  A    between atoms: C_11  and  C_12
REMARK    7  A    between atoms: N_13  and  N_14
REMARK    8  A    between atoms: C_15  and  C_17
REMARK    9  A    between atoms: N_19  and  C_20
REMARK   10  A    between atoms: C_26  and  C_27
REMARK   11  A    between atoms: C_28  and  O_29
REMARK   12  A    between atoms: O_29  and  C_30
REMARK                            x       y       z     vdW  Elec       q    Type
REMARK                         _______ _______ _______ _____ _____    ______ ____
ROOT
ATOM      1  C   UNL     1       2.703   3.870  20.318  0.00  0.00    +0.000 C 
ATOM      2  C   UNL     1       2.043   3.797  21.678  0.00  0.00    +0.000 C 
ATOM      3  N   UNL     1       2.752   4.943  19.572  0.00  0.00    +0.000 NA
ENDROOT
BRANCH   3   4
ATOM      4  N   UNL     1       2.149   6.062  20.043  0.00  0.00    +0.000 N 
ATOM      5  C   UNL     1       2.276   7.306  19.438  0.00  0.00    +0.000 C 
ATOM      6  O   UNL     1       2.900   7.625  18.439  0.00  0.00    +0.000 OA
ATOM      7  H   UNL     1       1.557   6.036  20.874  0.00  0.00    +0.000 HD
BRANCH   5   8
ATOM      8  C   UNL     1       1.464   8.351  20.223  0.00  0.00    +0.000 C 
ATOM      9  O   UNL     1       1.240   8.104  21.404  0.00  0.00    +0.000 OA
ATOM     10  N   UNL     1       1.038   9.439  19.479  0.00  0.00    +0.000 N 
ATOM     11  H   UNL     1       1.229   9.378  18.482  0.00  0.00    +0.000 HD
BRANCH  10  12
ATOM     12  C   UNL     1       0.301  10.544  19.976  0.00  0.00    +0.000 A 
ATOM     13  C   UNL     1       0.853  11.380  20.961  0.00  0.00    +0.000 A 
ATOM     14  C   UNL     1       0.153  12.472  21.470  0.00  0.00    +0.000 A 
ATOM     15  C   UNL     1      -1.113  12.759  20.984  0.00  0.00    +0.000 A 
ATOM     16  C   UNL     1      -1.678  11.956  19.989  0.00  0.00    +0.000 A 
ATOM     17 CL   UNL     1      -3.251  12.423  19.435  0.00  0.00    +0.000 Cl
ATOM     18  C   UNL     1      -0.993  10.829  19.477  0.00  0.00    +0.000 A 
ATOM     19  C   UNL     1      -1.627   9.955  18.424  0.00  0.00    +0.000 C 
ENDBRANCH  10  12
ENDBRANCH   5   8
ENDBRANCH   3   4
BRANCH   1  20
ATOM     20  C   UNL     1       3.353   2.611  19.797  0.00  0.00    +0.000 C 
BRANCH  20  22
ATOM     21  N   UNL     1       5.045   3.794  18.496  0.00  0.00    +0.000 N 
ATOM     22  C   UNL     1       4.098   2.779  18.493  0.00  0.00    +0.000 C 
ATOM     23  O   UNL     1       3.789   2.108  17.508  0.00  0.00    +0.000 OA
ATOM     24  H   UNL     1       4.807   4.566  19.114  0.00  0.00    +0.000 HD
BRANCH  21  28
ATOM     25  C   UNL     1       6.855   4.850  14.840  0.00  0.00    +0.000 A 
ATOM     26  C   UNL     1       5.509   4.475  14.894  0.00  0.00    +0.000 A 
ATOM     27  C   UNL     1       4.910   4.142  16.110  0.00  0.00    +0.000 A 
ATOM     28  C   UNL     1       5.669   4.154  17.281  0.00  0.00    +0.000 A 
ATOM     29  C   UNL     1       7.024   4.533  17.247  0.00  0.00    +0.000 A 
ATOM     30  C   UNL     1       7.606   4.888  16.020  0.00  0.00    +0.000 A 
BRANCH  25  32
ATOM     31  C   UNL     1       7.043   4.244  12.543  0.00  0.00    +0.000 C 
ATOM     32  O   UNL     1       7.304   5.174  13.589  0.00  0.00    +0.000 OA
ENDBRANCH  25  32
BRANCH  29  33
ATOM     33  O   UNL     1       7.663   4.623  18.459  0.00  0.00    +0.000 OA
ATOM     34  C   UNL     1       7.847   5.931  18.984  0.00  0.00    +0.000 C 
ENDBRANCH  29  33
ENDBRANCH  21  28
ENDBRANCH  20  22
ENDBRANCH   1  20
TORSDOF 8
ENDMDL
MODEL 3
REMARK VINA RESULT:      -7.7      1.430      1.474
REMARK  Name = 
REMARK  12 active torsions:
REMARK  status: ('A' for Active; 'I' for Inactive)
REMARK    1  A    between atoms: C_1  and  O_2
REMARK    2  A    between atoms: O_2  and  C_3
REMARK    3  A    between atoms: C_6  and  N_7
REMARK    4  A    between atoms: C_8  and  C_10
REMARK    5  A    between atoms: C_10  and  C_11
REMARK    6  A    between atoms: C_11  and  C_12
REMARK    7  A    between atoms: N_13  and  N_14
REMARK    8  A    between atoms: C_15  and  C_17
REMARK    9  A    between atoms: N_19  and  C_20
REMARK   10  A    between atoms: C_26  and  C_27
REMARK   11  A    between atoms: C_28  and  O_29
REMARK   12  A    between atoms: O_29  and  C_30
REMARK                            x       y       z     vdW  Elec       q    Type
REMARK                         _______ _______ _______ _____ _____    ______ ____
ROOT
ATOM      1  C   UNL     1       2.168   3.966  20.288  0.00  0.00    +0.000 C 
ATOM      2  C   UNL     1       2.206   3.879  21.798  0.00  0.00    +0.000 C 
ATOM      3  N   UNL     1       1.888   5.050  19.612  0.00  0.00    +0.000 NA
ENDROOT
BRANCH   3   4
ATOM      4  N   UNL     1       1.591   6.169  20.317  0.00  0.00    +0.000 N 
ATOM      5  C   UNL     1       1.900   7.450  19.877  0.00  0.00    +0.000 C 
ATOM      6  O   UNL     1       2.452   7.807  18.849  0.00  0.00    +0.000 OA
ATOM      7  H   UNL     1       1.111   6.118  21.216  0.00  0.00    +0.000 HD
BRANCH   5   8
ATOM      8  C   UNL     1       1.422   8.485  20.911  0.00  0.00    +0.000 C 
ATOM      9  O   UNL     1       1.698   8.260  22.085  0.00  0.00    +0.000 OA
ATOM     10  N   UNL     1       0.688   9.537  20.388  0.00  0.00    +0.000 N 
ATOM     11  H   UNL     1       0.469   9.456  19.398  0.00  0.00    +0.000 HD
BRANCH  10  12
ATOM     12  C   UNL     1       0.162  10.626  21.127  0.00  0.00    +0.000 A 
ATOM     13  C   UNL     1      -0.660  10.398  22.243  0.00  0.00    +0.000 A 
ATOM     14  C   UNL     1      -1.192  11.447  22.987  0.00  0.00    +0.000 A 
ATOM     15  C   UNL     1      -0.891  12.754  22.638  0.00  0.00    +0.000 A 
ATOM     16  C   UNL     1      -0.059  13.011  21.545  0.00  0.00    +0.000 A 
ATOM     17 CL   UNL     1       0.274  14.678  21.217  0.00  0.00    +0.000 Cl
ATOM     18  C   UNL     1       0.472  11.959  20.762  0.00  0.00    +0.000 A 
ATOM     19  C   UNL     1       1.347  12.252  19.569  0.00  0.00    +0.000 C 
ENDBRANCH  10  12
ENDBRANCH   5   8
ENDBRANCH   3   4
BRANCH   1  20
ATOM     20  C   UNL     1       2.481   2.708  19.515  0.00  0.00    +0.000 C 
BRANCH  20  22
ATOM     21  N   UNL     1       4.209   4.095  18.494  0.00  0.00    +0.000 N 
ATOM     22  C   UNL     1       3.620   2.839  18.530  0.00  0.00    +0.000 C 
ATOM     23  O   UNL     1       3.903   1.907  17.777  0.00  0.00    +0.000 OA
ATOM     24  H   UNL     1       3.564   4.850  18.716  0.00  0.00    +0.000 HD
BRANCH  21  28
ATOM     25  C   UNL     1       6.998   4.930  15.448  0.00  0.00    +0.000 A 
ATOM     26  C   UNL     1       5.654   4.694  15.146  0.00  0.00    +0.000 A 
ATOM     27  C   UNL     1       4.730   4.434  16.160  0.00  0.00    +0.000 A 
ATOM     28  C   UNL     1       5.158   4.379  17.487  0.00  0.00    +0.000 A 
ATOM     29  C   UNL     1       6.507   4.618  17.810  0.00  0.00    +0.000 A 
ATOM     30  C   UNL     1       7.418   4.901  16.781  0.00  0.00    +0.000 A 
BRANCH  25  32
ATOM     31  C   UNL     1       7.256   4.871  13.080  0.00  0.00    +0.000 C 
ATOM     32  O   UNL     1       7.785   5.195  14.360  0.00  0.00    +0.000 OA
ENDBRANCH  25  32
BRANCH  29  33
ATOM     33  O   UNL     1       6.817   4.654  19.148  0.00  0.00    +0.000 OA
ATOM     34  C   UNL     1       7.729   5.662  19.561  0.00  0.00    +0.000 C 
ENDBRANCH  29  33
ENDBRANCH  21  28
ENDBRANCH  20  22
ENDBRANCH   1  20
TORSDOF 8
ENDMDL
MODEL 4
REMARK VINA RESULT:      -7.6      1.073      1.093
REMARK  Name = 
REMARK  12 active torsions:
REMARK  status: ('A' for Active; 'I' for Inactive)
REMARK    1  A    between atoms: C_1  and  O_2
REMARK    2  A    between atoms: O_2  and  C_3
REMARK    3  A    between atoms: C_6  and  N_7
REMARK    4  A    between atoms: C_8  and  C_10
REMARK    5  A    between atoms: C_10  and  C_11
REMARK    6  A    between atoms: C_11  and  C_12
REMARK    7  A    between atoms: N_13  and  N_14
REMARK    8  A    between atoms: C_15  and  C_17
REMARK    9  A    between atoms: N_19  and  C_20
REMARK   10  A    between atoms: C_26  and  C_27
REMARK   11  A    between atoms: C_28  and  O_29
REMARK   12  A    between atoms: O_29  and  C_30
REMARK                            x       y       z     vdW  Elec       q    Type
REMARK                         _______ _______ _______ _____ _____    ______ ____
ROOT
ATOM      1  C   UNL     1       2.118   4.358  20.558  0.00  0.00    +0.000 C 
ATOM      2  C   UNL     1       0.650   4.135  20.269  0.00  0.00    +0.000 C 
ATOM      3  N   UNL     1       2.649   5.513  20.868  0.00  0.00    +0.000 NA
ENDROOT
BRANCH   3   4
ATOM      4  N   UNL     1       1.825   6.589  20.912  0.00  0.00    +0.000 N 
ATOM      5  C   UNL     1       1.873   7.622  19.985  0.00  0.00    +0.000 C 
ATOM      6  O   UNL     1       2.601   7.764  19.016  0.00  0.00    +0.000 OA
ATOM      7  H   UNL     1       1.114   6.683  21.638  0.00  0.00    +0.000 HD
BRANCH   5   8
ATOM      8  C   UNL     1       0.803   8.675  20.324  0.00  0.00    +0.000 C 
ATOM      9  O   UNL     1       0.200   8.529  21.382  0.00  0.00    +0.000 OA
ATOM     10  N   UNL     1       0.617   9.649  19.358  0.00  0.00    +0.000 N 
ATOM     11  H   UNL     1       1.138   9.505  18.496  0.00  0.00    +0.000 HD
BRANCH  10  12
ATOM     12  C   UNL     1      -0.286  10.740  19.446  0.00  0.00    +0.000 A 
ATOM     13  C   UNL     1      -1.582  10.634  18.916  0.00  0.00    +0.000 A 
ATOM     14  C   UNL     1      -2.490  11.687  18.987  0.00  0.00    +0.000 A 
ATOM     15  C   UNL     1      -2.120  12.868  19.611  0.00  0.00    +0.000 A 
ATOM     16  C   UNL     1      -0.843  12.994  20.165  0.00  0.00    +0.000 A 
ATOM     17 CL   UNL     1      -0.498  14.500  20.947  0.00  0.00    +0.000 Cl
ATOM     18  C   UNL     1       0.101  11.944  20.084  0.00  0.00    +0.000 A 
ATOM     19  C   UNL     1       1.485  12.104  20.661  0.00  0.00    +0.000 C 
ENDBRANCH  10  12
ENDBRANCH   5   8
ENDBRANCH   3   4
BRANCH   1  20
ATOM     20  C   UNL     1       3.027   3.155  20.486  0.00  0.00    +0.000 C 
BRANCH  20  22
ATOM     21  N   UNL     1       4.103   4.372  18.666  0.00  0.00    +0.000 N 
ATOM     22  C   UNL     1       4.206   3.309  19.553  0.00  0.00    +0.000 C 
ATOM     23  O   UNL     1       5.115   2.479  19.555  0.00  0.00    +0.000 OA
ATOM     24  H   UNL     1       3.145   4.589  18.405  0.00  0.00    +0.000 HD
BRANCH  21  28
ATOM     25  C   UNL     1       6.923   4.716  15.553  0.00  0.00    +0.000 A 
ATOM     26  C   UNL     1       5.686   4.102  15.337  0.00  0.00    +0.000 A 
ATOM     27  C   UNL     1       4.749   4.004  16.367  0.00  0.00    +0.000 A 
ATOM     28  C   UNL     1       5.061   4.499  17.634  0.00  0.00    +0.000 A 
ATOM     29  C   UNL     1       6.299   5.125  17.869  0.00  0.00    +0.000 A 
ATOM     30  C   UNL     1       7.222   5.236  16.817  0.00  0.00    +0.000 A 
BRANCH  25  32
ATOM     31  C   UNL     1       7.112   4.608  13.180  0.00  0.00    +0.000 C 
ATOM     32  O   UNL     1       7.733   4.764  14.451  0.00  0.00    +0.000 OA
ENDBRANCH  25  32
BRANCH  29  33
ATOM     33  O   UNL     1       6.476   5.680  19.112  0.00  0.00    +0.000 OA
ATOM     34  C   UNL     1       7.803   5.682  19.624  0.00  0.00    +0.000 C 
ENDBRANCH  29  33
ENDBRANCH  21  28
ENDBRANCH  20  22
ENDBRANCH   1  20
TORSDOF 8
ENDMDL
MODEL 5
REMARK VINA RESULT:      -7.5      1.860      2.207
REMARK  Name = 
REMARK  12 active torsions:
REMARK  status: ('A' for Active; 'I' for Inactive)
REMARK    1  A    between atoms: C_1  and  O_2
REMARK    2  A    between atoms: O_2  and  C_3
REMARK    3  A    between atoms: C_6  and  N_7
REMARK    4  A    between atoms: C_8  and  C_10
REMARK    5  A    between atoms: C_10  and  C_11
REMARK    6  A    between atoms: C_11  and  C_12
REMARK    7  A    between atoms: N_13  and  N_14
REMARK    8  A    between atoms: C_15  and  C_17
REMARK    9  A    between atoms: N_19  and  C_20
REMARK   10  A    between atoms: C_26  and  C_27
REMARK   11  A    between atoms: C_28  and  O_29
REMARK   12  A    between atoms: O_29  and  C_30
REMARK                            x       y       z     vdW  Elec       q    Type
REMARK                         _______ _______ _______ _____ _____    ______ ____
ROOT
ATOM      1  C   UNL     1       2.572   5.166  19.993  0.00  0.00    +0.000 C 
ATOM      2  C   UNL     1       1.208   5.034  20.635  0.00  0.00    +0.000 C 
ATOM      3  N   UNL     1       3.061   6.277  19.507  0.00  0.00    +0.000 NA
ENDROOT
BRANCH   3   4
ATOM      4  N   UNL     1       2.280   7.384  19.566  0.00  0.00    +0.000 N 
ATOM      5  C   UNL     1       2.156   8.283  18.514  0.00  0.00    +0.000 C 
ATOM      6  O   UNL     1       2.676   8.265  17.410  0.00  0.00    +0.000 OA
ATOM      7  H   UNL     1       1.732   7.603  20.398  0.00  0.00    +0.000 HD
BRANCH   5   8
ATOM      8  C   UNL     1       1.193   9.417  18.910  0.00  0.00    +0.000 C 
ATOM      9  O   UNL     1       0.363   9.754  18.072  0.00  0.00    +0.000 OA
ATOM     10  N   UNL     1       1.413   9.958  20.166  0.00  0.00    +0.000 N 
ATOM     11  H   UNL     1       2.241   9.611  20.643  0.00  0.00    +0.000 HD
BRANCH  10  12
ATOM     12  C   UNL     1       0.648  10.989  20.767  0.00  0.00    +0.000 A 
ATOM     13  C   UNL     1       0.826  12.326  20.377  0.00  0.00    +0.000 A 
ATOM     14  C   UNL     1       0.090  13.360  20.951  0.00  0.00    +0.000 A 
ATOM     15  C   UNL     1      -0.858  13.069  21.919  0.00  0.00    +0.000 A 
ATOM     16  C   UNL     1      -1.071  11.745  22.312  0.00  0.00    +0.000 A 
ATOM     17 CL   UNL     1      -2.299  11.493  23.506  0.00  0.00    +0.000 Cl
ATOM     18  C   UNL     1      -0.317  10.683  21.758  0.00  0.00    +0.000 A 
ATOM     19  C   UNL     1      -0.538   9.262  22.212  0.00  0.00    +0.000 C 
ENDBRANCH  10  12
ENDBRANCH   5   8
ENDBRANCH   3   4
BRANCH   1  20
ATOM     20  C   UNL     1       3.423   3.921  19.917  0.00  0.00    +0.000 C 
BRANCH  20  22
ATOM     21  N   UNL     1       5.053   4.639  18.249  0.00  0.00    +0.000 N 
ATOM     22  C   UNL     1       4.091   3.694  18.581  0.00  0.00    +0.000 C 
ATOM     23  O   UNL     1       3.714   2.785  17.843  0.00  0.00    +0.000 OA
ATOM     24  H   UNL     1       4.864   5.560  18.637  0.00  0.00    +0.000 HD
BRANCH  21  28
ATOM     25  C   UNL     1       6.665   4.558  14.357  0.00  0.00    +0.000 A 
ATOM     26  C   UNL     1       5.424   3.977  14.633  0.00  0.00    +0.000 A 
ATOM     27  C   UNL     1       4.887   4.020  15.920  0.00  0.00    +0.000 A 
ATOM     28  C   UNL     1       5.609   4.624  16.950  0.00  0.00    +0.000 A 
ATOM     29  C   UNL     1       6.857   5.219  16.691  0.00  0.00    +0.000 A 
ATOM     30  C   UNL     1       7.373   5.188  15.386  0.00  0.00    +0.000 A 
BRANCH  25  32
ATOM     31  C   UNL     1       6.411   3.483  12.246  0.00  0.00    +0.000 C 
ATOM     32  O   UNL     1       7.057   4.464  13.049  0.00  0.00    +0.000 OA
ENDBRANCH  25  32
BRANCH  29  33
ATOM     33  O   UNL     1       7.445   5.886  17.737  0.00  0.00    +0.000 OA
ATOM     34  C   UNL     1       7.642   7.284  17.568  0.00  0.00    +0.000 C 
ENDBRANCH  29  33
ENDBRANCH  21  28
ENDBRANCH  20  22
ENDBRANCH   1  20
TORSDOF 8
ENDMDL
MODEL 6
REMARK VINA RESULT:      -7.5      1.653      2.010
REMARK  Name = 
REMARK  12 active torsions:
REMARK  status: ('A' for Active; 'I' for Inactive)
REMARK    1  A    between atoms: C_1  and  O_2
REMARK    2  A    between atoms: O_2  and  C_3
REMARK    3  A    between atoms: C_6  and  N_7
REMARK    4  A    between atoms: C_8  and  C_10
REMARK    5  A    between atoms: C_10  and  C_11
REMARK    6  A    between atoms: C_11  and  C_12
REMARK    7  A    between atoms: N_13  and  N_14
REMARK    8  A    between atoms: C_15  and  C_17
REMARK    9  A    between atoms: N_19  and  C_20
REMARK   10  A    between atoms: C_26  and  C_27
REMARK   11  A    between atoms: C_28  and  O_29
REMARK   12  A    between atoms: O_29  and  C_30
REMARK                            x       y       z     vdW  Elec       q    Type
REMARK                         _______ _______ _______ _____ _____    ______ ____
ROOT
ATOM      1  C   UNL     1       2.988   4.799  20.115  0.00  0.00    +0.000 C 
ATOM      2  C   UNL     1       1.793   4.439  20.970  0.00  0.00    +0.000 C 
ATOM      3  N   UNL     1       3.244   5.999  19.662  0.00  0.00    +0.000 NA
ENDROOT
BRANCH   3   4
ATOM      4  N   UNL     1       2.364   6.984  19.964  0.00  0.00    +0.000 N 
ATOM      5  C   UNL     1       2.130   8.076  19.137  0.00  0.00    +0.000 C 
ATOM      6  O   UNL     1       2.625   8.352  18.056  0.00  0.00    +0.000 OA
ATOM      7  H   UNL     1       1.816   6.960  20.825  0.00  0.00    +0.000 HD
BRANCH   5   8
ATOM      8  C   UNL     1       1.074   8.995  19.775  0.00  0.00    +0.000 C 
ATOM      9  O   UNL     1       0.765   8.757  20.938  0.00  0.00    +0.000 OA
ATOM     10  N   UNL     1       0.559   9.965  18.932  0.00  0.00    +0.000 N 
ATOM     11  H   UNL     1       0.867   9.900  17.964  0.00  0.00    +0.000 HD
BRANCH  10  12
ATOM     12  C   UNL     1      -0.402  10.945  19.288  0.00  0.00    +0.000 A 
ATOM     13  C   UNL     1      -0.065  11.981  20.176  0.00  0.00    +0.000 A 
ATOM     14  C   UNL     1      -0.987  12.957  20.546  0.00  0.00    +0.000 A 
ATOM     15  C   UNL     1      -2.266  12.925  20.014  0.00  0.00    +0.000 A 
ATOM     16  C   UNL     1      -2.623  11.918  19.113  0.00  0.00    +0.000 A 
ATOM     17 CL   UNL     1      -4.236  11.991  18.489  0.00  0.00    +0.000 Cl
ATOM     18  C   UNL     1      -1.708  10.904  18.743  0.00  0.00    +0.000 A 
ATOM     19  C   UNL     1      -2.116   9.808  17.791  0.00  0.00    +0.000 C 
ENDBRANCH  10  12
ENDBRANCH   5   8
ENDBRANCH   3   4
BRANCH   1  20
ATOM     20  C   UNL     1       3.951   3.688  19.770  0.00  0.00    +0.000 C 
BRANCH  20  22
ATOM     21  N   UNL     1       4.400   4.439  17.492  0.00  0.00    +0.000 N 
ATOM     22  C   UNL     1       4.958   4.036  18.698  0.00  0.00    +0.000 C 
ATOM     23  O   UNL     1       6.161   3.869  18.896  0.00  0.00    +0.000 OA
ATOM     24  H   UNL     1       3.497   4.011  17.302  0.00  0.00    +0.000 HD
BRANCH  21  28
ATOM     25  C   UNL     1       6.899   4.902  14.131  0.00  0.00    +0.000 A 
ATOM     26  C   UNL     1       6.113   3.757  14.290  0.00  0.00    +0.000 A 
ATOM     27  C   UNL     1       5.274   3.615  15.396  0.00  0.00    +0.000 A 
ATOM     28  C   UNL     1       5.242   4.613  16.371  0.00  0.00    +0.000 A 
ATOM     29  C   UNL     1       6.023   5.775  16.226  0.00  0.00    +0.000 A 
ATOM     30  C   UNL     1       6.843   5.913  15.096  0.00  0.00    +0.000 A 
BRANCH  25  32
ATOM     31  C   UNL     1       7.194   4.133  11.895  0.00  0.00    +0.000 C 
ATOM     32  O   UNL     1       7.653   4.918  12.989  0.00  0.00    +0.000 OA
ENDBRANCH  25  32
BRANCH  29  33
ATOM     33  O   UNL     1       5.845   6.752  17.175  0.00  0.00    +0.000 OA
ATOM     34  C   UNL     1       7.020   7.394  17.653  0.00  0.00    +0.000 C 
ENDBRANCH  29  33
ENDBRANCH  21  28
ENDBRANCH  20  22
ENDBRANCH   1  20
TORSDOF 8
ENDMDL
MODEL 7
REMARK VINA RESULT:      -7.4      1.838      2.161
REMARK  Name = 
REMARK  12 active torsions:
REMARK  status: ('A' for Active; 'I' for Inactive)
REMARK    1  A    between atoms: C_1  and  O_2
REMARK    2  A    between atoms: O_2  and  C_3
REMARK    3  A    between atoms: C_6  and  N_7
REMARK    4  A    between atoms: C_8  and  C_10
REMARK    5  A    between atoms: C_10  and  C_11
REMARK    6  A    between atoms: C_11  and  C_12
REMARK    7  A    between atoms: N_13  and  N_14
REMARK    8  A    between atoms: C_15  and  C_17
REMARK    9  A    between atoms: N_19  and  C_20
REMARK   10  A    between atoms: C_26  and  C_27
REMARK   11  A    between atoms: C_28  and  O_29
REMARK   12  A    between atoms: O_29  and  C_30
REMARK                            x       y       z     vdW  Elec       q    Type
REMARK                         _______ _______ _______ _____ _____    ______ ____
ROOT
ATOM      1  C   UNL     1       2.253   5.623  19.801  0.00  0.00    +0.000 C 
ATOM      2  C   UNL     1       1.500   5.987  21.062  0.00  0.00    +0.000 C 
ATOM      3  N   UNL     1       2.387   6.407  18.762  0.00  0.00    +0.000 NA
ENDROOT
BRANCH   3   4
ATOM      4  N   UNL     1       1.791   7.623  18.814  0.00  0.00    +0.000 N 
ATOM      5  C   UNL     1       2.207   8.708  18.052  0.00  0.00    +0.000 C 
ATOM      6  O   UNL     1       3.117   8.785  17.242  0.00  0.00    +0.000 OA
ATOM      7  H   UNL     1       0.989   7.796  19.420  0.00  0.00    +0.000 HD
BRANCH   5   8
ATOM      8  C   UNL     1       1.315   9.926  18.349  0.00  0.00    +0.000 C 
ATOM      9  O   UNL     1       1.824  11.032  18.201  0.00  0.00    +0.000 OA
ATOM     10  N   UNL     1       0.041   9.621  18.798  0.00  0.00    +0.000 N 
ATOM     11  H   UNL     1      -0.129   8.632  18.969  0.00  0.00    +0.000 HD
BRANCH  10  12
ATOM     12  C   UNL     1      -0.973  10.561  19.111  0.00  0.00    +0.000 A 
ATOM     13  C   UNL     1      -0.848  11.392  20.236  0.00  0.00    +0.000 A 
ATOM     14  C   UNL     1      -1.827  12.325  20.570  0.00  0.00    +0.000 A 
ATOM     15  C   UNL     1      -2.948  12.456  19.766  0.00  0.00    +0.000 A 
ATOM     16  C   UNL     1      -3.089  11.656  18.628  0.00  0.00    +0.000 A 
ATOM     17 CL   UNL     1      -4.513  11.925  17.680  0.00  0.00    +0.000 Cl
ATOM     18  C   UNL     1      -2.117  10.688  18.285  0.00  0.00    +0.000 A 
ATOM     19  C   UNL     1      -2.296   9.812  17.070  0.00  0.00    +0.000 C 
ENDBRANCH  10  12
ENDBRANCH   5   8
ENDBRANCH   3   4
BRANCH   1  20
ATOM     20  C   UNL     1       2.896   4.258  19.749  0.00  0.00    +0.000 C 
BRANCH  20  22
ATOM     21  N   UNL     1       4.719   5.064  18.343  0.00  0.00    +0.000 N 
ATOM     22  C   UNL     1       3.813   4.037  18.569  0.00  0.00    +0.000 C 
ATOM     23  O   UNL     1       3.667   3.054  17.842  0.00  0.00    +0.000 OA
ATOM     24  H   UNL     1       4.373   5.977  18.625  0.00  0.00    +0.000 HD
BRANCH  21  28
ATOM     25  C   UNL     1       6.994   5.013  14.796  0.00  0.00    +0.000 A 
ATOM     26  C   UNL     1       5.637   5.346  14.774  0.00  0.00    +0.000 A 
ATOM     27  C   UNL     1       4.891   5.377  15.954  0.00  0.00    +0.000 A 
ATOM     28  C   UNL     1       5.499   5.043  17.165  0.00  0.00    +0.000 A 
ATOM     29  C   UNL     1       6.866   4.710  17.207  0.00  0.00    +0.000 A 
ATOM     30  C   UNL     1       7.607   4.706  16.015  0.00  0.00    +0.000 A 
BRANCH  25  32
ATOM     31  C   UNL     1       7.027   4.263  12.535  0.00  0.00    +0.000 C 
ATOM     32  O   UNL     1       7.606   5.046  13.572  0.00  0.00    +0.000 OA
ENDBRANCH  25  32
BRANCH  29  33
ATOM     33  O   UNL     1       7.406   4.505  18.453  0.00  0.00    +0.000 OA
ATOM     34  C   UNL     1       7.866   5.659  19.143  0.00  0.00    +0.000 C 
ENDBRANCH  29  33
ENDBRANCH  21  28
ENDBRANCH  20  22
ENDBRANCH   1  20
TORSDOF 8
ENDMDL
MODEL 8
REMARK VINA RESULT:      -7.3      1.695      1.901
REMARK  Name = 
REMARK  12 active torsions:
REMARK  status: ('A' for Active; 'I' for Inactive)
REMARK    1  A    between atoms: C_1  and  O_2
REMARK    2  A    between atoms: O_2  and  C_3
REMARK    3  A    between atoms: C_6  and  N_7
REMARK    4  A    between atoms: C_8  and  C_10
REMARK    5  A    between atoms: C_10  and  C_11
REMARK    6  A    between atoms: C_11  and  C_12
REMARK    7  A    between atoms: N_13  and  N_14
REMARK    8  A    between atoms: C_15  and  C_17
REMARK    9  A    between atoms: N_19  and  C_20
REMARK   10  A    between atoms: C_26  and  C_27
REMARK   11  A    between atoms: C_28  and  O_29
REMARK   12  A    between atoms: O_29  and  C_30
REMARK                            x       y       z     vdW  Elec       q    Type
REMARK                         _______ _______ _______ _____ _____    ______ ____
ROOT
ATOM      1  C   UNL     1       2.318   5.172  19.690  0.00  0.00    +0.000 C 
ATOM      2  C   UNL     1       1.838   5.579  21.066  0.00  0.00    +0.000 C 
ATOM      3  N   UNL     1       2.338   5.960  18.646  0.00  0.00    +0.000 NA
ENDROOT
BRANCH   3   4
ATOM      4  N   UNL     1       1.877   7.224  18.806  0.00  0.00    +0.000 N 
ATOM      5  C   UNL     1       2.309   8.296  18.034  0.00  0.00    +0.000 C 
ATOM      6  O   UNL     1       3.122   8.320  17.125  0.00  0.00    +0.000 OA
ATOM      7  H   UNL     1       1.171   7.447  19.509  0.00  0.00    +0.000 HD
BRANCH   5   8
ATOM      8  C   UNL     1       1.583   9.580  18.473  0.00  0.00    +0.000 C 
ATOM      9  O   UNL     1       2.112  10.644  18.169  0.00  0.00    +0.000 OA
ATOM     10  N   UNL     1       0.428   9.375  19.209  0.00  0.00    +0.000 N 
ATOM     11  H   UNL     1       0.242   8.406  19.455  0.00  0.00    +0.000 HD
BRANCH  10  12
ATOM     12  C   UNL     1      -0.429  10.392  19.703  0.00  0.00    +0.000 A 
ATOM     13  C   UNL     1      -1.250  11.118  18.825  0.00  0.00    +0.000 A 
ATOM     14  C   UNL     1      -2.100  12.122  19.280  0.00  0.00    +0.000 A 
ATOM     15  C   UNL     1      -2.158  12.407  20.635  0.00  0.00    +0.000 A 
ATOM     16  C   UNL     1      -1.367  11.686  21.534  0.00  0.00    +0.000 A 
ATOM     17 CL   UNL     1      -1.541  12.104  23.205  0.00  0.00    +0.000 Cl
ATOM     18  C   UNL     1      -0.480  10.678  21.089  0.00  0.00    +0.000 A 
ATOM     19  C   UNL     1       0.388   9.928  22.068  0.00  0.00    +0.000 C 
ENDBRANCH  10  12
ENDBRANCH   5   8
ENDBRANCH   3   4
BRANCH   1  20
ATOM     20  C   UNL     1       2.811   3.755  19.520  0.00  0.00    +0.000 C 
BRANCH  20  22
ATOM     21  N   UNL     1       4.607   4.567  18.082  0.00  0.00    +0.000 N 
ATOM     22  C   UNL     1       3.707   3.537  18.323  0.00  0.00    +0.000 C 
ATOM     23  O   UNL     1       3.550   2.555  17.598  0.00  0.00    +0.000 OA
ATOM     24  H   UNL     1       4.264   5.479  18.372  0.00  0.00    +0.000 HD
BRANCH  21  28
ATOM     25  C   UNL     1       6.816   4.506  14.494  0.00  0.00    +0.000 A 
ATOM     26  C   UNL     1       5.419   4.468  14.478  0.00  0.00    +0.000 A 
ATOM     27  C   UNL     1       4.691   4.505  15.669  0.00  0.00    +0.000 A 
ATOM     28  C   UNL     1       5.365   4.550  16.890  0.00  0.00    +0.000 A 
ATOM     29  C   UNL     1       6.771   4.593  16.925  0.00  0.00    +0.000 A 
ATOM     30  C   UNL     1       7.488   4.579  15.719  0.00  0.00    +0.000 A 
BRANCH  25  32
ATOM     31  C   UNL     1       6.744   3.736  12.240  0.00  0.00    +0.000 C 
ATOM     32  O   UNL     1       7.398   4.489  13.256  0.00  0.00    +0.000 OA
ENDBRANCH  25  32
BRANCH  29  33
ATOM     33  O   UNL     1       7.345   4.748  18.163  0.00  0.00    +0.000 OA
ATOM     34  C   UNL     1       7.773   6.060  18.505  0.00  0.00    +0.000 C 
ENDBRANCH  29  33
ENDBRANCH  21  28
ENDBRANCH  20  22
ENDBRANCH   1  20
TORSDOF 8
ENDMDL
MODEL 9
REMARK VINA RESULT:      -7.2      2.403      3.668
REMARK  Name = 
REMARK  12 active torsions:
REMARK  status: ('A' for Active; 'I' for Inactive)
REMARK    1  A    between atoms: C_1  and  O_2
REMARK    2  A    between atoms: O_2  and  C_3
REMARK    3  A    between atoms: C_6  and  N_7
REMARK    4  A    between atoms: C_8  and  C_10
REMARK    5  A    between atoms: C_10  and  C_11
REMARK    6  A    between atoms: C_11  and  C_12
REMARK    7  A    between atoms: N_13  and  N_14
REMARK    8  A    between atoms: C_15  and  C_17
REMARK    9  A    between atoms: N_19  and  C_20
REMARK   10  A    between atoms: C_26  and  C_27
REMARK   11  A    between atoms: C_28  and  O_29
REMARK   12  A    between atoms: O_29  and  C_30
REMARK                            x       y       z     vdW  Elec       q    Type
REMARK                         _______ _______ _______ _____ _____    ______ ____
ROOT
ATOM      1  C   UNL     1       1.526   8.003  20.491  0.00  0.00    +0.000 C 
ATOM      2  C   UNL     1       1.270   8.817  21.740  0.00  0.00    +0.000 C 
ATOM      3  N   UNL     1       1.650   8.504  19.289  0.00  0.00    +0.000 NA
ENDROOT
BRANCH   3   4
ATOM      4  N   UNL     1       1.517   9.846  19.153  0.00  0.00    +0.000 N 
ATOM      5  C   UNL     1       0.324  10.459  18.792  0.00  0.00    +0.000 C 
ATOM      6  O   UNL     1      -0.763   9.961  18.546  0.00  0.00    +0.000 OA
ATOM      7  H   UNL     1       2.300  10.477  19.322  0.00  0.00    +0.000 HD
BRANCH   5   8
ATOM      8  C   UNL     1       0.519  11.984  18.734  0.00  0.00    +0.000 C 
ATOM      9  O   UNL     1      -0.432  12.648  18.334  0.00  0.00    +0.000 OA
ATOM     10  N   UNL     1       1.779  12.426  19.101  0.00  0.00    +0.000 N 
ATOM     11  H   UNL     1       2.458  11.689  19.276  0.00  0.00    +0.000 HD
BRANCH  10  12
ATOM     12  C   UNL     1       2.197  13.780  19.156  0.00  0.00    +0.000 A 
ATOM     13  C   UNL     1       2.932  14.341  18.098  0.00  0.00    +0.000 A 
ATOM     14  C   UNL     1       3.357  15.667  18.125  0.00  0.00    +0.000 A 
ATOM     15  C   UNL     1       3.036  16.466  19.211  0.00  0.00    +0.000 A 
ATOM     16  C   UNL     1       2.289  15.940  20.269  0.00  0.00    +0.000 A 
ATOM     17 CL   UNL     1       1.919  17.034  21.558  0.00  0.00    +0.000 Cl
ATOM     18  C   UNL     1       1.867  14.589  20.271  0.00  0.00    +0.000 A 
ATOM     19  C   UNL     1       1.086  14.027  21.432  0.00  0.00    +0.000 C 
ENDBRANCH  10  12
ENDBRANCH   5   8
ENDBRANCH   3   4
BRANCH   1  20
ATOM     20  C   UNL     1       1.653   6.508  20.654  0.00  0.00    +0.000 C 
BRANCH  20  22
ATOM     21  N   UNL     1       3.753   6.187  19.454  0.00  0.00    +0.000 N 
ATOM     22  C   UNL     1       2.419   5.814  19.551  0.00  0.00    +0.000 C 
ATOM     23  O   UNL     1       1.841   5.059  18.771  0.00  0.00    +0.000 OA
ATOM     24  H   UNL     1       3.927   7.146  19.746  0.00  0.00    +0.000 HD
BRANCH  21  28
ATOM     25  C   UNL     1       5.995   4.894  16.129  0.00  0.00    +0.000 A 
ATOM     26  C   UNL     1       5.300   6.107  16.099  0.00  0.00    +0.000 A 
ATOM     27  C   UNL     1       4.573   6.539  17.209  0.00  0.00    +0.000 A 
ATOM     28  C   UNL     1       4.512   5.738  18.350  0.00  0.00    +0.000 A 
ATOM     29  C   UNL     1       5.208   4.516  18.400  0.00  0.00    +0.000 A 
ATOM     30  C   UNL     1       5.955   4.107  17.284  0.00  0.00    +0.000 A 
BRANCH  25  32
ATOM     31  C   UNL     1       5.943   4.068  13.894  0.00  0.00    +0.000 C 
ATOM     32  O   UNL     1       6.685   4.607  14.982  0.00  0.00    +0.000 OA
ENDBRANCH  25  32
BRANCH  29  33
ATOM     33  O   UNL     1       5.183   3.848  19.599  0.00  0.00    +0.000 OA
ATOM     34  C   UNL     1       4.438   2.638  19.637  0.00  0.00    +0.000 C 
ENDBRANCH  29  33
ENDBRANCH  21  28
ENDBRANCH  20  22
ENDBRANCH   1  20
TORSDOF 8
ENDMDL
