MODEL 1
REMARK VINA RESULT:      -9.3      0.000      0.000
REMARK  Name = 
REMARK  9 active torsions:
REMARK  status: ('A' for Active; 'I' for Inactive)
REMARK    1  A    between atoms: C_1  and  C_2
REMARK    2  A    between atoms: C_5  and  C_6
REMARK    3  A    between atoms: N_8  and  C_9
REMARK    4  A    between atoms: N_12  and  C_13
REMARK    5  A    between atoms: C_16  and  C_17
REMARK    6  A    between atoms: N_19  and  C_20
REMARK    7  A    between atoms: C_20  and  C_21
REMARK    8  A    between atoms: C_24  and  C_25
REMARK    9  A    between atoms: C_35  and  C_36
REMARK                            x       y       z     vdW  Elec       q    Type
REMARK                         _______ _______ _______ _____ _____    ______ ____
ROOT
ATOM      1  C   UNL     1       0.976   9.744  19.467  0.00  0.00    +0.000 A 
ATOM      2  C   UNL     1       1.043   8.924  20.598  0.00  0.00    +0.000 A 
ATOM      3  C   UNL     1       1.664   7.678  20.509  0.00  0.00    +0.000 A 
ATOM      4  C   UNL     1       2.246   7.243  19.315  0.00  0.00    +0.000 A 
ATOM      5  C   UNL     1       2.209   8.088  18.193  0.00  0.00    +0.000 A 
ATOM      6  C   UNL     1       1.572   9.330  18.270  0.00  0.00    +0.000 A 
ENDROOT
BRANCH   1  10
ATOM      7  C   UNL     1      -1.124  12.590  20.010  0.00  0.00    +0.000 A 
ATOM      8  C   UNL     1      -0.358  12.878  18.861  0.00  0.00    +0.000 A 
ATOM      9  N   UNL     1       0.601  11.978  18.638  0.00  0.00    +0.000 NA
ATOM     10  N   UNL     1       0.353  11.011  19.553  0.00  0.00    +0.000 N 
ATOM     11  C   UNL     1      -0.598  11.409  20.467  0.00  0.00    +0.000 A 
BRANCH   7  14
ATOM     12  C   UNL     1      -3.509  12.930  20.315  0.00  0.00    +0.000 C 
ATOM     13  O   UNL     1      -3.821  12.042  19.535  0.00  0.00    +0.000 OA
ATOM     14  N   UNL     1      -2.185  13.263  20.599  0.00  0.00    +0.000 N 
ATOM     15  H   UNL     1      -1.964  13.922  21.332  0.00  0.00    +0.000 HD
BRANCH  12  20
ATOM     16  C   UNL     1      -7.915  15.766  22.914  0.00  0.00    +0.000 C 
ATOM     17  C   UNL     1      -6.756  15.087  22.246  0.00  0.00    +0.000 A 
ATOM     18  C   UNL     1      -6.467  15.285  20.897  0.00  0.00    +0.000 A 
ATOM     19  C   UNL     1      -5.401  14.602  20.287  0.00  0.00    +0.000 A 
ATOM     20  C   UNL     1      -4.586  13.714  21.019  0.00  0.00    +0.000 A 
ATOM     21  C   UNL     1      -4.856  13.531  22.394  0.00  0.00    +0.000 A 
ATOM     22  C   UNL     1      -4.088  12.640  23.338  0.00  0.00    +0.000 C 
ATOM     23  C   UNL     1      -5.946  14.216  22.979  0.00  0.00    +0.000 A 
ENDBRANCH  12  20
ENDBRANCH   7  14
ENDBRANCH   1  10
BRANCH   4  24
ATOM     24  C   UNL     1       2.868   5.873  19.236  0.00  0.00    +0.000 C 
ATOM     25  O   UNL     1       2.185   4.895  19.032  0.00  0.00    +0.000 OA
ATOM     26  N   UNL     1       4.243   5.798  19.415  0.00  0.00    +0.000 N 
ATOM     27  H   UNL     1       4.785   6.575  19.763  0.00  0.00    +0.000 HD
BRANCH  26  28
ATOM     28  C   UNL     1       4.926   4.521  19.346  0.00  0.00    +0.000 C 
BRANCH  28  29
ATOM     29  C   UNL     1       5.876   4.537  18.203  0.00  0.00    +0.000 A 
ATOM     30  N   UNL     1       7.189   4.641  18.265  0.00  0.00    +0.000 NA
ATOM     31  N   UNL     1       7.681   4.559  16.987  0.00  0.00    +0.000 NA
ATOM     32  C   UNL     1       6.672   4.427  16.148  0.00  0.00    +0.000 A 
ATOM     33  N   UNL     1       5.510   4.408  16.887  0.00  0.00    +0.000 N 
ATOM     34  H   UNL     1       4.577   4.295  16.526  0.00  0.00    +0.000 HD
BRANCH  32  35
ATOM     35  C   UNL     1       6.754   4.338  14.692  0.00  0.00    +0.000 A 
ATOM     36  C   UNL     1       7.691   5.124  14.001  0.00  0.00    +0.000 A 
ATOM     37  C   UNL     1       7.737   5.117  12.604  0.00  0.00    +0.000 A 
ATOM     38  C   UNL     1       6.850   4.323  11.884  0.00  0.00    +0.000 A 
ATOM     39  C   UNL     1       5.929   3.521  12.558  0.00  0.00    +0.000 A 
ATOM     40  C   UNL     1       5.886   3.524  13.955  0.00  0.00    +0.000 A 
ENDBRANCH  32  35
ENDBRANCH  28  29
ENDBRANCH  26  28
ENDBRANCH   4  24
TORSDOF 7
ENDMDL
MODEL 2
REMARK VINA RESULT:      -9.2      1.427      1.495
REMARK  Name = 
REMARK  9 active torsions:
REMARK  status: ('A' for Active; 'I' for Inactive)
REMARK    1  A    between atoms: C_1  and  C_2
REMARK    2  A    between atoms: C_5  and  C_6
REMARK    3  A    between atoms: N_8  and  C_9
REMARK    4  A    between atoms: N_12  and  C_13
REMARK    5  A    between atoms: C_16  and  C_17
REMARK    6  A    between atoms: N_19  and  C_20
REMARK    7  A    between atoms: C_20  and  C_21
REMARK    8  A    between atoms: C_24  and  C_25
REMARK    9  A    between atoms: C_35  and  C_36
REMARK                            x       y       z     vdW  Elec       q    Type
REMARK                         _______ _______ _______ _____ _____    ______ ____
ROOT
ATOM      1  C   UNL     1       0.990   9.696  19.177  0.00  0.00    +0.000 A 
ATOM      2  C   UNL     1       1.118   8.861  20.292  0.00  0.00    +0.000 A 
ATOM      3  C   UNL     1       1.798   7.649  20.170  0.00  0.00    +0.000 A 
ATOM      4  C   UNL     1       2.377   7.262  18.959  0.00  0.00    +0.000 A 
ATOM      5  C   UNL     1       2.278   8.123  17.852  0.00  0.00    +0.000 A 
ATOM      6  C   UNL     1       1.582   9.331  17.962  0.00  0.00    +0.000 A 
ENDROOT
BRANCH   1  10
ATOM      7  C   UNL     1      -0.806  12.628  20.165  0.00  0.00    +0.000 A 
ATOM      8  C   UNL     1      -1.095  12.430  18.798  0.00  0.00    +0.000 A 
ATOM      9  N   UNL     1      -0.351  11.470  18.246  0.00  0.00    +0.000 NA
ATOM     10  N   UNL     1       0.308  10.929  19.297  0.00  0.00    +0.000 N 
ATOM     11  C   UNL     1       0.148  11.682  20.439  0.00  0.00    +0.000 A 
BRANCH   7  14
ATOM     12  C   UNL     1      -2.685  13.546  21.400  0.00  0.00    +0.000 C 
ATOM     13  O   UNL     1      -3.502  12.804  20.874  0.00  0.00    +0.000 OA
ATOM     14  N   UNL     1      -1.325  13.519  21.094  0.00  0.00    +0.000 N 
ATOM     15  H   UNL     1      -0.665  14.066  21.628  0.00  0.00    +0.000 HD
BRANCH  12  20
ATOM     16  C   UNL     1      -4.741  17.456  25.233  0.00  0.00    +0.000 C 
ATOM     17  C   UNL     1      -4.161  16.469  24.262  0.00  0.00    +0.000 A 
ATOM     18  C   UNL     1      -3.601  16.873  23.052  0.00  0.00    +0.000 A 
ATOM     19  C   UNL     1      -3.105  15.922  22.143  0.00  0.00    +0.000 A 
ATOM     20  C   UNL     1      -3.143  14.543  22.433  0.00  0.00    +0.000 A 
ATOM     21  C   UNL     1      -3.683  14.130  23.672  0.00  0.00    +0.000 A 
ATOM     22  C   UNL     1      -3.792  12.707  24.162  0.00  0.00    +0.000 C 
ATOM     23  C   UNL     1      -4.192  15.104  24.560  0.00  0.00    +0.000 A 
ENDBRANCH  12  20
ENDBRANCH   7  14
ENDBRANCH   1  10
BRANCH   4  24
ATOM     24  C   UNL     1       3.063   5.926  18.844  0.00  0.00    +0.000 C 
ATOM     25  O   UNL     1       2.570   5.031  18.196  0.00  0.00    +0.000 OA
ATOM     26  N   UNL     1       4.268   5.781  19.519  0.00  0.00    +0.000 N 
ATOM     27  H   UNL     1       4.589   6.452  20.201  0.00  0.00    +0.000 HD
BRANCH  26  28
ATOM     28  C   UNL     1       5.001   4.532  19.457  0.00  0.00    +0.000 C 
BRANCH  28  29
ATOM     29  C   UNL     1       5.933   4.570  18.299  0.00  0.00    +0.000 A 
ATOM     30  N   UNL     1       7.242   4.721  18.341  0.00  0.00    +0.000 NA
ATOM     31  N   UNL     1       7.718   4.644  17.056  0.00  0.00    +0.000 NA
ATOM     32  C   UNL     1       6.702   4.468  16.234  0.00  0.00    +0.000 A 
ATOM     33  N   UNL     1       5.553   4.415  16.990  0.00  0.00    +0.000 N 
ATOM     34  H   UNL     1       4.619   4.265  16.645  0.00  0.00    +0.000 HD
BRANCH  32  35
ATOM     35  C   UNL     1       6.765   4.367  14.778  0.00  0.00    +0.000 A 
ATOM     36  C   UNL     1       7.709   5.130  14.071  0.00  0.00    +0.000 A 
ATOM     37  C   UNL     1       7.738   5.113  12.673  0.00  0.00    +0.000 A 
ATOM     38  C   UNL     1       6.828   4.331  11.970  0.00  0.00    +0.000 A 
ATOM     39  C   UNL     1       5.901   3.551  12.659  0.00  0.00    +0.000 A 
ATOM     40  C   UNL     1       5.874   3.565  14.056  0.00  0.00    +0.000 A 
ENDBRANCH  32  35
ENDBRANCH  28  29
ENDBRANCH  26  28
ENDBRANCH   4  24
TORSDOF 7
ENDMDL
MODEL 3
REMARK VINA RESULT:      -9.0      1.116      1.369
REMARK  Name = 
REMARK  9 active torsions:
REMARK  status: ('A' for Active; 'I' for Inactive)
REMARK    1  A    between atoms: C_1  and  C_2
REMARK    2  A    between atoms: C_5  and  C_6
REMARK    3  A    between atoms: N_8  and  C_9
REMARK    4  A    between atoms: N_12  and  C_13
REMARK    5  A    between atoms: C_16  and  C_17
REMARK    6  A    between atoms: N_19  and  C_20
REMARK    7  A    between atoms: C_20  and  C_21
REMARK    8  A    between atoms: C_24  and  C_25
REMARK    9  A    between atoms: C_35  and  C_36
REMARK                            x       y       z     vdW  Elec       q    Type
REMARK                         _______ _______ _______ _____ _____    ______ ____
ROOT
ATOM      1  C   UNL     1       0.945   9.428  19.770  0.00  0.00    +0.000 A 
ATOM      2  C   UNL     1       1.650   8.981  18.647  0.00  0.00    +0.000 A 
ATOM      3  C   UNL     1       2.312   7.754  18.695  0.00  0.00    +0.000 A 
ATOM      4  C   UNL     1       2.265   6.948  19.835  0.00  0.00    +0.000 A 
ATOM      5  C   UNL     1       1.523   7.386  20.946  0.00  0.00    +0.000 A 
ATOM      6  C   UNL     1       0.872   8.623  20.912  0.00  0.00    +0.000 A 
ENDROOT
BRANCH   1  10
ATOM      7  C   UNL     1      -1.277  12.220  20.030  0.00  0.00    +0.000 A 
ATOM      8  C   UNL     1      -0.539  12.412  18.842  0.00  0.00    +0.000 A 
ATOM      9  N   UNL     1       0.457  11.536  18.705  0.00  0.00    +0.000 NA
ATOM     10  N   UNL     1       0.266  10.668  19.725  0.00  0.00    +0.000 N 
ATOM     11  C   UNL     1      -0.691  11.122  20.606  0.00  0.00    +0.000 A 
BRANCH   7  14
ATOM     12  C   UNL     1      -2.199  13.884  21.540  0.00  0.00    +0.000 C 
ATOM     13  O   UNL     1      -1.109  14.194  22.000  0.00  0.00    +0.000 OA
ATOM     14  N   UNL     1      -2.361  12.907  20.558  0.00  0.00    +0.000 N 
ATOM     15  H   UNL     1      -3.259  12.757  20.121  0.00  0.00    +0.000 HD
BRANCH  12  20
ATOM     16  C   UNL     1      -7.175  16.471  23.200  0.00  0.00    +0.000 C 
ATOM     17  C   UNL     1      -5.869  15.848  22.800  0.00  0.00    +0.000 A 
ATOM     18  C   UNL     1      -5.059  16.409  21.815  0.00  0.00    +0.000 A 
ATOM     19  C   UNL     1      -3.862  15.780  21.431  0.00  0.00    +0.000 A 
ATOM     20  C   UNL     1      -3.440  14.579  22.037  0.00  0.00    +0.000 A 
ATOM     21  C   UNL     1      -4.243  14.021  23.057  0.00  0.00    +0.000 A 
ATOM     22  C   UNL     1      -3.948  12.757  23.827  0.00  0.00    +0.000 C 
ATOM     23  C   UNL     1      -5.451  14.663  23.412  0.00  0.00    +0.000 A 
ENDBRANCH  12  20
ENDBRANCH   7  14
ENDBRANCH   1  10
BRANCH   4  24
ATOM     24  C   UNL     1       3.030   5.651  19.874  0.00  0.00    +0.000 C 
ATOM     25  O   UNL     1       2.638   4.722  20.544  0.00  0.00    +0.000 OA
ATOM     26  N   UNL     1       4.192   5.587  19.116  0.00  0.00    +0.000 N 
ATOM     27  H   UNL     1       4.615   6.407  18.707  0.00  0.00    +0.000 HD
BRANCH  26  28
ATOM     28  C   UNL     1       4.986   4.374  19.088  0.00  0.00    +0.000 C 
BRANCH  28  29
ATOM     29  C   UNL     1       5.952   4.450  17.961  0.00  0.00    +0.000 A 
ATOM     30  N   UNL     1       7.260   4.592  18.047  0.00  0.00    +0.000 NA
ATOM     31  N   UNL     1       7.773   4.560  16.774  0.00  0.00    +0.000 NA
ATOM     32  C   UNL     1       6.782   4.420  15.917  0.00  0.00    +0.000 A 
ATOM     33  N   UNL     1       5.610   4.346  16.636  0.00  0.00    +0.000 N 
ATOM     34  H   UNL     1       4.686   4.215  16.257  0.00  0.00    +0.000 HD
BRANCH  32  35
ATOM     35  C   UNL     1       6.888   4.373  14.461  0.00  0.00    +0.000 A 
ATOM     36  C   UNL     1       7.758   5.257  13.800  0.00  0.00    +0.000 A 
ATOM     37  C   UNL     1       7.820   5.287  12.404  0.00  0.00    +0.000 A 
ATOM     38  C   UNL     1       7.017   4.433  11.655  0.00  0.00    +0.000 A 
ATOM     39  C   UNL     1       6.166   3.536  12.297  0.00  0.00    +0.000 A 
ATOM     40  C   UNL     1       6.106   3.502  13.693  0.00  0.00    +0.000 A 
ENDBRANCH  32  35
ENDBRANCH  28  29
ENDBRANCH  26  28
ENDBRANCH   4  24
TORSDOF 7
ENDMDL
MODEL 4
REMARK VINA RESULT:      -8.9      2.450     13.199
REMARK  Name = 
REMARK  9 active torsions:
REMARK  status: ('A' for Active; 'I' for Inactive)
REMARK    1  A    between atoms: C_1  and  C_2
REMARK    2  A    between atoms: C_5  and  C_6
REMARK    3  A    between atoms: N_8  and  C_9
REMARK    4  A    between atoms: N_12  and  C_13
REMARK    5  A    between atoms: C_16  and  C_17
REMARK    6  A    between atoms: N_19  and  C_20
REMARK    7  A    between atoms: C_20  and  C_21
REMARK    8  A    between atoms: C_24  and  C_25
REMARK    9  A    between atoms: C_35  and  C_36
REMARK                            x       y       z     vdW  Elec       q    Type
REMARK                         _______ _______ _______ _____ _____    ______ ____
ROOT
ATOM      1  C   UNL     1       0.599   8.920  21.182  0.00  0.00    +0.000 A 
ATOM      2  C   UNL     1       0.211   9.971  20.345  0.00  0.00    +0.000 A 
ATOM      3  C   UNL     1      -0.576  11.003  20.856  0.00  0.00    +0.000 A 
ATOM      4  C   UNL     1      -0.964  11.022  22.198  0.00  0.00    +0.000 A 
ATOM      5  C   UNL     1      -0.539   9.982  23.043  0.00  0.00    +0.000 A 
ATOM      6  C   UNL     1       0.235   8.935  22.533  0.00  0.00    +0.000 A 
ENDROOT
BRANCH   1  10
ATOM      7  C   UNL     1       2.576   6.629  19.272  0.00  0.00    +0.000 A 
ATOM      8  C   UNL     1       2.000   5.877  20.318  0.00  0.00    +0.000 A 
ATOM      9  N   UNL     1       1.376   6.637  21.219  0.00  0.00    +0.000 NA
ATOM     10  N   UNL     1       1.403   7.875  20.671  0.00  0.00    +0.000 N 
ATOM     11  C   UNL     1       2.222   7.922  19.564  0.00  0.00    +0.000 A 
BRANCH   7  14
ATOM     12  C   UNL     1       4.558   5.627  18.290  0.00  0.00    +0.000 C 
ATOM     13  O   UNL     1       5.079   5.393  19.372  0.00  0.00    +0.000 OA
ATOM     14  N   UNL     1       3.315   6.244  18.162  0.00  0.00    +0.000 N 
ATOM     15  H   UNL     1       2.866   6.318  17.261  0.00  0.00    +0.000 HD
BRANCH  12  20
ATOM     16  C   UNL     1       7.103   4.282  13.198  0.00  0.00    +0.000 C 
ATOM     17  C   UNL     1       6.468   4.578  14.526  0.00  0.00    +0.000 A 
ATOM     18  C   UNL     1       5.316   3.920  14.952  0.00  0.00    +0.000 A 
ATOM     19  C   UNL     1       4.719   4.249  16.181  0.00  0.00    +0.000 A 
ATOM     20  C   UNL     1       5.272   5.236  17.022  0.00  0.00    +0.000 A 
ATOM     21  C   UNL     1       6.457   5.885  16.609  0.00  0.00    +0.000 A 
ATOM     22  C   UNL     1       7.200   6.949  17.379  0.00  0.00    +0.000 C 
ATOM     23  C   UNL     1       7.027   5.549  15.360  0.00  0.00    +0.000 A 
ENDBRANCH  12  20
ENDBRANCH   7  14
ENDBRANCH   1  10
BRANCH   4  24
ATOM     24  C   UNL     1      -1.855  12.124  22.710  0.00  0.00    +0.000 C 
ATOM     25  O   UNL     1      -1.635  13.279  22.424  0.00  0.00    +0.000 OA
ATOM     26  N   UNL     1      -2.918  11.745  23.519  0.00  0.00    +0.000 N 
ATOM     27  H   UNL     1      -2.997  10.816  23.906  0.00  0.00    +0.000 HD
BRANCH  26  28
ATOM     28  C   UNL     1      -3.830  12.739  24.049  0.00  0.00    +0.000 C 
BRANCH  28  29
ATOM     29  C   UNL     1      -4.991  12.874  23.130  0.00  0.00    +0.000 A 
ATOM     30  N   UNL     1      -6.262  12.689  23.427  0.00  0.00    +0.000 NA
ATOM     31  N   UNL     1      -7.003  12.969  22.306  0.00  0.00    +0.000 NA
ATOM     32  C   UNL     1      -6.187  13.303  21.326  0.00  0.00    +0.000 A 
ATOM     33  N   UNL     1      -4.901  13.254  21.815  0.00  0.00    +0.000 N 
ATOM     34  H   UNL     1      -4.061  13.479  21.306  0.00  0.00    +0.000 HD
BRANCH  32  35
ATOM     35  C   UNL     1      -6.562  13.643  19.956  0.00  0.00    +0.000 A 
ATOM     36  C   UNL     1      -6.425  14.968  19.509  0.00  0.00    +0.000 A 
ATOM     37  C   UNL     1      -6.851  15.337  18.229  0.00  0.00    +0.000 A 
ATOM     38  C   UNL     1      -7.414  14.387  17.384  0.00  0.00    +0.000 A 
ATOM     39  C   UNL     1      -7.536  13.064  17.807  0.00  0.00    +0.000 A 
ATOM     40  C   UNL     1      -7.107  12.693  19.084  0.00  0.00    +0.000 A 
ENDBRANCH  32  35
ENDBRANCH  28  29
ENDBRANCH  26  28
ENDBRANCH   4  24
TORSDOF 7
ENDMDL
MODEL 5
REMARK VINA RESULT:      -8.8      1.370      1.792
REMARK  Name = 
REMARK  9 active torsions:
REMARK  status: ('A' for Active; 'I' for Inactive)
REMARK    1  A    between atoms: C_1  and  C_2
REMARK    2  A    between atoms: C_5  and  C_6
REMARK    3  A    between atoms: N_8  and  C_9
REMARK    4  A    between atoms: N_12  and  C_13
REMARK    5  A    between atoms: C_16  and  C_17
REMARK    6  A    between atoms: N_19  and  C_20
REMARK    7  A    between atoms: C_20  and  C_21
REMARK    8  A    between atoms: C_24  and  C_25
REMARK    9  A    between atoms: C_35  and  C_36
REMARK                            x       y       z     vdW  Elec       q    Type
REMARK                         _______ _______ _______ _____ _____    ______ ____
ROOT
ATOM      1  C   UNL     1       0.798   9.293  20.374  0.00  0.00    +0.000 A 
ATOM      2  C   UNL     1       1.200   9.274  19.035  0.00  0.00    +0.000 A 
ATOM      3  C   UNL     1       1.966   8.209  18.561  0.00  0.00    +0.000 A 
ATOM      4  C   UNL     1       2.320   7.145  19.394  0.00  0.00    +0.000 A 
ATOM      5  C   UNL     1       1.881   7.151  20.729  0.00  0.00    +0.000 A 
ATOM      6  C   UNL     1       1.127   8.224  21.215  0.00  0.00    +0.000 A 
ENDROOT
BRANCH   1  10
ATOM      7  C   UNL     1      -1.468  12.003  20.943  0.00  0.00    +0.000 A 
ATOM      8  C   UNL     1      -0.374  12.214  21.810  0.00  0.00    +0.000 A 
ATOM      9  N   UNL     1       0.471  11.183  21.836  0.00  0.00    +0.000 NA
ATOM     10  N   UNL     1       0.014  10.367  20.858  0.00  0.00    +0.000 N 
ATOM     11  C   UNL     1      -1.216  10.774  20.390  0.00  0.00    +0.000 A 
BRANCH   7  14
ATOM     12  C   UNL     1      -3.678  12.857  21.475  0.00  0.00    +0.000 C 
ATOM     13  O   UNL     1      -3.767  12.220  22.515  0.00  0.00    +0.000 OA
ATOM     14  N   UNL     1      -2.565  12.797  20.638  0.00  0.00    +0.000 N 
ATOM     15  H   UNL     1      -2.477  13.421  19.849  0.00  0.00    +0.000 HD
BRANCH  12  20
ATOM     16  C   UNL     1      -7.917  16.409  19.569  0.00  0.00    +0.000 C 
ATOM     17  C   UNL     1      -6.840  15.514  20.111  0.00  0.00    +0.000 A 
ATOM     18  C   UNL     1      -5.630  16.023  20.580  0.00  0.00    +0.000 A 
ATOM     19  C   UNL     1      -4.623  15.157  21.041  0.00  0.00    +0.000 A 
ATOM     20  C   UNL     1      -4.810  13.760  21.058  0.00  0.00    +0.000 A 
ATOM     21  C   UNL     1      -6.046  13.241  20.612  0.00  0.00    +0.000 A 
ATOM     22  C   UNL     1      -6.433  11.783  20.572  0.00  0.00    +0.000 C 
ATOM     23  C   UNL     1      -7.035  14.131  20.135  0.00  0.00    +0.000 A 
ENDBRANCH  12  20
ENDBRANCH   7  14
ENDBRANCH   1  10
BRANCH   4  24
ATOM     24  C   UNL     1       3.190   6.033  18.867  0.00  0.00    +0.000 C 
ATOM     25  O   UNL     1       2.875   5.421  17.871  0.00  0.00    +0.000 OA
ATOM     26  N   UNL     1       4.347   5.751  19.582  0.00  0.00    +0.000 N 
ATOM     27  H   UNL     1       4.518   6.128  20.502  0.00  0.00    +0.000 HD
BRANCH  26  28
ATOM     28  C   UNL     1       5.247   4.703  19.142  0.00  0.00    +0.000 C 
BRANCH  28  29
ATOM     29  C   UNL     1       5.845   5.090  17.838  0.00  0.00    +0.000 A 
ATOM     30  N   UNL     1       6.571   6.161  17.586  0.00  0.00    +0.000 NA
ATOM     31  N   UNL     1       6.967   6.105  16.273  0.00  0.00    +0.000 NA
ATOM     32  C   UNL     1       6.468   5.016  15.723  0.00  0.00    +0.000 A 
ATOM     33  N   UNL     1       5.751   4.346  16.688  0.00  0.00    +0.000 N 
ATOM     34  H   UNL     1       5.272   3.468  16.573  0.00  0.00    +0.000 HD
BRANCH  32  35
ATOM     35  C   UNL     1       6.621   4.592  14.333  0.00  0.00    +0.000 A 
ATOM     36  C   UNL     1       7.643   5.150  13.546  0.00  0.00    +0.000 A 
ATOM     37  C   UNL     1       7.762   4.821  12.193  0.00  0.00    +0.000 A 
ATOM     38  C   UNL     1       6.864   3.931  11.613  0.00  0.00    +0.000 A 
ATOM     39  C   UNL     1       5.859   3.354  12.387  0.00  0.00    +0.000 A 
ATOM     40  C   UNL     1       5.742   3.678  13.741  0.00  0.00    +0.000 A 
ENDBRANCH  32  35
ENDBRANCH  28  29
ENDBRANCH  26  28
ENDBRANCH   4  24
TORSDOF 7
ENDMDL
MODEL 6
REMARK VINA RESULT:      -8.5      1.243      1.977
REMARK  Name = 
REMARK  9 active torsions:
REMARK  status: ('A' for Active; 'I' for Inactive)
REMARK    1  A    between atoms: C_1  and  C_2
REMARK    2  A    between atoms: C_5  and  C_6
REMARK    3  A    between atoms: N_8  and  C_9
REMARK    4  A    between atoms: N_12  and  C_13
REMARK    5  A    between atoms: C_16  and  C_17
REMARK    6  A    between atoms: N_19  and  C_20
REMARK    7  A    between atoms: C_20  and  C_21
REMARK    8  A    between atoms: C_24  and  C_25
REMARK    9  A    between atoms: C_35  and  C_36
REMARK                            x       y       z     vdW  Elec       q    Type
REMARK                         _______ _______ _______ _____ _____    ______ ____
ROOT
ATOM      1  C   UNL     1       1.099   9.536  20.243  0.00  0.00    +0.000 A 
ATOM      2  C   UNL     1       1.702   9.275  19.008  0.00  0.00    +0.000 A 
ATOM      3  C   UNL     1       2.224   8.007  18.752  0.00  0.00    +0.000 A 
ATOM      4  C   UNL     1       2.134   6.982  19.696  0.00  0.00    +0.000 A 
ATOM      5  C   UNL     1       1.493   7.240  20.921  0.00  0.00    +0.000 A 
ATOM      6  C   UNL     1       0.984   8.513  21.192  0.00  0.00    +0.000 A 
ENDROOT
BRANCH   1  10
ATOM      7  C   UNL     1      -0.753  12.592  20.425  0.00  0.00    +0.000 A 
ATOM      8  C   UNL     1       0.577  12.915  20.767  0.00  0.00    +0.000 A 
ATOM      9  N   UNL     1       1.350  11.839  20.915  0.00  0.00    +0.000 NA
ATOM     10  N   UNL     1       0.561  10.818  20.506  0.00  0.00    +0.000 N 
ATOM     11  C   UNL     1      -0.742  11.224  20.324  0.00  0.00    +0.000 A 
BRANCH   7  14
ATOM     12  C   UNL     1      -2.733  13.744  21.231  0.00  0.00    +0.000 C 
ATOM     13  O   UNL     1      -2.583  13.371  22.386  0.00  0.00    +0.000 OA
ATOM     14  N   UNL     1      -1.864  13.392  20.199  0.00  0.00    +0.000 N 
ATOM     15  H   UNL     1      -1.954  13.809  19.284  0.00  0.00    +0.000 HD
BRANCH  12  20
ATOM     16  C   UNL     1      -7.347  17.187  20.198  0.00  0.00    +0.000 C 
ATOM     17  C   UNL     1      -6.170  16.280  20.412  0.00  0.00    +0.000 A 
ATOM     18  C   UNL     1      -6.328  14.917  20.652  0.00  0.00    +0.000 A 
ATOM     19  C   UNL     1      -5.209  14.100  20.892  0.00  0.00    +0.000 A 
ATOM     20  C   UNL     1      -3.902  14.628  20.882  0.00  0.00    +0.000 A 
ATOM     21  C   UNL     1      -3.734  16.004  20.610  0.00  0.00    +0.000 A 
ATOM     22  C   UNL     1      -2.419  16.741  20.541  0.00  0.00    +0.000 C 
ATOM     23  C   UNL     1      -4.876  16.807  20.391  0.00  0.00    +0.000 A 
ENDBRANCH  12  20
ENDBRANCH   7  14
ENDBRANCH   1  10
BRANCH   4  24
ATOM     24  C   UNL     1       2.751   5.638  19.410  0.00  0.00    +0.000 C 
ATOM     25  O   UNL     1       2.064   4.704  19.063  0.00  0.00    +0.000 OA
ATOM     26  N   UNL     1       4.126   5.533  19.571  0.00  0.00    +0.000 N 
ATOM     27  H   UNL     1       4.672   6.247  20.030  0.00  0.00    +0.000 HD
BRANCH  26  28
ATOM     28  C   UNL     1       4.804   4.279  19.309  0.00  0.00    +0.000 C 
BRANCH  28  29
ATOM     29  C   UNL     1       5.758   4.465  18.184  0.00  0.00    +0.000 A 
ATOM     30  N   UNL     1       7.040   4.761  18.273  0.00  0.00    +0.000 NA
ATOM     31  N   UNL     1       7.558   4.788  17.002  0.00  0.00    +0.000 NA
ATOM     32  C   UNL     1       6.592   4.530  16.142  0.00  0.00    +0.000 A 
ATOM     33  N   UNL     1       5.435   4.319  16.859  0.00  0.00    +0.000 N 
ATOM     34  H   UNL     1       4.534   4.079  16.478  0.00  0.00    +0.000 HD
BRANCH  32  35
ATOM     35  C   UNL     1       6.708   4.493  14.687  0.00  0.00    +0.000 A 
ATOM     36  C   UNL     1       5.911   3.601  13.950  0.00  0.00    +0.000 A 
ATOM     37  C   UNL     1       6.058   3.490  12.564  0.00  0.00    +0.000 A 
ATOM     38  C   UNL     1       7.000   4.270  11.901  0.00  0.00    +0.000 A 
ATOM     39  C   UNL     1       7.782   5.174  12.617  0.00  0.00    +0.000 A 
ATOM     40  C   UNL     1       7.632   5.290  14.002  0.00  0.00    +0.000 A 
ENDBRANCH  32  35
ENDBRANCH  28  29
ENDBRANCH  26  28
ENDBRANCH   4  24
TORSDOF 7
ENDMDL
MODEL 7
REMARK VINA RESULT:      -8.5      2.234      3.374
REMARK  Name = 
REMARK  9 active torsions:
REMARK  status: ('A' for Active; 'I' for Inactive)
REMARK    1  A    between atoms: C_1  and  C_2
REMARK    2  A    between atoms: C_5  and  C_6
REMARK    3  A    between atoms: N_8  and  C_9
REMARK    4  A    between atoms: N_12  and  C_13
REMARK    5  A    between atoms: C_16  and  C_17
REMARK    6  A    between atoms: N_19  and  C_20
REMARK    7  A    between atoms: C_20  and  C_21
REMARK    8  A    between atoms: C_24  and  C_25
REMARK    9  A    between atoms: C_35  and  C_36
REMARK                            x       y       z     vdW  Elec       q    Type
REMARK                         _______ _______ _______ _____ _____    ______ ____
ROOT
ATOM      1  C   UNL     1       1.772   8.496  19.269  0.00  0.00    +0.000 A 
ATOM      2  C   UNL     1       2.516   8.657  18.095  0.00  0.00    +0.000 A 
ATOM      3  C   UNL     1       3.411   7.660  17.705  0.00  0.00    +0.000 A 
ATOM      4  C   UNL     1       3.561   6.488  18.452  0.00  0.00    +0.000 A 
ATOM      5  C   UNL     1       2.782   6.316  19.610  0.00  0.00    +0.000 A 
ATOM      6  C   UNL     1       1.896   7.319  20.016  0.00  0.00    +0.000 A 
ENDROOT
BRANCH   1  10
ATOM      7  C   UNL     1      -0.816  10.941  19.619  0.00  0.00    +0.000 A 
ATOM      8  C   UNL     1       0.236  11.356  20.463  0.00  0.00    +0.000 A 
ATOM      9  N   UNL     1       1.203  10.444  20.571  0.00  0.00    +0.000 NA
ATOM     10  N   UNL     1       0.858   9.500  19.665  0.00  0.00    +0.000 N 
ATOM     11  C   UNL     1      -0.410   9.711  19.169  0.00  0.00    +0.000 A 
BRANCH   7  14
ATOM     12  C   UNL     1      -3.027  10.868  18.617  0.00  0.00    +0.000 C 
ATOM     13  O   UNL     1      -2.953   9.681  18.335  0.00  0.00    +0.000 OA
ATOM     14  N   UNL     1      -2.001  11.565  19.253  0.00  0.00    +0.000 N 
ATOM     15  H   UNL     1      -2.140  12.513  19.572  0.00  0.00    +0.000 HD
BRANCH  12  20
ATOM     16  C   UNL     1      -7.708  14.129  17.326  0.00  0.00    +0.000 C 
ATOM     17  C   UNL     1      -6.541  13.253  17.678  0.00  0.00    +0.000 A 
ATOM     18  C   UNL     1      -6.123  13.083  18.997  0.00  0.00    +0.000 A 
ATOM     19  C   UNL     1      -5.000  12.291  19.292  0.00  0.00    +0.000 A 
ATOM     20  C   UNL     1      -4.277  11.636  18.275  0.00  0.00    +0.000 A 
ATOM     21  C   UNL     1      -4.714  11.781  16.939  0.00  0.00    +0.000 A 
ATOM     22  C   UNL     1      -4.082  11.147  15.725  0.00  0.00    +0.000 C 
ATOM     23  C   UNL     1      -5.835  12.598  16.666  0.00  0.00    +0.000 A 
ENDBRANCH  12  20
ENDBRANCH   7  14
ENDBRANCH   1  10
BRANCH   4  24
ATOM     24  C   UNL     1       4.570   5.451  18.033  0.00  0.00    +0.000 C 
ATOM     25  O   UNL     1       4.247   4.293  17.899  0.00  0.00    +0.000 OA
ATOM     26  N   UNL     1       5.869   5.893  17.820  0.00  0.00    +0.000 N 
ATOM     27  H   UNL     1       6.181   6.810  18.104  0.00  0.00    +0.000 HD
BRANCH  26  28
ATOM     28  C   UNL     1       6.903   4.965  17.406  0.00  0.00    +0.000 C 
BRANCH  28  29
ATOM     29  C   UNL     1       6.912   4.875  15.922  0.00  0.00    +0.000 A 
ATOM     30  N   UNL     1       7.656   5.578  15.091  0.00  0.00    +0.000 NA
ATOM     31  N   UNL     1       7.390   5.143  13.816  0.00  0.00    +0.000 NA
ATOM     32  C   UNL     1       6.476   4.196  13.869  0.00  0.00    +0.000 A 
ATOM     33  N   UNL     1       6.150   3.999  15.192  0.00  0.00    +0.000 N 
ATOM     34  H   UNL     1       5.495   3.322  15.550  0.00  0.00    +0.000 HD
BRANCH  32  35
ATOM     35  C   UNL     1       5.887   3.487  12.736  0.00  0.00    +0.000 A 
ATOM     36  C   UNL     1       4.611   3.855  12.275  0.00  0.00    +0.000 A 
ATOM     37  C   UNL     1       3.992   3.142  11.244  0.00  0.00    +0.000 A 
ATOM     38  C   UNL     1       4.641   2.059  10.661  0.00  0.00    +0.000 A 
ATOM     39  C   UNL     1       5.916   1.697  11.093  0.00  0.00    +0.000 A 
ATOM     40  C   UNL     1       6.538   2.411  12.121  0.00  0.00    +0.000 A 
ENDBRANCH  32  35
ENDBRANCH  28  29
ENDBRANCH  26  28
ENDBRANCH   4  24
TORSDOF 7
ENDMDL
MODEL 8
REMARK VINA RESULT:      -8.5      2.188      2.907
REMARK  Name = 
REMARK  9 active torsions:
REMARK  status: ('A' for Active; 'I' for Inactive)
REMARK    1  A    between atoms: C_1  and  C_2
REMARK    2  A    between atoms: C_5  and  C_6
REMARK    3  A    between atoms: N_8  and  C_9
REMARK    4  A    between atoms: N_12  and  C_13
REMARK    5  A    between atoms: C_16  and  C_17
REMARK    6  A    between atoms: N_19  and  C_20
REMARK    7  A    between atoms: C_20  and  C_21
REMARK    8  A    between atoms: C_24  and  C_25
REMARK    9  A    between atoms: C_35  and  C_36
REMARK                            x       y       z     vdW  Elec       q    Type
REMARK                         _______ _______ _______ _____ _____    ______ ____
ROOT
ATOM      1  C   UNL     1       1.431   8.880  19.049  0.00  0.00    +0.000 A 
ATOM      2  C   UNL     1       1.629   7.889  20.016  0.00  0.00    +0.000 A 
ATOM      3  C   UNL     1       2.561   6.876  19.783  0.00  0.00    +0.000 A 
ATOM      4  C   UNL     1       3.320   6.847  18.611  0.00  0.00    +0.000 A 
ATOM      5  C   UNL     1       3.144   7.868  17.660  0.00  0.00    +0.000 A 
ATOM      6  C   UNL     1       2.199   8.875  17.879  0.00  0.00    +0.000 A 
ENDROOT
BRANCH   1  10
ATOM      7  C   UNL     1      -0.760  11.404  20.326  0.00  0.00    +0.000 A 
ATOM      8  C   UNL     1      -1.356  10.927  19.139  0.00  0.00    +0.000 A 
ATOM      9  N   UNL     1      -0.561  10.103  18.456  0.00  0.00    +0.000 NA
ATOM     10  N   UNL     1       0.493   9.912  19.283  0.00  0.00    +0.000 N 
ATOM     11  C   UNL     1       0.458  10.775  20.356  0.00  0.00    +0.000 A 
BRANCH   7  14
ATOM     12  C   UNL     1      -1.179  13.659  21.123  0.00  0.00    +0.000 C 
ATOM     13  O   UNL     1      -0.729  14.189  20.117  0.00  0.00    +0.000 OA
ATOM     14  N   UNL     1      -1.224  12.277  21.300  0.00  0.00    +0.000 N 
ATOM     15  H   UNL     1      -1.704  11.873  22.090  0.00  0.00    +0.000 HD
BRANCH  12  20
ATOM     16  C   UNL     1      -3.057  17.223  25.364  0.00  0.00    +0.000 C 
ATOM     17  C   UNL     1      -2.590  16.265  24.307  0.00  0.00    +0.000 A 
ATOM     18  C   UNL     1      -1.425  15.515  24.459  0.00  0.00    +0.000 A 
ATOM     19  C   UNL     1      -0.990  14.657  23.434  0.00  0.00    +0.000 A 
ATOM     20  C   UNL     1      -1.720  14.518  22.236  0.00  0.00    +0.000 A 
ATOM     21  C   UNL     1      -2.918  15.253  22.089  0.00  0.00    +0.000 A 
ATOM     22  C   UNL     1      -3.836  15.222  20.893  0.00  0.00    +0.000 C 
ATOM     23  C   UNL     1      -3.324  16.123  23.127  0.00  0.00    +0.000 A 
ENDBRANCH  12  20
ENDBRANCH   7  14
ENDBRANCH   1  10
BRANCH   4  24
ATOM     24  C   UNL     1       4.284   5.715  18.366  0.00  0.00    +0.000 C 
ATOM     25  O   UNL     1       3.969   4.572  18.608  0.00  0.00    +0.000 OA
ATOM     26  N   UNL     1       5.533   6.054  17.861  0.00  0.00    +0.000 N 
ATOM     27  H   UNL     1       5.861   7.007  17.831  0.00  0.00    +0.000 HD
BRANCH  26  28
ATOM     28  C   UNL     1       6.519   5.027  17.587  0.00  0.00    +0.000 C 
BRANCH  28  29
ATOM     29  C   UNL     1       6.693   4.900  16.116  0.00  0.00    +0.000 A 
ATOM     30  N   UNL     1       7.590   5.513  15.369  0.00  0.00    +0.000 NA
ATOM     31  N   UNL     1       7.438   5.072  14.078  0.00  0.00    +0.000 NA
ATOM     32  C   UNL     1       6.441   4.210  14.036  0.00  0.00    +0.000 A 
ATOM     33  N   UNL     1       5.945   4.076  15.313  0.00  0.00    +0.000 N 
ATOM     34  H   UNL     1       5.194   3.470  15.600  0.00  0.00    +0.000 HD
BRANCH  32  35
ATOM     35  C   UNL     1       5.927   3.528  12.851  0.00  0.00    +0.000 A 
ATOM     36  C   UNL     1       4.660   3.869  12.349  0.00  0.00    +0.000 A 
ATOM     37  C   UNL     1       4.111   3.177  11.265  0.00  0.00    +0.000 A 
ATOM     38  C   UNL     1       4.825   2.143  10.669  0.00  0.00    +0.000 A 
ATOM     39  C   UNL     1       6.093   1.809  11.142  0.00  0.00    +0.000 A 
ATOM     40  C   UNL     1       6.644   2.502  12.223  0.00  0.00    +0.000 A 
ENDBRANCH  32  35
ENDBRANCH  28  29
ENDBRANCH  26  28
ENDBRANCH   4  24
TORSDOF 7
ENDMDL
MODEL 9
REMARK VINA RESULT:      -8.4      1.168      1.716
REMARK  Name = 
REMARK  9 active torsions:
REMARK  status: ('A' for Active; 'I' for Inactive)
REMARK    1  A    between atoms: C_1  and  C_2
REMARK    2  A    between atoms: C_5  and  C_6
REMARK    3  A    between atoms: N_8  and  C_9
REMARK    4  A    between atoms: N_12  and  C_13
REMARK    5  A    between atoms: C_16  and  C_17
REMARK    6  A    between atoms: N_19  and  C_20
REMARK    7  A    between atoms: C_20  and  C_21
REMARK    8  A    between atoms: C_24  and  C_25
REMARK    9  A    between atoms: C_35  and  C_36
REMARK                            x       y       z     vdW  Elec       q    Type
REMARK                         _______ _______ _______ _____ _____    ______ ____
ROOT
ATOM      1  C   UNL     1       0.815   9.970  19.788  0.00  0.00    +0.000 A 
ATOM      2  C   UNL     1       1.452   9.445  18.659  0.00  0.00    +0.000 A 
ATOM      3  C   UNL     1       1.988   8.157  18.708  0.00  0.00    +0.000 A 
ATOM      4  C   UNL     1       1.877   7.370  19.857  0.00  0.00    +0.000 A 
ATOM      5  C   UNL     1       1.202   7.890  20.975  0.00  0.00    +0.000 A 
ATOM      6  C   UNL     1       0.679   9.186  20.939  0.00  0.00    +0.000 A 
ENDROOT
BRANCH   1  10
ATOM      7  C   UNL     1      -1.206  12.920  19.653  0.00  0.00    +0.000 A 
ATOM      8  C   UNL     1       0.030  13.260  19.062  0.00  0.00    +0.000 A 
ATOM      9  N   UNL     1       0.951  12.306  19.202  0.00  0.00    +0.000 NA
ATOM     10  N   UNL     1       0.263  11.272  19.742  0.00  0.00    +0.000 N 
ATOM     11  C   UNL     1      -1.000  11.653  20.136  0.00  0.00    +0.000 A 
BRANCH   7  14
ATOM     12  C   UNL     1      -2.769  14.278  20.922  0.00  0.00    +0.000 C 
ATOM     13  O   UNL     1      -2.078  14.280  21.931  0.00  0.00    +0.000 OA
ATOM     14  N   UNL     1      -2.401  13.619  19.750  0.00  0.00    +0.000 N 
ATOM     15  H   UNL     1      -2.939  13.732  18.903  0.00  0.00    +0.000 HD
BRANCH  12  20
ATOM     16  C   UNL     1      -7.888  17.086  20.583  0.00  0.00    +0.000 C 
ATOM     17  C   UNL     1      -6.559  16.400  20.711  0.00  0.00    +0.000 A 
ATOM     18  C   UNL     1      -5.380  16.994  20.264  0.00  0.00    +0.000 A 
ATOM     19  C   UNL     1      -4.156  16.310  20.358  0.00  0.00    +0.000 A 
ATOM     20  C   UNL     1      -4.081  15.018  20.918  0.00  0.00    +0.000 A 
ATOM     21  C   UNL     1      -5.268  14.423  21.400  0.00  0.00    +0.000 A 
ATOM     22  C   UNL     1      -5.381  13.063  22.043  0.00  0.00    +0.000 C 
ATOM     23  C   UNL     1      -6.489  15.125  21.277  0.00  0.00    +0.000 A 
ENDBRANCH  12  20
ENDBRANCH   7  14
ENDBRANCH   1  10
BRANCH   4  24
ATOM     24  C   UNL     1       2.508   6.002  19.897  0.00  0.00    +0.000 C 
ATOM     25  O   UNL     1       2.329   5.266  20.841  0.00  0.00    +0.000 OA
ATOM     26  N   UNL     1       3.297   5.645  18.811  0.00  0.00    +0.000 N 
ATOM     27  H   UNL     1       3.595   6.315  18.117  0.00  0.00    +0.000 HD
BRANCH  26  28
ATOM     28  C   UNL     1       3.935   4.345  18.761  0.00  0.00    +0.000 C 
BRANCH  28  29
ATOM     29  C   UNL     1       5.069   4.394  17.802  0.00  0.00    +0.000 A 
ATOM     30  N   UNL     1       6.354   4.425  18.096  0.00  0.00    +0.000 NA
ATOM     31  N   UNL     1       7.058   4.411  16.917  0.00  0.00    +0.000 NA
ATOM     32  C   UNL     1       6.206   4.391  15.911  0.00  0.00    +0.000 A 
ATOM     33  N   UNL     1       4.933   4.378  16.437  0.00  0.00    +0.000 N 
ATOM     34  H   UNL     1       4.073   4.340  15.914  0.00  0.00    +0.000 HD
BRANCH  32  35
ATOM     35  C   UNL     1       6.536   4.403  14.488  0.00  0.00    +0.000 A 
ATOM     36  C   UNL     1       5.822   3.578  13.603  0.00  0.00    +0.000 A 
ATOM     37  C   UNL     1       6.170   3.511  12.251  0.00  0.00    +0.000 A 
ATOM     38  C   UNL     1       7.232   4.269  11.769  0.00  0.00    +0.000 A 
ATOM     39  C   UNL     1       7.936   5.108  12.632  0.00  0.00    +0.000 A 
ATOM     40  C   UNL     1       7.586   5.179  13.983  0.00  0.00    +0.000 A 
ENDBRANCH  32  35
ENDBRANCH  28  29
ENDBRANCH  26  28
ENDBRANCH   4  24
TORSDOF 7
ENDMDL
