MODEL 1
REMARK VINA RESULT:      -8.3      0.000      0.000
REMARK  Name = 
REMARK  10 active torsions:
REMARK  status: ('A' for Active; 'I' for Inactive)
REMARK    1  A    between atoms: C_1  and  O_2
REMARK    2  A    between atoms: O_2  and  C_3
REMARK    3  A    between atoms: C_6  and  C_7
REMARK    4  A    between atoms: C_7  and  C_8
REMARK    5  A    between atoms: C_8  and  O_10
REMARK    6  A    between atoms: O_10  and  C_11
REMARK    7  A    between atoms: C_11  and  C_12
REMARK    8  A    between atoms: C_12  and  C_13
REMARK    9  A    between atoms: C_13  and  N_14
REMARK   10  A    between atoms: C_17  and  C_18
REMARK                            x       y       z     vdW  Elec       q    Type
REMARK                         _______ _______ _______ _____ _____    ______ ____
ROOT
ATOM      1  O   UNL     1       7.575   6.746  16.958  0.00  0.00    +0.000 OA
ENDROOT
BRANCH   1   2
ATOM      2  C   UNL     1       6.842   5.665  17.348  0.00  0.00    +0.000 C 
ATOM      3  O   UNL     1       7.319   4.870  18.150  0.00  0.00    +0.000 OA
BRANCH   2   4
ATOM      4  C   UNL     1       5.446   5.378  16.775  0.00  0.00    +0.000 C 
ATOM      5  C   UNL     1       5.330   3.865  16.483  0.00  0.00    +0.000 C 
ATOM      6  C   UNL     1       6.236   3.684  15.275  0.00  0.00    +0.000 C 
ATOM      7  C   UNL     1       6.013   4.945  14.426  0.00  0.00    +0.000 C 
ATOM      8  C   UNL     1       5.283   5.943  15.350  0.00  0.00    +0.000 C 
BRANCH   4  12
ATOM      9  C   UNL     1       2.440   6.680  19.697  0.00  0.00    +0.000 A 
ATOM     10  C   UNL     1       2.733   7.490  18.583  0.00  0.00    +0.000 A 
ATOM     11  C   UNL     1       3.654   7.066  17.622  0.00  0.00    +0.000 A 
ATOM     12  C   UNL     1       4.324   5.827  17.747  0.00  0.00    +0.000 A 
ATOM     13  C   UNL     1       3.969   5.005  18.845  0.00  0.00    +0.000 A 
ATOM     14  C   UNL     1       3.045   5.430  19.799  0.00  0.00    +0.000 A 
BRANCH   9  16
ATOM     15  C   UNL     1       1.085   8.353  20.826  0.00  0.00    +0.000 C 
ATOM     16  O   UNL     1       1.607   7.085  20.691  0.00  0.00    +0.000 OA
ENDBRANCH   9  16
ENDBRANCH   4  12
ENDBRANCH   2   4
ENDBRANCH   1   2
BRANCH   1  17
ATOM     17  C   UNL     1       7.353   8.036  17.424  0.00  0.00    +0.000 C 
BRANCH  17  18
ATOM     18  C   UNL     1       8.515   8.505  18.305  0.00  0.00    +0.000 C 
BRANCH  18  19
ATOM     19  C   UNL     1       8.630  10.043  18.325  0.00  0.00    +0.000 C 
BRANCH  19  20
ATOM     20  N   UNL     1       9.800  10.544  19.092  0.00  0.00    +0.000 NA
ATOM     21  C   UNL     1      10.819  11.140  18.191  0.00  0.00    +0.000 C 
ATOM     22  C   UNL     1      11.987  11.753  18.983  0.00  0.00    +0.000 C 
ATOM     23  C   UNL     1      11.481  12.840  19.958  0.00  0.00    +0.000 C 
ATOM     24  C   UNL     1      10.504  12.111  20.907  0.00  0.00    +0.000 C 
ATOM     25  C   UNL     1       9.330  11.518  20.106  0.00  0.00    +0.000 C 
BRANCH  23  26
ATOM     26  C   UNL     1      10.880  14.091  19.269  0.00  0.00    +0.000 A 
ATOM     27  C   UNL     1       9.931  14.911  19.931  0.00  0.00    +0.000 A 
ATOM     28  C   UNL     1       9.404  16.049  19.316  0.00  0.00    +0.000 A 
ATOM     29  C   UNL     1       9.814  16.408  18.035  0.00  0.00    +0.000 A 
ATOM     30  C   UNL     1      10.758  15.631  17.367  0.00  0.00    +0.000 A 
ATOM     31  C   UNL     1      11.292  14.490  17.976  0.00  0.00    +0.000 A 
ENDBRANCH  23  26
ENDBRANCH  19  20
ENDBRANCH  18  19
ENDBRANCH  17  18
ENDBRANCH   1  17
TORSDOF 9
ENDMDL
MODEL 2
REMARK VINA RESULT:      -8.3      4.483      8.911
REMARK  Name = 
REMARK  10 active torsions:
REMARK  status: ('A' for Active; 'I' for Inactive)
REMARK    1  A    between atoms: C_1  and  O_2
REMARK    2  A    between atoms: O_2  and  C_3
REMARK    3  A    between atoms: C_6  and  C_7
REMARK    4  A    between atoms: C_7  and  C_8
REMARK    5  A    between atoms: C_8  and  O_10
REMARK    6  A    between atoms: O_10  and  C_11
REMARK    7  A    between atoms: C_11  and  C_12
REMARK    8  A    between atoms: C_12  and  C_13
REMARK    9  A    between atoms: C_13  and  N_14
REMARK   10  A    between atoms: C_17  and  C_18
REMARK                            x       y       z     vdW  Elec       q    Type
REMARK                         _______ _______ _______ _____ _____    ______ ____
ROOT
ATOM      1  O   UNL     1       1.629   6.285  20.177  0.00  0.00    +0.000 OA
ENDROOT
BRANCH   1   2
ATOM      2  C   UNL     1       2.281   5.099  20.331  0.00  0.00    +0.000 C 
ATOM      3  O   UNL     1       2.458   4.648  21.458  0.00  0.00    +0.000 OA
BRANCH   2   4
ATOM      4  C   UNL     1       2.853   4.322  19.135  0.00  0.00    +0.000 C 
ATOM      5  C   UNL     1       1.749   4.177  18.063  0.00  0.00    +0.000 C 
ATOM      6  C   UNL     1       0.796   3.174  18.693  0.00  0.00    +0.000 C 
ATOM      7  C   UNL     1       1.707   2.169  19.416  0.00  0.00    +0.000 C 
ATOM      8  C   UNL     1       3.097   2.839  19.476  0.00  0.00    +0.000 C 
BRANCH   4  12
ATOM      9  C   UNL     1       6.286   6.530  17.520  0.00  0.00    +0.000 A 
ATOM     10  C   UNL     1       6.467   5.638  18.595  0.00  0.00    +0.000 A 
ATOM     11  C   UNL     1       5.392   4.895  19.088  0.00  0.00    +0.000 A 
ATOM     12  C   UNL     1       4.097   5.028  18.536  0.00  0.00    +0.000 A 
ATOM     13  C   UNL     1       3.952   5.887  17.418  0.00  0.00    +0.000 A 
ATOM     14  C   UNL     1       5.031   6.622  16.926  0.00  0.00    +0.000 A 
BRANCH   9  16
ATOM     15  C   UNL     1       7.822   8.403  17.730  0.00  0.00    +0.000 C 
ATOM     16  O   UNL     1       7.286   7.324  17.058  0.00  0.00    +0.000 OA
ENDBRANCH   9  16
ENDBRANCH   4  12
ENDBRANCH   2   4
ENDBRANCH   1   2
BRANCH   1  17
ATOM     17  C   UNL     1       1.909   7.421  20.926  0.00  0.00    +0.000 C 
BRANCH  17  18
ATOM     18  C   UNL     1       0.663   8.299  21.073  0.00  0.00    +0.000 C 
BRANCH  18  19
ATOM     19  C   UNL     1       0.829   9.338  22.201  0.00  0.00    +0.000 C 
BRANCH  19  20
ATOM     20  N   UNL     1       0.582  10.737  21.765  0.00  0.00    +0.000 NA
ATOM     21  C   UNL     1       1.048  10.955  20.372  0.00  0.00    +0.000 C 
ATOM     22  C   UNL     1       0.705  12.371  19.874  0.00  0.00    +0.000 C 
ATOM     23  C   UNL     1      -0.819  12.623  19.941  0.00  0.00    +0.000 C 
ATOM     24  C   UNL     1      -1.192  12.465  21.431  0.00  0.00    +0.000 C 
ATOM     25  C   UNL     1      -0.862  11.040  21.913  0.00  0.00    +0.000 C 
BRANCH  23  26
ATOM     26  C   UNL     1      -1.658  11.743  18.981  0.00  0.00    +0.000 A 
ATOM     27  C   UNL     1      -1.050  10.751  18.171  0.00  0.00    +0.000 A 
ATOM     28  C   UNL     1      -1.810   9.945  17.320  0.00  0.00    +0.000 A 
ATOM     29  C   UNL     1      -3.193  10.096  17.261  0.00  0.00    +0.000 A 
ATOM     30  C   UNL     1      -3.820  11.050  18.059  0.00  0.00    +0.000 A 
ATOM     31  C   UNL     1      -3.067  11.860  18.915  0.00  0.00    +0.000 A 
ENDBRANCH  23  26
ENDBRANCH  19  20
ENDBRANCH  18  19
ENDBRANCH  17  18
ENDBRANCH   1  17
TORSDOF 9
ENDMDL
MODEL 3
REMARK VINA RESULT:      -8.1      4.017      8.759
REMARK  Name = 
REMARK  10 active torsions:
REMARK  status: ('A' for Active; 'I' for Inactive)
REMARK    1  A    between atoms: C_1  and  O_2
REMARK    2  A    between atoms: O_2  and  C_3
REMARK    3  A    between atoms: C_6  and  C_7
REMARK    4  A    between atoms: C_7  and  C_8
REMARK    5  A    between atoms: C_8  and  O_10
REMARK    6  A    between atoms: O_10  and  C_11
REMARK    7  A    between atoms: C_11  and  C_12
REMARK    8  A    between atoms: C_12  and  C_13
REMARK    9  A    between atoms: C_13  and  N_14
REMARK   10  A    between atoms: C_17  and  C_18
REMARK                            x       y       z     vdW  Elec       q    Type
REMARK                         _______ _______ _______ _____ _____    ______ ____
ROOT
ATOM      1  O   UNL     1       2.681   5.323  20.233  0.00  0.00    +0.000 OA
ENDROOT
BRANCH   1   2
ATOM      2  C   UNL     1       2.800   4.864  18.955  0.00  0.00    +0.000 C 
ATOM      3  O   UNL     1       1.867   5.007  18.172  0.00  0.00    +0.000 OA
BRANCH   2   4
ATOM      4  C   UNL     1       4.056   4.123  18.470  0.00  0.00    +0.000 C 
ATOM      5  C   UNL     1       3.674   3.236  17.263  0.00  0.00    +0.000 C 
ATOM      6  C   UNL     1       2.853   2.128  17.904  0.00  0.00    +0.000 C 
ATOM      7  C   UNL     1       3.551   1.848  19.243  0.00  0.00    +0.000 C 
ATOM      8  C   UNL     1       4.505   3.039  19.471  0.00  0.00    +0.000 C 
BRANCH   4  12
ATOM      9  C   UNL     1       7.137   7.086  17.475  0.00  0.00    +0.000 A 
ATOM     10  C   UNL     1       7.425   6.053  18.388  0.00  0.00    +0.000 A 
ATOM     11  C   UNL     1       6.469   5.077  18.678  0.00  0.00    +0.000 A 
ATOM     12  C   UNL     1       5.188   5.107  18.079  0.00  0.00    +0.000 A 
ATOM     13  C   UNL     1       4.942   6.123  17.121  0.00  0.00    +0.000 A 
ATOM     14  C   UNL     1       5.903   7.091  16.831  0.00  0.00    +0.000 A 
BRANCH   9  16
ATOM     15  C   UNL     1       8.208   9.199  18.022  0.00  0.00    +0.000 C 
ATOM     16  O   UNL     1       8.010   8.095  17.220  0.00  0.00    +0.000 OA
ENDBRANCH   9  16
ENDBRANCH   4  12
ENDBRANCH   2   4
ENDBRANCH   1   2
BRANCH   1  17
ATOM     17  C   UNL     1       1.606   6.078  20.683  0.00  0.00    +0.000 C 
BRANCH  17  18
ATOM     18  C   UNL     1       1.822   7.566  20.388  0.00  0.00    +0.000 C 
BRANCH  18  19
ATOM     19  C   UNL     1       0.948   8.458  21.294  0.00  0.00    +0.000 C 
BRANCH  19  20
ATOM     20  N   UNL     1       0.937   9.888  20.891  0.00  0.00    +0.000 NA
ATOM     21  C   UNL     1       1.128  10.035  19.426  0.00  0.00    +0.000 C 
ATOM     22  C   UNL     1       1.017  11.505  18.984  0.00  0.00    +0.000 C 
ATOM     23  C   UNL     1      -0.358  12.094  19.373  0.00  0.00    +0.000 C 
ATOM     24  C   UNL     1      -0.427  11.982  20.912  0.00  0.00    +0.000 C 
ATOM     25  C   UNL     1      -0.333  10.506  21.342  0.00  0.00    +0.000 C 
BRANCH  23  26
ATOM     26  C   UNL     1      -1.562  11.454  18.638  0.00  0.00    +0.000 A 
ATOM     27  C   UNL     1      -1.382  10.394  17.714  0.00  0.00    +0.000 A 
ATOM     28  C   UNL     1      -2.470   9.805  17.066  0.00  0.00    +0.000 A 
ATOM     29  C   UNL     1      -3.765  10.247  17.327  0.00  0.00    +0.000 A 
ATOM     30  C   UNL     1      -3.975  11.275  18.242  0.00  0.00    +0.000 A 
ATOM     31  C   UNL     1      -2.890  11.869  18.898  0.00  0.00    +0.000 A 
ENDBRANCH  23  26
ENDBRANCH  19  20
ENDBRANCH  18  19
ENDBRANCH  17  18
ENDBRANCH   1  17
TORSDOF 9
ENDMDL
MODEL 4
REMARK VINA RESULT:      -8.1      1.340      1.985
REMARK  Name = 
REMARK  10 active torsions:
REMARK  status: ('A' for Active; 'I' for Inactive)
REMARK    1  A    between atoms: C_1  and  O_2
REMARK    2  A    between atoms: O_2  and  C_3
REMARK    3  A    between atoms: C_6  and  C_7
REMARK    4  A    between atoms: C_7  and  C_8
REMARK    5  A    between atoms: C_8  and  O_10
REMARK    6  A    between atoms: O_10  and  C_11
REMARK    7  A    between atoms: C_11  and  C_12
REMARK    8  A    between atoms: C_12  and  C_13
REMARK    9  A    between atoms: C_13  and  N_14
REMARK   10  A    between atoms: C_17  and  C_18
REMARK                            x       y       z     vdW  Elec       q    Type
REMARK                         _______ _______ _______ _____ _____    ______ ____
ROOT
ATOM      1  O   UNL     1       7.658   6.571  16.907  0.00  0.00    +0.000 OA
ENDROOT
BRANCH   1   2
ATOM      2  C   UNL     1       7.177   5.332  17.211  0.00  0.00    +0.000 C 
ATOM      3  O   UNL     1       7.900   4.529  17.790  0.00  0.00    +0.000 OA
BRANCH   2   4
ATOM      4  C   UNL     1       5.764   4.885  16.805  0.00  0.00    +0.000 C 
ATOM      5  C   UNL     1       5.872   3.580  15.984  0.00  0.00    +0.000 C 
ATOM      6  C   UNL     1       6.468   4.056  14.669  0.00  0.00    +0.000 C 
ATOM      7  C   UNL     1       5.804   5.417  14.408  0.00  0.00    +0.000 C 
ATOM      8  C   UNL     1       5.148   5.821  15.746  0.00  0.00    +0.000 C 
BRANCH   4  12
ATOM      9  C   UNL     1       2.996   4.333  20.166  0.00  0.00    +0.000 A 
ATOM     10  C   UNL     1       3.684   3.226  19.634  0.00  0.00    +0.000 A 
ATOM     11  C   UNL     1       4.603   3.395  18.595  0.00  0.00    +0.000 A 
ATOM     12  C   UNL     1       4.853   4.672  18.041  0.00  0.00    +0.000 A 
ATOM     13  C   UNL     1       4.192   5.777  18.632  0.00  0.00    +0.000 A 
ATOM     14  C   UNL     1       3.280   5.603  19.673  0.00  0.00    +0.000 A 
BRANCH   9  16
ATOM     15  C   UNL     1       1.603   3.010  21.657  0.00  0.00    +0.000 C 
ATOM     16  O   UNL     1       2.042   4.204  21.125  0.00  0.00    +0.000 OA
ENDBRANCH   9  16
ENDBRANCH   4  12
ENDBRANCH   2   4
ENDBRANCH   1   2
BRANCH   1  17
ATOM     17  C   UNL     1       7.259   7.732  17.556  0.00  0.00    +0.000 C 
BRANCH  17  18
ATOM     18  C   UNL     1       8.439   8.384  18.284  0.00  0.00    +0.000 C 
BRANCH  18  19
ATOM     19  C   UNL     1       8.454   9.914  18.086  0.00  0.00    +0.000 C 
BRANCH  19  20
ATOM     20  N   UNL     1       9.631  10.582  18.700  0.00  0.00    +0.000 NA
ATOM     21  C   UNL     1      10.058  11.758  17.903  0.00  0.00    +0.000 C 
ATOM     22  C   UNL     1      11.211  12.518  18.583  0.00  0.00    +0.000 C 
ATOM     23  C   UNL     1      10.800  12.990  19.996  0.00  0.00    +0.000 C 
ATOM     24  C   UNL     1      10.464  11.700  20.775  0.00  0.00    +0.000 C 
ATOM     25  C   UNL     1       9.298  10.958  20.095  0.00  0.00    +0.000 C 
BRANCH  23  26
ATOM     26  C   UNL     1       9.673  14.053  20.015  0.00  0.00    +0.000 A 
ATOM     27  C   UNL     1       8.800  14.180  21.125  0.00  0.00    +0.000 A 
ATOM     28  C   UNL     1       7.796  15.151  21.149  0.00  0.00    +0.000 A 
ATOM     29  C   UNL     1       7.641  16.026  20.077  0.00  0.00    +0.000 A 
ATOM     30  C   UNL     1       8.495  15.938  18.981  0.00  0.00    +0.000 A 
ATOM     31  C   UNL     1       9.505  14.969  18.950  0.00  0.00    +0.000 A 
ENDBRANCH  23  26
ENDBRANCH  19  20
ENDBRANCH  18  19
ENDBRANCH  17  18
ENDBRANCH   1  17
TORSDOF 9
ENDMDL
MODEL 5
REMARK VINA RESULT:      -8.0      1.757      2.119
REMARK  Name = 
REMARK  10 active torsions:
REMARK  status: ('A' for Active; 'I' for Inactive)
REMARK    1  A    between atoms: C_1  and  O_2
REMARK    2  A    between atoms: O_2  and  C_3
REMARK    3  A    between atoms: C_6  and  C_7
REMARK    4  A    between atoms: C_7  and  C_8
REMARK    5  A    between atoms: C_8  and  O_10
REMARK    6  A    between atoms: O_10  and  C_11
REMARK    7  A    between atoms: C_11  and  C_12
REMARK    8  A    between atoms: C_12  and  C_13
REMARK    9  A    between atoms: C_13  and  N_14
REMARK   10  A    between atoms: C_17  and  C_18
REMARK                            x       y       z     vdW  Elec       q    Type
REMARK                         _______ _______ _______ _____ _____    ______ ____
ROOT
ATOM      1  O   UNL     1       6.707   6.706  18.001  0.00  0.00    +0.000 OA
ENDROOT
BRANCH   1   2
ATOM      2  C   UNL     1       6.708   5.364  17.760  0.00  0.00    +0.000 C 
ATOM      3  O   UNL     1       7.655   4.683  18.139  0.00  0.00    +0.000 OA
BRANCH   2   4
ATOM      4  C   UNL     1       5.578   4.676  16.979  0.00  0.00    +0.000 C 
ATOM      5  C   UNL     1       6.203   3.706  15.952  0.00  0.00    +0.000 C 
ATOM      6  C   UNL     1       6.804   4.646  14.920  0.00  0.00    +0.000 C 
ATOM      7  C   UNL     1       5.794   5.799  14.807  0.00  0.00    +0.000 C 
ATOM      8  C   UNL     1       4.860   5.653  16.027  0.00  0.00    +0.000 C 
BRANCH   4  12
ATOM      9  C   UNL     1       2.684   2.700  19.623  0.00  0.00    +0.000 A 
ATOM     10  C   UNL     1       2.981   2.142  18.365  0.00  0.00    +0.000 A 
ATOM     11  C   UNL     1       3.934   2.735  17.534  0.00  0.00    +0.000 A 
ATOM     12  C   UNL     1       4.612   3.914  17.922  0.00  0.00    +0.000 A 
ATOM     13  C   UNL     1       4.337   4.424  19.216  0.00  0.00    +0.000 A 
ATOM     14  C   UNL     1       3.389   3.824  20.044  0.00  0.00    +0.000 A 
BRANCH   9  16
ATOM     15  C   UNL     1       1.231   2.808  21.569  0.00  0.00    +0.000 C 
ATOM     16  O   UNL     1       1.713   2.199  20.430  0.00  0.00    +0.000 OA
ENDBRANCH   9  16
ENDBRANCH   4  12
ENDBRANCH   2   4
ENDBRANCH   1   2
BRANCH   1  17
ATOM     17  C   UNL     1       7.578   7.598  17.390  0.00  0.00    +0.000 C 
BRANCH  17  18
ATOM     18  C   UNL     1       8.506   8.248  18.421  0.00  0.00    +0.000 C 
BRANCH  18  19
ATOM     19  C   UNL     1       8.580   9.778  18.235  0.00  0.00    +0.000 C 
BRANCH  19  20
ATOM     20  N   UNL     1       9.728  10.409  18.935  0.00  0.00    +0.000 NA
ATOM     21  C   UNL     1      10.544  11.226  18.002  0.00  0.00    +0.000 C 
ATOM     22  C   UNL     1      11.676  11.966  18.736  0.00  0.00    +0.000 C 
ATOM     23  C   UNL     1      11.108  12.883  19.844  0.00  0.00    +0.000 C 
ATOM     24  C   UNL     1      10.360  11.937  20.809  0.00  0.00    +0.000 C 
ATOM     25  C   UNL     1       9.218  11.217  20.068  0.00  0.00    +0.000 C 
BRANCH  23  26
ATOM     26  C   UNL     1      10.251  14.063  19.322  0.00  0.00    +0.000 A 
ATOM     27  C   UNL     1       9.180  14.590  20.088  0.00  0.00    +0.000 A 
ATOM     28  C   UNL     1       8.421  15.667  19.626  0.00  0.00    +0.000 A 
ATOM     29  C   UNL     1       8.712  16.255  18.397  0.00  0.00    +0.000 A 
ATOM     30  C   UNL     1       9.769  15.771  17.631  0.00  0.00    +0.000 A 
ATOM     31  C   UNL     1      10.536  14.693  18.088  0.00  0.00    +0.000 A 
ENDBRANCH  23  26
ENDBRANCH  19  20
ENDBRANCH  18  19
ENDBRANCH  17  18
ENDBRANCH   1  17
TORSDOF 9
ENDMDL
MODEL 6
REMARK VINA RESULT:      -8.0      1.632      2.356
REMARK  Name = 
REMARK  10 active torsions:
REMARK  status: ('A' for Active; 'I' for Inactive)
REMARK    1  A    between atoms: C_1  and  O_2
REMARK    2  A    between atoms: O_2  and  C_3
REMARK    3  A    between atoms: C_6  and  C_7
REMARK    4  A    between atoms: C_7  and  C_8
REMARK    5  A    between atoms: C_8  and  O_10
REMARK    6  A    between atoms: O_10  and  C_11
REMARK    7  A    between atoms: C_11  and  C_12
REMARK    8  A    between atoms: C_12  and  C_13
REMARK    9  A    between atoms: C_13  and  N_14
REMARK   10  A    between atoms: C_17  and  C_18
REMARK                            x       y       z     vdW  Elec       q    Type
REMARK                         _______ _______ _______ _____ _____    ______ ____
ROOT
ATOM      1  O   UNL     1       7.551   6.588  16.772  0.00  0.00    +0.000 OA
ENDROOT
BRANCH   1   2
ATOM      2  C   UNL     1       7.142   5.305  16.983  0.00  0.00    +0.000 C 
ATOM      3  O   UNL     1       7.915   4.499  17.489  0.00  0.00    +0.000 OA
BRANCH   2   4
ATOM      4  C   UNL     1       5.749   4.815  16.557  0.00  0.00    +0.000 C 
ATOM      5  C   UNL     1       5.910   3.525  15.721  0.00  0.00    +0.000 C 
ATOM      6  C   UNL     1       6.501   4.038  14.418  0.00  0.00    +0.000 C 
ATOM      7  C   UNL     1       5.793   5.379  14.168  0.00  0.00    +0.000 C 
ATOM      8  C   UNL     1       5.111   5.743  15.504  0.00  0.00    +0.000 C 
BRANCH   4  12
ATOM      9  C   UNL     1       2.993   4.215  19.920  0.00  0.00    +0.000 A 
ATOM     10  C   UNL     1       3.310   3.138  19.072  0.00  0.00    +0.000 A 
ATOM     11  C   UNL     1       4.221   3.304  18.026  0.00  0.00    +0.000 A 
ATOM     12  C   UNL     1       4.835   4.554  17.782  0.00  0.00    +0.000 A 
ATOM     13  C   UNL     1       4.544   5.607  18.685  0.00  0.00    +0.000 A 
ATOM     14  C   UNL     1       3.638   5.434  19.731  0.00  0.00    +0.000 A 
BRANCH   9  16
ATOM     15  C   UNL     1       1.738   2.964  21.584  0.00  0.00    +0.000 C 
ATOM     16  O   UNL     1       2.059   4.118  20.902  0.00  0.00    +0.000 OA
ENDBRANCH   9  16
ENDBRANCH   4  12
ENDBRANCH   2   4
ENDBRANCH   1   2
BRANCH   1  17
ATOM     17  C   UNL     1       7.198   7.653  17.590  0.00  0.00    +0.000 C 
BRANCH  17  18
ATOM     18  C   UNL     1       8.287   8.730  17.585  0.00  0.00    +0.000 C 
BRANCH  18  19
ATOM     19  C   UNL     1       8.669   9.159  19.017  0.00  0.00    +0.000 C 
BRANCH  19  20
ATOM     20  N   UNL     1       9.679  10.247  19.064  0.00  0.00    +0.000 NA
ATOM     21  C   UNL     1       9.561  11.142  17.885  0.00  0.00    +0.000 C 
ATOM     22  C   UNL     1      10.535  12.331  17.974  0.00  0.00    +0.000 C 
ATOM     23  C   UNL     1      10.281  13.154  19.257  0.00  0.00    +0.000 C 
ATOM     24  C   UNL     1      10.515  12.170  20.424  0.00  0.00    +0.000 C 
ATOM     25  C   UNL     1       9.524  10.995  20.335  0.00  0.00    +0.000 C 
BRANCH  23  26
ATOM     26  C   UNL     1       8.908  13.871  19.299  0.00  0.00    +0.000 A 
ATOM     27  C   UNL     1       8.250  14.271  18.109  0.00  0.00    +0.000 A 
ATOM     28  C   UNL     1       7.003  14.900  18.147  0.00  0.00    +0.000 A 
ATOM     29  C   UNL     1       6.374  15.137  19.367  0.00  0.00    +0.000 A 
ATOM     30  C   UNL     1       6.988  14.739  20.552  0.00  0.00    +0.000 A 
ATOM     31  C   UNL     1       8.236  14.107  20.522  0.00  0.00    +0.000 A 
ENDBRANCH  23  26
ENDBRANCH  19  20
ENDBRANCH  18  19
ENDBRANCH  17  18
ENDBRANCH   1  17
TORSDOF 9
ENDMDL
MODEL 7
REMARK VINA RESULT:      -8.0      1.375      1.773
REMARK  Name = 
REMARK  10 active torsions:
REMARK  status: ('A' for Active; 'I' for Inactive)
REMARK    1  A    between atoms: C_1  and  O_2
REMARK    2  A    between atoms: O_2  and  C_3
REMARK    3  A    between atoms: C_6  and  C_7
REMARK    4  A    between atoms: C_7  and  C_8
REMARK    5  A    between atoms: C_8  and  O_10
REMARK    6  A    between atoms: O_10  and  C_11
REMARK    7  A    between atoms: C_11  and  C_12
REMARK    8  A    between atoms: C_12  and  C_13
REMARK    9  A    between atoms: C_13  and  N_14
REMARK   10  A    between atoms: C_17  and  C_18
REMARK                            x       y       z     vdW  Elec       q    Type
REMARK                         _______ _______ _______ _____ _____    ______ ____
ROOT
ATOM      1  O   UNL     1       6.417   7.184  17.472  0.00  0.00    +0.000 OA
ENDROOT
BRANCH   1   2
ATOM      2  C   UNL     1       5.597   6.553  16.585  0.00  0.00    +0.000 C 
ATOM      3  O   UNL     1       5.019   7.208  15.725  0.00  0.00    +0.000 OA
BRANCH   2   4
ATOM      4  C   UNL     1       5.329   5.041  16.657  0.00  0.00    +0.000 C 
ATOM      5  C   UNL     1       6.669   4.310  16.897  0.00  0.00    +0.000 C 
ATOM      6  C   UNL     1       7.382   4.463  15.564  0.00  0.00    +0.000 C 
ATOM      7  C   UNL     1       6.274   4.321  14.509  0.00  0.00    +0.000 C 
ATOM      8  C   UNL     1       4.945   4.459  15.282  0.00  0.00    +0.000 C 
BRANCH   4  12
ATOM      9  C   UNL     1       2.609   4.158  19.987  0.00  0.00    +0.000 A 
ATOM     10  C   UNL     1       2.235   5.094  19.005  0.00  0.00    +0.000 A 
ATOM     11  C   UNL     1       3.071   5.351  17.915  0.00  0.00    +0.000 A 
ATOM     12  C   UNL     1       4.315   4.693  17.777  0.00  0.00    +0.000 A 
ATOM     13  C   UNL     1       4.643   3.713  18.748  0.00  0.00    +0.000 A 
ATOM     14  C   UNL     1       3.801   3.457  19.831  0.00  0.00    +0.000 A 
BRANCH   9  16
ATOM     15  C   UNL     1       1.572   2.692  21.626  0.00  0.00    +0.000 C 
ATOM     16  O   UNL     1       1.862   3.933  21.099  0.00  0.00    +0.000 OA
ENDBRANCH   9  16
ENDBRANCH   4  12
ENDBRANCH   2   4
ENDBRANCH   1   2
BRANCH   1  17
ATOM     17  C   UNL     1       7.534   7.920  17.098  0.00  0.00    +0.000 C 
BRANCH  17  18
ATOM     18  C   UNL     1       8.259   8.476  18.328  0.00  0.00    +0.000 C 
BRANCH  18  19
ATOM     19  C   UNL     1       8.483   9.998  18.217  0.00  0.00    +0.000 C 
BRANCH  19  20
ATOM     20  N   UNL     1       9.705  10.473  18.915  0.00  0.00    +0.000 NA
ATOM     21  C   UNL     1      10.603  11.208  17.989  0.00  0.00    +0.000 C 
ATOM     22  C   UNL     1      11.822  11.792  18.724  0.00  0.00    +0.000 C 
ATOM     23  C   UNL     1      11.377  12.747  19.855  0.00  0.00    +0.000 C 
ATOM     24  C   UNL     1      10.531  11.877  20.811  0.00  0.00    +0.000 C 
ATOM     25  C   UNL     1       9.304  11.313  20.070  0.00  0.00    +0.000 C 
BRANCH  23  26
ATOM     26  C   UNL     1      10.662  14.031  19.368  0.00  0.00    +0.000 A 
ATOM     27  C   UNL     1       9.845  14.795  20.239  0.00  0.00    +0.000 A 
ATOM     28  C   UNL     1       9.216  15.964  19.804  0.00  0.00    +0.000 A 
ATOM     29  C   UNL     1       9.390  16.408  18.495  0.00  0.00    +0.000 A 
ATOM     30  C   UNL     1      10.201  15.689  17.621  0.00  0.00    +0.000 A 
ATOM     31  C   UNL     1      10.836  14.518  18.050  0.00  0.00    +0.000 A 
ENDBRANCH  23  26
ENDBRANCH  19  20
ENDBRANCH  18  19
ENDBRANCH  17  18
ENDBRANCH   1  17
TORSDOF 9
ENDMDL
MODEL 8
REMARK VINA RESULT:      -8.0      1.467      2.132
REMARK  Name = 
REMARK  10 active torsions:
REMARK  status: ('A' for Active; 'I' for Inactive)
REMARK    1  A    between atoms: C_1  and  O_2
REMARK    2  A    between atoms: O_2  and  C_3
REMARK    3  A    between atoms: C_6  and  C_7
REMARK    4  A    between atoms: C_7  and  C_8
REMARK    5  A    between atoms: C_8  and  O_10
REMARK    6  A    between atoms: O_10  and  C_11
REMARK    7  A    between atoms: C_11  and  C_12
REMARK    8  A    between atoms: C_12  and  C_13
REMARK    9  A    between atoms: C_13  and  N_14
REMARK   10  A    between atoms: C_17  and  C_18
REMARK                            x       y       z     vdW  Elec       q    Type
REMARK                         _______ _______ _______ _____ _____    ______ ____
ROOT
ATOM      1  O   UNL     1       7.495   6.738  16.691  0.00  0.00    +0.000 OA
ENDROOT
BRANCH   1   2
ATOM      2  C   UNL     1       7.100   5.450  16.898  0.00  0.00    +0.000 C 
ATOM      3  O   UNL     1       7.878   4.654  17.412  0.00  0.00    +0.000 OA
BRANCH   2   4
ATOM      4  C   UNL     1       5.717   4.942  16.460  0.00  0.00    +0.000 C 
ATOM      5  C   UNL     1       5.890   3.578  15.755  0.00  0.00    +0.000 C 
ATOM      6  C   UNL     1       6.544   3.958  14.437  0.00  0.00    +0.000 C 
ATOM      7  C   UNL     1       5.872   5.279  14.033  0.00  0.00    +0.000 C 
ATOM      8  C   UNL     1       5.141   5.776  15.299  0.00  0.00    +0.000 C 
BRANCH   4  12
ATOM      9  C   UNL     1       3.166   4.548  20.010  0.00  0.00    +0.000 A 
ATOM     10  C   UNL     1       3.215   5.770  19.312  0.00  0.00    +0.000 A 
ATOM     11  C   UNL     1       3.987   5.895  18.155  0.00  0.00    +0.000 A 
ATOM     12  C   UNL     1       4.748   4.810  17.663  0.00  0.00    +0.000 A 
ATOM     13  C   UNL     1       4.637   3.574  18.349  0.00  0.00    +0.000 A 
ATOM     14  C   UNL     1       3.860   3.454  19.501  0.00  0.00    +0.000 A 
BRANCH   9  16
ATOM     15  C   UNL     1       1.682   3.335  21.505  0.00  0.00    +0.000 C 
ATOM     16  O   UNL     1       2.488   4.404  21.178  0.00  0.00    +0.000 OA
ENDBRANCH   9  16
ENDBRANCH   4  12
ENDBRANCH   2   4
ENDBRANCH   1   2
BRANCH   1  17
ATOM     17  C   UNL     1       7.075   7.807  17.471  0.00  0.00    +0.000 C 
BRANCH  17  18
ATOM     18  C   UNL     1       8.273   8.532  18.093  0.00  0.00    +0.000 C 
BRANCH  18  19
ATOM     19  C   UNL     1       8.175  10.060  17.903  0.00  0.00    +0.000 C 
BRANCH  19  20
ATOM     20  N   UNL     1       9.452  10.775  18.156  0.00  0.00    +0.000 NA
ATOM     21  C   UNL     1       9.375  12.189  17.709  0.00  0.00    +0.000 C 
ATOM     22  C   UNL     1      10.656  12.966  18.059  0.00  0.00    +0.000 C 
ATOM     23  C   UNL     1      10.920  12.934  19.582  0.00  0.00    +0.000 C 
ATOM     24  C   UNL     1      11.077  11.439  19.936  0.00  0.00    +0.000 C 
ATOM     25  C   UNL     1       9.783  10.675  19.598  0.00  0.00    +0.000 C 
BRANCH  23  26
ATOM     26  C   UNL     1       9.861  13.678  20.433  0.00  0.00    +0.000 A 
ATOM     27  C   UNL     1       9.604  13.307  21.777  0.00  0.00    +0.000 A 
ATOM     28  C   UNL     1       8.662  13.991  22.550  0.00  0.00    +0.000 A 
ATOM     29  C   UNL     1       7.961  15.067  22.011  0.00  0.00    +0.000 A 
ATOM     30  C   UNL     1       8.205  15.465  20.699  0.00  0.00    +0.000 A 
ATOM     31  C   UNL     1       9.148  14.787  19.919  0.00  0.00    +0.000 A 
ENDBRANCH  23  26
ENDBRANCH  19  20
ENDBRANCH  18  19
ENDBRANCH  17  18
ENDBRANCH   1  17
TORSDOF 9
ENDMDL
MODEL 9
REMARK VINA RESULT:      -8.0      6.244      9.093
REMARK  Name = 
REMARK  10 active torsions:
REMARK  status: ('A' for Active; 'I' for Inactive)
REMARK    1  A    between atoms: C_1  and  O_2
REMARK    2  A    between atoms: O_2  and  C_3
REMARK    3  A    between atoms: C_6  and  C_7
REMARK    4  A    between atoms: C_7  and  C_8
REMARK    5  A    between atoms: C_8  and  O_10
REMARK    6  A    between atoms: O_10  and  C_11
REMARK    7  A    between atoms: C_11  and  C_12
REMARK    8  A    between atoms: C_12  and  C_13
REMARK    9  A    between atoms: C_13  and  N_14
REMARK   10  A    between atoms: C_17  and  C_18
REMARK                            x       y       z     vdW  Elec       q    Type
REMARK                         _______ _______ _______ _____ _____    ______ ____
ROOT
ATOM      1  O   UNL     1       2.324   6.171  20.445  0.00  0.00    +0.000 OA
ENDROOT
BRANCH   1   2
ATOM      2  C   UNL     1       2.397   5.630  19.196  0.00  0.00    +0.000 C 
ATOM      3  O   UNL     1       1.993   6.274  18.234  0.00  0.00    +0.000 OA
BRANCH   2   4
ATOM      4  C   UNL     1       2.926   4.207  18.955  0.00  0.00    +0.000 C 
ATOM      5  C   UNL     1       1.819   3.375  18.270  0.00  0.00    +0.000 C 
ATOM      6  C   UNL     1       0.806   3.175  19.386  0.00  0.00    +0.000 C 
ATOM      7  C   UNL     1       1.653   2.970  20.651  0.00  0.00    +0.000 C 
ATOM      8  C   UNL     1       3.080   3.421  20.272  0.00  0.00    +0.000 C 
BRANCH   4  12
ATOM      9  C   UNL     1       6.472   4.410  16.377  0.00  0.00    +0.000 A 
ATOM     10  C   UNL     1       6.573   4.755  17.738  0.00  0.00    +0.000 A 
ATOM     11  C   UNL     1       5.464   4.650  18.580  0.00  0.00    +0.000 A 
ATOM     12  C   UNL     1       4.211   4.214  18.088  0.00  0.00    +0.000 A 
ATOM     13  C   UNL     1       4.149   3.818  16.729  0.00  0.00    +0.000 A 
ATOM     14  C   UNL     1       5.263   3.919  15.894  0.00  0.00    +0.000 A 
BRANCH   9  16
ATOM     15  C   UNL     1       7.392   5.006  14.207  0.00  0.00    +0.000 C 
ATOM     16  O   UNL     1       7.505   4.566  15.508  0.00  0.00    +0.000 OA
ENDBRANCH   9  16
ENDBRANCH   4  12
ENDBRANCH   2   4
ENDBRANCH   1   2
BRANCH   1  17
ATOM     17  C   UNL     1       1.233   6.895  20.907  0.00  0.00    +0.000 C 
BRANCH  17  18
ATOM     18  C   UNL     1       1.495   8.401  20.807  0.00  0.00    +0.000 C 
BRANCH  18  19
ATOM     19  C   UNL     1       0.971   9.154  22.048  0.00  0.00    +0.000 C 
BRANCH  19  20
ATOM     20  N   UNL     1       0.584  10.562  21.771  0.00  0.00    +0.000 NA
ATOM     21  C   UNL     1       1.033  10.988  20.422  0.00  0.00    +0.000 C 
ATOM     22  C   UNL     1       0.549  12.410  20.086  0.00  0.00    +0.000 C 
ATOM     23  C   UNL     1      -0.993  12.496  20.152  0.00  0.00    +0.000 C 
ATOM     24  C   UNL     1      -1.358  12.127  21.607  0.00  0.00    +0.000 C 
ATOM     25  C   UNL     1      -0.885  10.697  21.927  0.00  0.00    +0.000 C 
BRANCH  23  26
ATOM     26  C   UNL     1      -1.730  11.653  19.082  0.00  0.00    +0.000 A 
ATOM     27  C   UNL     1      -1.034  10.722  18.270  0.00  0.00    +0.000 A 
ATOM     28  C   UNL     1      -1.703   9.949  17.319  0.00  0.00    +0.000 A 
ATOM     29  C   UNL     1      -3.081  10.072  17.157  0.00  0.00    +0.000 A 
ATOM     30  C   UNL     1      -3.794  10.965  17.952  0.00  0.00    +0.000 A 
ATOM     31  C   UNL     1      -3.132  11.743  18.909  0.00  0.00    +0.000 A 
ENDBRANCH  23  26
ENDBRANCH  19  20
ENDBRANCH  18  19
ENDBRANCH  17  18
ENDBRANCH   1  17
TORSDOF 9
ENDMDL
