MODEL 1
REMARK VINA RESULT:      -7.5      0.000      0.000
REMARK  Name = 
REMARK  4 active torsions:
REMARK  status: ('A' for Active; 'I' for Inactive)
REMARK    1  A    between atoms: C_1  and  S_2
REMARK    2  A    between atoms: S_2  and  C_3
REMARK    3  A    between atoms: C_8  and  N_9
REMARK    4  A    between atoms: C_10  and  C_12
REMARK                            x       y       z     vdW  Elec       q    Type
REMARK                         _______ _______ _______ _____ _____    ______ ____
ROOT
ATOM      1  N   UNL     1       1.884   8.289  19.967  0.00  0.00    +0.000 N 
ATOM      2  C   UNL     1       2.030   6.911  19.982  0.00  0.00    +0.000 C 
ATOM      3  O   UNL     1       1.492   6.128  20.758  0.00  0.00    +0.000 OA
ATOM      4  H   UNL     1       2.446   8.765  19.267  0.00  0.00    +0.000 HD
ENDROOT
BRANCH   1  10
ATOM      5  C   UNL     1      -2.183  12.241  22.225  0.00  0.00    +0.000 A 
ATOM      6  N   UNL     1      -1.611  11.411  23.063  0.00  0.00    +0.000 NA
ATOM      7  C   UNL     1      -0.717  10.609  22.385  0.00  0.00    +0.000 A 
ATOM      8  C   UNL     1       0.055   9.594  22.965  0.00  0.00    +0.000 A 
ATOM      9  C   UNL     1       0.916   8.832  22.167  0.00  0.00    +0.000 A 
ATOM     10  C   UNL     1       1.035   9.060  20.796  0.00  0.00    +0.000 A 
ATOM     11  C   UNL     1       0.274  10.082  20.201  0.00  0.00    +0.000 A 
ATOM     12  C   UNL     1      -0.597  10.843  21.015  0.00  0.00    +0.000 A 
ATOM     13  S   UNL     1      -1.659  12.140  20.595  0.00  0.00    +0.000 S 
BRANCH   5  15
ATOM     14  C   UNL     1      -3.976  12.539  24.277  0.00  0.00    +0.000 C 
ATOM     15  S   UNL     1      -3.418  13.362  22.763  0.00  0.00    +0.000 S 
ENDBRANCH   5  15
ENDBRANCH   1  10
BRANCH   2  16
ATOM     16  C   UNL     1       2.924   6.412  18.932  0.00  0.00    +0.000 A 
ATOM     17  C   UNL     1       3.198   5.077  18.695  0.00  0.00    +0.000 A 
ATOM     18  N   UNL     1       4.002   5.048  17.592  0.00  0.00    +0.000 N 
ATOM     19  C   UNL     1       4.523   3.951  16.909  0.00  0.00    +0.000 A 
ATOM     20  C   UNL     1       5.274   4.158  15.814  0.00  0.00    +0.000 A 
ATOM     21  C   UNL     1       5.522   5.526  15.384  0.00  0.00    +0.000 A 
ATOM     22  C   UNL     1       5.020   6.582  16.056  0.00  0.00    +0.000 A 
ATOM     23  C   UNL     1       4.215   6.370  17.212  0.00  0.00    +0.000 A 
ATOM     24  N   UNL     1       3.585   7.212  18.012  0.00  0.00    +0.000 NA
ENDBRANCH   2  16
TORSDOF 3
ENDMDL
MODEL 2
REMARK VINA RESULT:      -7.4      0.571      1.231
REMARK  Name = 
REMARK  4 active torsions:
REMARK  status: ('A' for Active; 'I' for Inactive)
REMARK    1  A    between atoms: C_1  and  S_2
REMARK    2  A    between atoms: S_2  and  C_3
REMARK    3  A    between atoms: C_8  and  N_9
REMARK    4  A    between atoms: C_10  and  C_12
REMARK                            x       y       z     vdW  Elec       q    Type
REMARK                         _______ _______ _______ _____ _____    ______ ____
ROOT
ATOM      1  N   UNL     1       1.875   8.209  19.823  0.00  0.00    +0.000 N 
ATOM      2  C   UNL     1       2.057   6.837  19.880  0.00  0.00    +0.000 C 
ATOM      3  O   UNL     1       1.607   6.075  20.729  0.00  0.00    +0.000 OA
ATOM      4  H   UNL     1       2.363   8.668  19.059  0.00  0.00    +0.000 HD
ENDROOT
BRANCH   1  10
ATOM      5  C   UNL     1      -2.037  12.210  22.264  0.00  0.00    +0.000 A 
ATOM      6  N   UNL     1      -1.420  11.388  23.077  0.00  0.00    +0.000 NA
ATOM      7  C   UNL     1      -0.570  10.573  22.359  0.00  0.00    +0.000 A 
ATOM      8  C   UNL     1       0.229   9.562  22.905  0.00  0.00    +0.000 A 
ATOM      9  C   UNL     1       1.039   8.786  22.069  0.00  0.00    +0.000 A 
ATOM     10  C   UNL     1       1.079   8.996  20.690  0.00  0.00    +0.000 A 
ATOM     11  C   UNL     1       0.288  10.014  20.128  0.00  0.00    +0.000 A 
ATOM     12  C   UNL     1      -0.530  10.789  20.981  0.00  0.00    +0.000 A 
ATOM     13  S   UNL     1      -1.609  12.086  20.607  0.00  0.00    +0.000 S 
BRANCH   5  15
ATOM     14  C   UNL     1      -3.913  12.409  24.253  0.00  0.00    +0.000 C 
ATOM     15  S   UNL     1      -3.233  13.345  22.858  0.00  0.00    +0.000 S 
ENDBRANCH   5  15
ENDBRANCH   1  10
BRANCH   2  16
ATOM     16  C   UNL     1       2.872   6.314  18.778  0.00  0.00    +0.000 A 
ATOM     17  C   UNL     1       3.557   7.092  17.862  0.00  0.00    +0.000 A 
ATOM     18  N   UNL     1       4.243   6.220  17.067  0.00  0.00    +0.000 N 
ATOM     19  C   UNL     1       5.123   6.487  16.021  0.00  0.00    +0.000 A 
ATOM     20  C   UNL     1       5.719   5.461  15.389  0.00  0.00    +0.000 A 
ATOM     21  C   UNL     1       5.417   4.105  15.819  0.00  0.00    +0.000 A 
ATOM     22  C   UNL     1       4.557   3.855  16.827  0.00  0.00    +0.000 A 
ATOM     23  C   UNL     1       3.929   4.938  17.509  0.00  0.00    +0.000 A 
ATOM     24  N   UNL     1       3.094   4.967  18.532  0.00  0.00    +0.000 NA
ENDBRANCH   2  16
TORSDOF 3
ENDMDL
MODEL 3
REMARK VINA RESULT:      -7.2      2.511      4.079
REMARK  Name = 
REMARK  4 active torsions:
REMARK  status: ('A' for Active; 'I' for Inactive)
REMARK    1  A    between atoms: C_1  and  S_2
REMARK    2  A    between atoms: S_2  and  C_3
REMARK    3  A    between atoms: C_8  and  N_9
REMARK    4  A    between atoms: C_10  and  C_12
REMARK                            x       y       z     vdW  Elec       q    Type
REMARK                         _______ _______ _______ _____ _____    ______ ____
ROOT
ATOM      1  N   UNL     1       3.882   6.470  17.118  0.00  0.00    +0.000 N 
ATOM      2  C   UNL     1       5.183   6.002  17.201  0.00  0.00    +0.000 C 
ATOM      3  O   UNL     1       5.911   6.038  18.187  0.00  0.00    +0.000 OA
ATOM      4  H   UNL     1       3.460   6.381  16.198  0.00  0.00    +0.000 HD
ENDROOT
BRANCH   1  10
ATOM      5  C   UNL     1       0.362   9.970  20.670  0.00  0.00    +0.000 A 
ATOM      6  N   UNL     1       0.718   8.797  21.134  0.00  0.00    +0.000 NA
ATOM      7  C   UNL     1       1.518   8.156  20.210  0.00  0.00    +0.000 A 
ATOM      8  C   UNL     1       2.060   6.874  20.367  0.00  0.00    +0.000 A 
ATOM      9  C   UNL     1       2.844   6.321  19.348  0.00  0.00    +0.000 A 
ATOM     10  C   UNL     1       3.110   7.019  18.169  0.00  0.00    +0.000 A 
ATOM     11  C   UNL     1       2.579   8.310  18.002  0.00  0.00    +0.000 A 
ATOM     12  C   UNL     1       1.785   8.859  19.035  0.00  0.00    +0.000 A 
ATOM     13  S   UNL     1       0.992  10.390  19.131  0.00  0.00    +0.000 S 
BRANCH   5  15
ATOM     14  C   UNL     1      -0.754  10.142  23.168  0.00  0.00    +0.000 C 
ATOM     15  S   UNL     1      -0.708  11.017  21.582  0.00  0.00    +0.000 S 
ENDBRANCH   5  15
ENDBRANCH   1  10
BRANCH   2  16
ATOM     16  C   UNL     1       5.667   5.410  15.949  0.00  0.00    +0.000 A 
ATOM     17  C   UNL     1       5.024   4.406  15.248  0.00  0.00    +0.000 A 
ATOM     18  N   UNL     1       5.759   4.207  14.115  0.00  0.00    +0.000 N 
ATOM     19  C   UNL     1       5.520   3.343  13.049  0.00  0.00    +0.000 A 
ATOM     20  C   UNL     1       6.371   3.336  12.008  0.00  0.00    +0.000 A 
ATOM     21  C   UNL     1       7.518   4.231  12.037  0.00  0.00    +0.000 A 
ATOM     22  C   UNL     1       7.747   5.058  13.078  0.00  0.00    +0.000 A 
ATOM     23  C   UNL     1       6.843   5.078  14.180  0.00  0.00    +0.000 A 
ATOM     24  N   UNL     1       6.817   5.805  15.282  0.00  0.00    +0.000 NA
ENDBRANCH   2  16
TORSDOF 3
ENDMDL
MODEL 4
REMARK VINA RESULT:      -7.1      7.354     10.073
REMARK  Name = 
REMARK  4 active torsions:
REMARK  status: ('A' for Active; 'I' for Inactive)
REMARK    1  A    between atoms: C_1  and  S_2
REMARK    2  A    between atoms: S_2  and  C_3
REMARK    3  A    between atoms: C_8  and  N_9
REMARK    4  A    between atoms: C_10  and  C_12
REMARK                            x       y       z     vdW  Elec       q    Type
REMARK                         _______ _______ _______ _____ _____    ______ ____
ROOT
ATOM      1  N   UNL     1       8.495   9.376  17.899  0.00  0.00    +0.000 N 
ATOM      2  C   UNL     1       9.039  10.198  18.872  0.00  0.00    +0.000 C 
ATOM      3  O   UNL     1       9.039   9.996  20.082  0.00  0.00    +0.000 OA
ATOM      4  H   UNL     1       8.565   9.740  16.952  0.00  0.00    +0.000 HD
ENDROOT
BRANCH   1  10
ATOM      5  C   UNL     1       4.938   4.419  17.696  0.00  0.00    +0.000 A 
ATOM      6  N   UNL     1       5.990   4.381  18.476  0.00  0.00    +0.000 NA
ATOM      7  C   UNL     1       6.663   5.584  18.409  0.00  0.00    +0.000 A 
ATOM      8  C   UNL     1       7.844   5.887  19.097  0.00  0.00    +0.000 A 
ATOM      9  C   UNL     1       8.445   7.139  18.932  0.00  0.00    +0.000 A 
ATOM     10  C   UNL     1       7.893   8.111  18.096  0.00  0.00    +0.000 A 
ATOM     11  C   UNL     1       6.701   7.825  17.406  0.00  0.00    +0.000 A 
ATOM     12  C   UNL     1       6.104   6.554  17.576  0.00  0.00    +0.000 A 
ATOM     13  S   UNL     1       4.669   5.899  16.872  0.00  0.00    +0.000 S 
BRANCH   5  15
ATOM     14  C   UNL     1       3.949   2.346  19.192  0.00  0.00    +0.000 C 
ATOM     15  S   UNL     1       3.897   3.022  17.512  0.00  0.00    +0.000 S 
ENDBRANCH   5  15
ENDBRANCH   1  10
BRANCH   2  16
ATOM     16  C   UNL     1       9.669  11.405  18.327  0.00  0.00    +0.000 A 
ATOM     17  C   UNL     1       9.112  12.670  18.358  0.00  0.00    +0.000 A 
ATOM     18  N   UNL     1      10.049  13.507  17.824  0.00  0.00    +0.000 N 
ATOM     19  C   UNL     1      10.009  14.891  17.668  0.00  0.00    +0.000 A 
ATOM     20  C   UNL     1      11.073  15.521  17.140  0.00  0.00    +0.000 A 
ATOM     21  C   UNL     1      12.229  14.731  16.744  0.00  0.00    +0.000 A 
ATOM     22  C   UNL     1      12.255  13.390  16.891  0.00  0.00    +0.000 A 
ATOM     23  C   UNL     1      11.135  12.716  17.459  0.00  0.00    +0.000 A 
ATOM     24  N   UNL     1      10.925  11.443  17.741  0.00  0.00    +0.000 NA
ENDBRANCH   2  16
TORSDOF 3
ENDMDL
MODEL 5
REMARK VINA RESULT:      -6.9      3.493      9.442
REMARK  Name = 
REMARK  4 active torsions:
REMARK  status: ('A' for Active; 'I' for Inactive)
REMARK    1  A    between atoms: C_1  and  S_2
REMARK    2  A    between atoms: S_2  and  C_3
REMARK    3  A    between atoms: C_8  and  N_9
REMARK    4  A    between atoms: C_10  and  C_12
REMARK                            x       y       z     vdW  Elec       q    Type
REMARK                         _______ _______ _______ _____ _____    ______ ____
ROOT
ATOM      1  N   UNL     1       0.330  10.134  20.834  0.00  0.00    +0.000 N 
ATOM      2  C   UNL     1       0.686  11.416  21.217  0.00  0.00    +0.000 C 
ATOM      3  O   UNL     1       1.736  11.993  20.952  0.00  0.00    +0.000 OA
ATOM      4  H   UNL     1      -0.571   9.822  21.188  0.00  0.00    +0.000 HD
ENDROOT
BRANCH   1  10
ATOM      5  C   UNL     1       3.428   5.445  18.450  0.00  0.00    +0.000 A 
ATOM      6  N   UNL     1       3.210   6.484  17.681  0.00  0.00    +0.000 NA
ATOM      7  C   UNL     1       2.515   7.446  18.385  0.00  0.00    +0.000 A 
ATOM      8  C   UNL     1       2.094   8.677  17.867  0.00  0.00    +0.000 A 
ATOM      9  C   UNL     1       1.378   9.565  18.677  0.00  0.00    +0.000 A 
ATOM     10  C   UNL     1       1.071   9.260  20.003  0.00  0.00    +0.000 A 
ATOM     11  C   UNL     1       1.495   8.031  20.540  0.00  0.00    +0.000 A 
ATOM     12  C   UNL     1       2.215   7.138  19.712  0.00  0.00    +0.000 A 
ATOM     13  S   UNL     1       2.856   5.573  20.061  0.00  0.00    +0.000 S 
BRANCH   5  15
ATOM     14  C   UNL     1       4.517   3.106  19.375  0.00  0.00    +0.000 C 
ATOM     15  S   UNL     1       4.242   4.021  17.835  0.00  0.00    +0.000 S 
ENDBRANCH   5  15
ENDBRANCH   1  10
BRANCH   2  16
ATOM     16  C   UNL     1      -0.346  12.093  22.009  0.00  0.00    +0.000 A 
ATOM     17  C   UNL     1      -1.598  11.574  22.286  0.00  0.00    +0.000 A 
ATOM     18  N   UNL     1      -2.207  12.477  23.108  0.00  0.00    +0.000 N 
ATOM     19  C   UNL     1      -3.459  12.413  23.715  0.00  0.00    +0.000 A 
ATOM     20  C   UNL     1      -3.847  13.415  24.523  0.00  0.00    +0.000 A 
ATOM     21  C   UNL     1      -2.944  14.537  24.730  0.00  0.00    +0.000 A 
ATOM     22  C   UNL     1      -1.736  14.594  24.131  0.00  0.00    +0.000 A 
ATOM     23  C   UNL     1      -1.314  13.531  23.281  0.00  0.00    +0.000 A 
ATOM     24  N   UNL     1      -0.189  13.329  22.619  0.00  0.00    +0.000 NA
ENDBRANCH   2  16
TORSDOF 3
ENDMDL
MODEL 6
REMARK VINA RESULT:      -6.9      3.396      9.149
REMARK  Name = 
REMARK  4 active torsions:
REMARK  status: ('A' for Active; 'I' for Inactive)
REMARK    1  A    between atoms: C_1  and  S_2
REMARK    2  A    between atoms: S_2  and  C_3
REMARK    3  A    between atoms: C_8  and  N_9
REMARK    4  A    between atoms: C_10  and  C_12
REMARK                            x       y       z     vdW  Elec       q    Type
REMARK                         _______ _______ _______ _____ _____    ______ ____
ROOT
ATOM      1  N   UNL     1       0.772   8.577  20.602  0.00  0.00    +0.000 N 
ATOM      2  C   UNL     1       0.972   9.370  21.719  0.00  0.00    +0.000 C 
ATOM      3  O   UNL     1       1.893   9.280  22.524  0.00  0.00    +0.000 OA
ATOM      4  H   UNL     1      -0.075   8.788  20.081  0.00  0.00    +0.000 HD
ENDROOT
BRANCH   1  10
ATOM      5  C   UNL     1       4.866   5.219  17.564  0.00  0.00    +0.000 A 
ATOM      6  N   UNL     1       4.280   4.672  18.601  0.00  0.00    +0.000 NA
ATOM      7  C   UNL     1       3.381   5.564  19.151  0.00  0.00    +0.000 A 
ATOM      8  C   UNL     1       2.596   5.320  20.284  0.00  0.00    +0.000 A 
ATOM      9  C   UNL     1       1.732   6.313  20.759  0.00  0.00    +0.000 A 
ATOM     10  C   UNL     1       1.624   7.552  20.126  0.00  0.00    +0.000 A 
ATOM     11  C   UNL     1       2.400   7.807  18.982  0.00  0.00    +0.000 A 
ATOM     12  C   UNL     1       3.273   6.799  18.512  0.00  0.00    +0.000 A 
ATOM     13  S   UNL     1       4.351   6.804  17.162  0.00  0.00    +0.000 S 
BRANCH   5  15
ATOM     14  C   UNL     1       7.549   4.683  17.722  0.00  0.00    +0.000 C 
ATOM     15  S   UNL     1       6.108   4.364  16.672  0.00  0.00    +0.000 S 
ENDBRANCH   5  15
ENDBRANCH   1  10
BRANCH   2  16
ATOM     16  C   UNL     1      -0.054  10.405  21.887  0.00  0.00    +0.000 A 
ATOM     17  C   UNL     1      -0.667  11.087  20.852  0.00  0.00    +0.000 A 
ATOM     18  N   UNL     1      -1.605  11.891  21.434  0.00  0.00    +0.000 N 
ATOM     19  C   UNL     1      -2.526  12.747  20.835  0.00  0.00    +0.000 A 
ATOM     20  C   UNL     1      -3.389  13.426  21.610  0.00  0.00    +0.000 A 
ATOM     21  C   UNL     1      -3.323  13.247  23.052  0.00  0.00    +0.000 A 
ATOM     22  C   UNL     1      -2.421  12.423  23.624  0.00  0.00    +0.000 A 
ATOM     23  C   UNL     1      -1.511  11.691  22.808  0.00  0.00    +0.000 A 
ATOM     24  N   UNL     1      -0.575  10.809  23.108  0.00  0.00    +0.000 NA
ENDBRANCH   2  16
TORSDOF 3
ENDMDL
MODEL 7
REMARK VINA RESULT:      -6.9      3.454      9.431
REMARK  Name = 
REMARK  4 active torsions:
REMARK  status: ('A' for Active; 'I' for Inactive)
REMARK    1  A    between atoms: C_1  and  S_2
REMARK    2  A    between atoms: S_2  and  C_3
REMARK    3  A    between atoms: C_8  and  N_9
REMARK    4  A    between atoms: C_10  and  C_12
REMARK                            x       y       z     vdW  Elec       q    Type
REMARK                         _______ _______ _______ _____ _____    ______ ____
ROOT
ATOM      1  N   UNL     1      -0.035   9.843  20.471  0.00  0.00    +0.000 N 
ATOM      2  C   UNL     1       0.182  11.040  21.133  0.00  0.00    +0.000 C 
ATOM      3  O   UNL     1       1.259  11.612  21.273  0.00  0.00    +0.000 OA
ATOM      4  H   UNL     1      -0.997   9.515  20.499  0.00  0.00    +0.000 HD
ENDROOT
BRANCH   1  10
ATOM      5  C   UNL     1       3.869   5.556  18.563  0.00  0.00    +0.000 A 
ATOM      6  N   UNL     1       3.699   6.608  17.799  0.00  0.00    +0.000 NA
ATOM      7  C   UNL     1       2.801   7.472  18.391  0.00  0.00    +0.000 A 
ATOM      8  C   UNL     1       2.369   8.686  17.842  0.00  0.00    +0.000 A 
ATOM      9  C   UNL     1       1.438   9.469  18.531  0.00  0.00    +0.000 A 
ATOM     10  C   UNL     1       0.923   9.076  19.767  0.00  0.00    +0.000 A 
ATOM     11  C   UNL     1       1.354   7.864  20.335  0.00  0.00    +0.000 A 
ATOM     12  C   UNL     1       2.293   7.077  19.629  0.00  0.00    +0.000 A 
ATOM     13  S   UNL     1       3.002   5.557  20.042  0.00  0.00    +0.000 S 
BRANCH   5  15
ATOM     14  C   UNL     1       4.491   2.995  19.318  0.00  0.00    +0.000 C 
ATOM     15  S   UNL     1       4.910   4.237  18.067  0.00  0.00    +0.000 S 
ENDBRANCH   5  15
ENDBRANCH   1  10
BRANCH   2  16
ATOM     16  C   UNL     1      -1.042  11.628  21.687  0.00  0.00    +0.000 A 
ATOM     17  C   UNL     1      -1.980  12.336  20.957  0.00  0.00    +0.000 A 
ATOM     18  N   UNL     1      -2.989  12.632  21.828  0.00  0.00    +0.000 N 
ATOM     19  C   UNL     1      -4.194  13.289  21.590  0.00  0.00    +0.000 A 
ATOM     20  C   UNL     1      -5.066  13.444  22.602  0.00  0.00    +0.000 A 
ATOM     21  C   UNL     1      -4.714  12.922  23.914  0.00  0.00    +0.000 A 
ATOM     22  C   UNL     1      -3.541  12.294  24.136  0.00  0.00    +0.000 A 
ATOM     23  C   UNL     1      -2.617  12.118  23.067  0.00  0.00    +0.000 A 
ATOM     24  N   UNL     1      -1.441  11.518  23.011  0.00  0.00    +0.000 NA
ENDBRANCH   2  16
TORSDOF 3
ENDMDL
MODEL 8
REMARK VINA RESULT:      -6.8      1.097      1.119
REMARK  Name = 
REMARK  4 active torsions:
REMARK  status: ('A' for Active; 'I' for Inactive)
REMARK    1  A    between atoms: C_1  and  S_2
REMARK    2  A    between atoms: S_2  and  C_3
REMARK    3  A    between atoms: C_8  and  N_9
REMARK    4  A    between atoms: C_10  and  C_12
REMARK                            x       y       z     vdW  Elec       q    Type
REMARK                         _______ _______ _______ _____ _____    ______ ____
ROOT
ATOM      1  N   UNL     1       1.590   8.215  20.071  0.00  0.00    +0.000 N 
ATOM      2  C   UNL     1       1.831   8.401  18.719  0.00  0.00    +0.000 C 
ATOM      3  O   UNL     1       1.368   9.289  18.011  0.00  0.00    +0.000 OA
ATOM      4  H   UNL     1       2.039   7.395  20.470  0.00  0.00    +0.000 HD
ENDROOT
BRANCH   1  10
ATOM      5  C   UNL     1      -2.161  12.422  22.415  0.00  0.00    +0.000 A 
ATOM      6  N   UNL     1      -1.596  11.580  23.245  0.00  0.00    +0.000 NA
ATOM      7  C   UNL     1      -0.776  10.718  22.547  0.00  0.00    +0.000 A 
ATOM      8  C   UNL     1      -0.033   9.675  23.115  0.00  0.00    +0.000 A 
ATOM      9  C   UNL     1       0.750   8.854  22.298  0.00  0.00    +0.000 A 
ATOM     10  C   UNL     1       0.820   9.047  20.918  0.00  0.00    +0.000 A 
ATOM     11  C   UNL     1       0.087  10.096  20.335  0.00  0.00    +0.000 A 
ATOM     12  C   UNL     1      -0.706  10.918  21.169  0.00  0.00    +0.000 A 
ATOM     13  S   UNL     1      -1.716  12.260  20.766  0.00  0.00    +0.000 S 
BRANCH   5  15
ATOM     14  C   UNL     1      -4.165  12.673  24.269  0.00  0.00    +0.000 C 
ATOM     15  S   UNL     1      -3.310  13.618  22.981  0.00  0.00    +0.000 S 
ENDBRANCH   5  15
ENDBRANCH   1  10
BRANCH   2  16
ATOM     16  C   UNL     1       2.746   7.406  18.151  0.00  0.00    +0.000 A 
ATOM     17  C   UNL     1       2.595   6.036  18.266  0.00  0.00    +0.000 A 
ATOM     18  N   UNL     1       3.606   5.483  17.533  0.00  0.00    +0.000 N 
ATOM     19  C   UNL     1       3.880   4.141  17.281  0.00  0.00    +0.000 A 
ATOM     20  C   UNL     1       4.923   3.822  16.494  0.00  0.00    +0.000 A 
ATOM     21  C   UNL     1       5.733   4.895  15.938  0.00  0.00    +0.000 A 
ATOM     22  C   UNL     1       5.465   6.192  16.195  0.00  0.00    +0.000 A 
ATOM     23  C   UNL     1       4.355   6.538  17.019  0.00  0.00    +0.000 A 
ATOM     24  N   UNL     1       3.864   7.708  17.388  0.00  0.00    +0.000 NA
ENDBRANCH   2  16
TORSDOF 3
ENDMDL
MODEL 9
REMARK VINA RESULT:      -6.8      3.755      9.252
REMARK  Name = 
REMARK  4 active torsions:
REMARK  status: ('A' for Active; 'I' for Inactive)
REMARK    1  A    between atoms: C_1  and  S_2
REMARK    2  A    between atoms: S_2  and  C_3
REMARK    3  A    between atoms: C_8  and  N_9
REMARK    4  A    between atoms: C_10  and  C_12
REMARK                            x       y       z     vdW  Elec       q    Type
REMARK                         _______ _______ _______ _____ _____    ______ ____
ROOT
ATOM      1  N   UNL     1       1.626   8.156  19.765  0.00  0.00    +0.000 N 
ATOM      2  C   UNL     1       1.182   9.315  19.150  0.00  0.00    +0.000 C 
ATOM      3  O   UNL     1       1.438   9.680  18.008  0.00  0.00    +0.000 OA
ATOM      4  H   UNL     1       1.332   8.052  20.732  0.00  0.00    +0.000 HD
ENDROOT
BRANCH   1  10
ATOM      5  C   UNL     1       5.517   4.869  16.400  0.00  0.00    +0.000 A 
ATOM      6  N   UNL     1       4.859   4.249  17.348  0.00  0.00    +0.000 NA
ATOM      7  C   UNL     1       4.021   5.137  17.990  0.00  0.00    +0.000 A 
ATOM      8  C   UNL     1       3.185   4.821  19.069  0.00  0.00    +0.000 A 
ATOM      9  C   UNL     1       2.393   5.816  19.650  0.00  0.00    +0.000 A 
ATOM     10  C   UNL     1       2.404   7.129  19.178  0.00  0.00    +0.000 A 
ATOM     11  C   UNL     1       3.231   7.460  18.090  0.00  0.00    +0.000 A 
ATOM     12  C   UNL     1       4.032   6.447  17.512  0.00  0.00    +0.000 A 
ATOM     13  S   UNL     1       5.145   6.531  16.193  0.00  0.00    +0.000 S 
BRANCH   5  15
ATOM     14  C   UNL     1       5.879   4.017  13.820  0.00  0.00    +0.000 C 
ATOM     15  S   UNL     1       6.710   4.031  15.429  0.00  0.00    +0.000 S 
ENDBRANCH   5  15
ENDBRANCH   1  10
BRANCH   2  16
ATOM     16  C   UNL     1       0.317  10.132  20.009  0.00  0.00    +0.000 A 
ATOM     17  C   UNL     1      -0.577  11.084  19.554  0.00  0.00    +0.000 A 
ATOM     18  N   UNL     1      -1.229  11.547  20.661  0.00  0.00    +0.000 N 
ATOM     19  C   UNL     1      -2.260  12.479  20.751  0.00  0.00    +0.000 A 
ATOM     20  C   UNL     1      -2.782  12.763  21.957  0.00  0.00    +0.000 A 
ATOM     21  C   UNL     1      -2.244  12.088  23.129  0.00  0.00    +0.000 A 
ATOM     22  C   UNL     1      -1.240  11.193  23.032  0.00  0.00    +0.000 A 
ATOM     23  C   UNL     1      -0.688  10.879  21.757  0.00  0.00    +0.000 A 
ATOM     24  N   UNL     1       0.255  10.029  21.391  0.00  0.00    +0.000 NA
ENDBRANCH   2  16
TORSDOF 3
ENDMDL
