MODEL 1
REMARK VINA RESULT:      -8.4      0.000      0.000
REMARK  Name = 
REMARK  9 active torsions:
REMARK  status: ('A' for Active; 'I' for Inactive)
REMARK    1  A    between atoms: C_1  and  O_2
REMARK    2  A    between atoms: O_2  and  C_3
REMARK    3  A    between atoms: C_5  and  C_6
REMARK    4  A    between atoms: C_10  and  O_11
REMARK    5  A    between atoms: O_11  and  C_12
REMARK    6  A    between atoms: C_16  and  N_17
REMARK    7  A    between atoms: C_21  and  C_22
REMARK    8  A    between atoms: N_25  and  C_26
REMARK    9  A    between atoms: C_27  and  C_28
REMARK                            x       y       z     vdW  Elec       q    Type
REMARK                         _______ _______ _______ _____ _____    ______ ____
ROOT
ATOM      1  N   UNL     1       1.609   6.815  21.016  0.00  0.00    +0.000 N 
ATOM      2  C   UNL     1       1.967   5.554  20.515  0.00  0.00    +0.000 A 
ATOM      3  C   UNL     1       2.417   5.362  19.239  0.00  0.00    +0.000 A 
ATOM      4  C   UNL     1       3.049   4.196  18.834  0.00  0.00    +0.000 A 
ATOM      5  C   UNL     1       3.919   4.227  17.731  0.00  0.00    +0.000 A 
ATOM      6  C   UNL     1       4.303   3.036  17.125  0.00  0.00    +0.000 A 
ATOM      7  C   UNL     1       3.871   1.834  17.694  0.00  0.00    +0.000 A 
ATOM      8  C   UNL     1       3.215   1.827  18.939  0.00  0.00    +0.000 A 
ATOM      9  C   UNL     1       2.843   3.039  19.557  0.00  0.00    +0.000 A 
ATOM     10  C   UNL     1       2.321   3.258  20.848  0.00  0.00    +0.000 A 
ATOM     11  N   UNL     1       1.956   4.486  21.354  0.00  0.00    +0.000 NA
ATOM     12  H   UNL     1       1.575   6.720  22.024  0.00  0.00    +0.000 HD
ENDROOT
BRANCH   5  13
ATOM     13  C   UNL     1       4.672   5.472  17.519  0.00  0.00    +0.000 A 
ATOM     14  C   UNL     1       4.422   6.450  16.514  0.00  0.00    +0.000 A 
ATOM     15  N   UNL     1       5.339   7.407  16.475  0.00  0.00    +0.000 NA
ATOM     16  N   UNL     1       6.214   7.018  17.417  0.00  0.00    +0.000 N 
ATOM     17  C   UNL     1       7.470   7.729  17.507  0.00  0.00    +0.000 C 
ATOM     18  C   UNL     1       5.814   5.917  18.152  0.00  0.00    +0.000 A 
ATOM     19  C   UNL     1       6.548   5.385  19.323  0.00  0.00    +0.000 C 
ENDBRANCH   5  13
BRANCH   1  25
ATOM     20  C   UNL     1       1.206   9.335  21.282  0.00  0.00    +0.000 A 
ATOM     21  C   UNL     1       1.073  10.586  20.652  0.00  0.00    +0.000 A 
ATOM     22  C   UNL     1       1.345  10.741  19.302  0.00  0.00    +0.000 A 
ATOM     23  C   UNL     1       1.624   9.610  18.543  0.00  0.00    +0.000 A 
ATOM     24  C   UNL     1       1.649   8.342  19.154  0.00  0.00    +0.000 A 
ATOM     25  C   UNL     1       1.455   8.153  20.545  0.00  0.00    +0.000 A 
BRANCH  22  26
ATOM     26  C   UNL     1       1.497  12.133  18.794  0.00  0.00    +0.000 C 
ATOM     27  O   UNL     1       2.577  12.487  18.314  0.00  0.00    +0.000 OA
ATOM     28  N   UNL     1       0.376  12.938  18.823  0.00  0.00    +0.000 N 
ATOM     29  C   UNL     1       0.370  14.316  18.335  0.00  0.00    +0.000 C 
ATOM     30  C   UNL     1      -0.375  14.729  19.606  0.00  0.00    +0.000 C 
ATOM     31  C   UNL     1      -0.370  13.250  20.041  0.00  0.00    +0.000 C 
BRANCH  30  32
ATOM     32  O   UNL     1       0.328  15.672  20.454  0.00  0.00    +0.000 OA
ATOM     33  C   UNL     1      -0.450  16.728  20.996  0.00  0.00    +0.000 C 
ENDBRANCH  30  32
ENDBRANCH  22  26
BRANCH  20  35
ATOM     34  C   UNL     1      -0.164   9.624  23.189  0.00  0.00    +0.000 C 
ATOM     35  O   UNL     1       1.121   9.336  22.643  0.00  0.00    +0.000 OA
ENDBRANCH  20  35
ENDBRANCH   1  25
TORSDOF 5
ENDMDL
MODEL 2
REMARK VINA RESULT:      -8.1      1.239      1.242
REMARK  Name = 
REMARK  9 active torsions:
REMARK  status: ('A' for Active; 'I' for Inactive)
REMARK    1  A    between atoms: C_1  and  O_2
REMARK    2  A    between atoms: O_2  and  C_3
REMARK    3  A    between atoms: C_5  and  C_6
REMARK    4  A    between atoms: C_10  and  O_11
REMARK    5  A    between atoms: O_11  and  C_12
REMARK    6  A    between atoms: C_16  and  N_17
REMARK    7  A    between atoms: C_21  and  C_22
REMARK    8  A    between atoms: N_25  and  C_26
REMARK    9  A    between atoms: C_27  and  C_28
REMARK                            x       y       z     vdW  Elec       q    Type
REMARK                         _______ _______ _______ _____ _____    ______ ____
ROOT
ATOM      1  N   UNL     1       1.559   7.025  20.916  0.00  0.00    +0.000 N 
ATOM      2  C   UNL     1       1.873   5.745  20.437  0.00  0.00    +0.000 A 
ATOM      3  C   UNL     1       2.349   5.519  19.176  0.00  0.00    +0.000 A 
ATOM      4  C   UNL     1       2.938   4.321  18.801  0.00  0.00    +0.000 A 
ATOM      5  C   UNL     1       3.839   4.301  17.722  0.00  0.00    +0.000 A 
ATOM      6  C   UNL     1       4.186   3.087  17.139  0.00  0.00    +0.000 A 
ATOM      7  C   UNL     1       3.684   1.912  17.708  0.00  0.00    +0.000 A 
ATOM      8  C   UNL     1       2.994   1.948  18.934  0.00  0.00    +0.000 A 
ATOM      9  C   UNL     1       2.660   3.182  19.529  0.00  0.00    +0.000 A 
ATOM     10  C   UNL     1       2.114   3.439  20.803  0.00  0.00    +0.000 A 
ATOM     11  N   UNL     1       1.791   4.688  21.286  0.00  0.00    +0.000 NA
ATOM     12  H   UNL     1       1.492   6.943  21.923  0.00  0.00    +0.000 HD
ENDROOT
BRANCH   5  13
ATOM     13  C   UNL     1       4.653   5.508  17.520  0.00  0.00    +0.000 A 
ATOM     14  C   UNL     1       4.467   6.492  16.507  0.00  0.00    +0.000 A 
ATOM     15  N   UNL     1       5.428   7.405  16.481  0.00  0.00    +0.000 NA
ATOM     16  N   UNL     1       6.267   6.979  17.440  0.00  0.00    +0.000 N 
ATOM     17  C   UNL     1       7.554   7.631  17.550  0.00  0.00    +0.000 C 
ATOM     18  C   UNL     1       5.804   5.902  18.171  0.00  0.00    +0.000 A 
ATOM     19  C   UNL     1       6.491   5.341  19.357  0.00  0.00    +0.000 C 
ENDBRANCH   5  13
BRANCH   1  25
ATOM     20  C   UNL     1       1.212   9.558  21.137  0.00  0.00    +0.000 A 
ATOM     21  C   UNL     1       1.162  10.808  20.493  0.00  0.00    +0.000 A 
ATOM     22  C   UNL     1       1.535  10.945  19.166  0.00  0.00    +0.000 A 
ATOM     23  C   UNL     1       1.835   9.800  18.435  0.00  0.00    +0.000 A 
ATOM     24  C   UNL     1       1.779   8.537  19.053  0.00  0.00    +0.000 A 
ATOM     25  C   UNL     1       1.478   8.364  20.428  0.00  0.00    +0.000 A 
BRANCH  22  26
ATOM     26  C   UNL     1       1.764  12.328  18.662  0.00  0.00    +0.000 C 
ATOM     27  O   UNL     1       2.137  12.494  17.498  0.00  0.00    +0.000 OA
ATOM     28  N   UNL     1       1.469  13.366  19.522  0.00  0.00    +0.000 N 
ATOM     29  C   UNL     1       1.620  14.774  19.156  0.00  0.00    +0.000 C 
ATOM     30  C   UNL     1       2.310  15.015  20.501  0.00  0.00    +0.000 C 
ATOM     31  C   UNL     1       2.079  13.529  20.840  0.00  0.00    +0.000 C 
BRANCH  30  32
ATOM     32  O   UNL     1       3.683  15.472  20.416  0.00  0.00    +0.000 OA
ATOM     33  C   UNL     1       4.001  16.642  21.154  0.00  0.00    +0.000 C 
ENDBRANCH  30  32
ENDBRANCH  22  26
BRANCH  20  35
ATOM     34  C   UNL     1      -0.324   9.630  22.936  0.00  0.00    +0.000 C 
ATOM     35  O   UNL     1       1.028   9.572  22.489  0.00  0.00    +0.000 OA
ENDBRANCH  20  35
ENDBRANCH   1  25
TORSDOF 5
ENDMDL
MODEL 3
REMARK VINA RESULT:      -7.5      1.499      2.127
REMARK  Name = 
REMARK  9 active torsions:
REMARK  status: ('A' for Active; 'I' for Inactive)
REMARK    1  A    between atoms: C_1  and  O_2
REMARK    2  A    between atoms: O_2  and  C_3
REMARK    3  A    between atoms: C_5  and  C_6
REMARK    4  A    between atoms: C_10  and  O_11
REMARK    5  A    between atoms: O_11  and  C_12
REMARK    6  A    between atoms: C_16  and  N_17
REMARK    7  A    between atoms: C_21  and  C_22
REMARK    8  A    between atoms: N_25  and  C_26
REMARK    9  A    between atoms: C_27  and  C_28
REMARK                            x       y       z     vdW  Elec       q    Type
REMARK                         _______ _______ _______ _____ _____    ______ ____
ROOT
ATOM      1  N   UNL     1       1.720   6.593  21.231  0.00  0.00    +0.000 N 
ATOM      2  C   UNL     1       2.053   5.356  20.660  0.00  0.00    +0.000 A 
ATOM      3  C   UNL     1       2.442   5.218  19.357  0.00  0.00    +0.000 A 
ATOM      4  C   UNL     1       3.054   4.071  18.874  0.00  0.00    +0.000 A 
ATOM      5  C   UNL     1       3.871   4.150  17.733  0.00  0.00    +0.000 A 
ATOM      6  C   UNL     1       4.225   2.986  17.060  0.00  0.00    +0.000 A 
ATOM      7  C   UNL     1       3.819   1.761  17.598  0.00  0.00    +0.000 A 
ATOM      8  C   UNL     1       3.223   1.699  18.871  0.00  0.00    +0.000 A 
ATOM      9  C   UNL     1       2.881   2.884  19.556  0.00  0.00    +0.000 A 
ATOM     10  C   UNL     1       2.421   3.048  20.879  0.00  0.00    +0.000 A 
ATOM     11  N   UNL     1       2.081   4.253  21.453  0.00  0.00    +0.000 NA
ATOM     12  H   UNL     1       1.733   6.455  22.234  0.00  0.00    +0.000 HD
ENDROOT
BRANCH   5  13
ATOM     13  C   UNL     1       4.614   5.404  17.540  0.00  0.00    +0.000 A 
ATOM     14  C   UNL     1       4.399   6.362  16.507  0.00  0.00    +0.000 A 
ATOM     15  N   UNL     1       5.302   7.334  16.499  0.00  0.00    +0.000 NA
ATOM     16  N   UNL     1       6.134   6.973  17.490  0.00  0.00    +0.000 N 
ATOM     17  C   UNL     1       7.373   7.706  17.631  0.00  0.00    +0.000 C 
ATOM     18  C   UNL     1       5.716   5.877  18.221  0.00  0.00    +0.000 A 
ATOM     19  C   UNL     1       6.399   5.375  19.435  0.00  0.00    +0.000 C 
ENDBRANCH   5  13
BRANCH   1  25
ATOM     20  C   UNL     1       1.732   8.531  19.548  0.00  0.00    +0.000 A 
ATOM     21  C   UNL     1       1.519   9.903  19.320  0.00  0.00    +0.000 A 
ATOM     22  C   UNL     1       0.956  10.712  20.294  0.00  0.00    +0.000 A 
ATOM     23  C   UNL     1       0.725  10.175  21.556  0.00  0.00    +0.000 A 
ATOM     24  C   UNL     1       1.041   8.829  21.816  0.00  0.00    +0.000 A 
ATOM     25  C   UNL     1       1.544   7.949  20.825  0.00  0.00    +0.000 A 
BRANCH  22  26
ATOM     26  C   UNL     1       0.469  12.053  19.866  0.00  0.00    +0.000 C 
ATOM     27  O   UNL     1      -0.525  12.132  19.139  0.00  0.00    +0.000 OA
ATOM     28  N   UNL     1       1.128  13.152  20.377  0.00  0.00    +0.000 N 
ATOM     29  C   UNL     1       0.745  14.529  20.065  0.00  0.00    +0.000 C 
ATOM     30  C   UNL     1       2.222  14.850  19.824  0.00  0.00    +0.000 C 
ATOM     31  C   UNL     1       2.559  13.395  20.206  0.00  0.00    +0.000 C 
BRANCH  30  32
ATOM     32  O   UNL     1       2.549  15.277  18.477  0.00  0.00    +0.000 OA
ATOM     33  C   UNL     1       3.354  16.440  18.367  0.00  0.00    +0.000 C 
ENDBRANCH  30  32
ENDBRANCH  22  26
BRANCH  20  35
ATOM     34  C   UNL     1       2.094   8.475  17.211  0.00  0.00    +0.000 C 
ATOM     35  O   UNL     1       2.091   7.790  18.461  0.00  0.00    +0.000 OA
ENDBRANCH  20  35
ENDBRANCH   1  25
TORSDOF 5
ENDMDL
MODEL 4
REMARK VINA RESULT:      -7.3      2.637      9.375
REMARK  Name = 
REMARK  9 active torsions:
REMARK  status: ('A' for Active; 'I' for Inactive)
REMARK    1  A    between atoms: C_1  and  O_2
REMARK    2  A    between atoms: O_2  and  C_3
REMARK    3  A    between atoms: C_5  and  C_6
REMARK    4  A    between atoms: C_10  and  O_11
REMARK    5  A    between atoms: O_11  and  C_12
REMARK    6  A    between atoms: C_16  and  N_17
REMARK    7  A    between atoms: C_21  and  C_22
REMARK    8  A    between atoms: N_25  and  C_26
REMARK    9  A    between atoms: C_27  and  C_28
REMARK                            x       y       z     vdW  Elec       q    Type
REMARK                         _______ _______ _______ _____ _____    ______ ____
ROOT
ATOM      1  N   UNL     1      -1.101  10.795  19.685  0.00  0.00    +0.000 N 
ATOM      2  C   UNL     1      -1.420  11.969  20.384  0.00  0.00    +0.000 A 
ATOM      3  C   UNL     1      -0.494  12.696  21.078  0.00  0.00    +0.000 A 
ATOM      4  C   UNL     1      -0.730  13.993  21.510  0.00  0.00    +0.000 A 
ATOM      5  C   UNL     1       0.357  14.853  21.743  0.00  0.00    +0.000 A 
ATOM      6  C   UNL     1       0.163  16.025  22.466  0.00  0.00    +0.000 A 
ATOM      7  C   UNL     1      -1.137  16.347  22.868  0.00  0.00    +0.000 A 
ATOM      8  C   UNL     1      -2.236  15.600  22.405  0.00  0.00    +0.000 A 
ATOM      9  C   UNL     1      -2.033  14.422  21.656  0.00  0.00    +0.000 A 
ATOM     10  C   UNL     1      -2.976  13.621  20.981  0.00  0.00    +0.000 A 
ATOM     11  N   UNL     1      -2.683  12.461  20.298  0.00  0.00    +0.000 NA
ATOM     12  H   UNL     1      -1.878  10.616  19.062  0.00  0.00    +0.000 HD
ENDROOT
BRANCH   5  13
ATOM     13  C   UNL     1       1.541  14.665  20.892  0.00  0.00    +0.000 A 
ATOM     14  C   UNL     1       2.757  14.025  21.267  0.00  0.00    +0.000 A 
ATOM     15  N   UNL     1       3.703  14.113  20.342  0.00  0.00    +0.000 NA
ATOM     16  N   UNL     1       3.118  14.862  19.392  0.00  0.00    +0.000 N 
ATOM     17  C   UNL     1       3.944  15.342  18.306  0.00  0.00    +0.000 C 
ATOM     18  C   UNL     1       1.782  15.137  19.618  0.00  0.00    +0.000 A 
ATOM     19  C   UNL     1       0.898  15.831  18.655  0.00  0.00    +0.000 C 
ENDBRANCH   5  13
BRANCH   1  25
ATOM     20  C   UNL     1       0.589   8.999  20.394  0.00  0.00    +0.000 A 
ATOM     21  C   UNL     1       1.709   8.221  20.044  0.00  0.00    +0.000 A 
ATOM     22  C   UNL     1       2.198   8.213  18.748  0.00  0.00    +0.000 A 
ATOM     23  C   UNL     1       1.648   9.092  17.821  0.00  0.00    +0.000 A 
ATOM     24  C   UNL     1       0.598   9.949  18.202  0.00  0.00    +0.000 A 
ATOM     25  C   UNL     1       0.018   9.930  19.495  0.00  0.00    +0.000 A 
BRANCH  22  26
ATOM     26  C   UNL     1       3.162   7.135  18.391  0.00  0.00    +0.000 C 
ATOM     27  O   UNL     1       3.857   7.255  17.379  0.00  0.00    +0.000 OA
ATOM     28  N   UNL     1       3.273   6.077  19.271  0.00  0.00    +0.000 N 
ATOM     29  C   UNL     1       4.195   4.960  19.063  0.00  0.00    +0.000 C 
ATOM     30  C   UNL     1       3.059   3.999  19.421  0.00  0.00    +0.000 C 
ATOM     31  C   UNL     1       2.153   5.223  19.664  0.00  0.00    +0.000 C 
BRANCH  30  32
ATOM     32  O   UNL     1       2.669   3.084  18.365  0.00  0.00    +0.000 OA
ATOM     33  C   UNL     1       3.292   1.810  18.380  0.00  0.00    +0.000 C 
ENDBRANCH  30  32
ENDBRANCH  22  26
BRANCH  20  35
ATOM     34  C   UNL     1       0.716   9.430  22.717  0.00  0.00    +0.000 C 
ATOM     35  O   UNL     1       0.065   8.772  21.633  0.00  0.00    +0.000 OA
ENDBRANCH  20  35
ENDBRANCH   1  25
TORSDOF 5
ENDMDL
MODEL 5
REMARK VINA RESULT:      -7.3      3.245      8.806
REMARK  Name = 
REMARK  9 active torsions:
REMARK  status: ('A' for Active; 'I' for Inactive)
REMARK    1  A    between atoms: C_1  and  O_2
REMARK    2  A    between atoms: O_2  and  C_3
REMARK    3  A    between atoms: C_5  and  C_6
REMARK    4  A    between atoms: C_10  and  O_11
REMARK    5  A    between atoms: O_11  and  C_12
REMARK    6  A    between atoms: C_16  and  N_17
REMARK    7  A    between atoms: C_21  and  C_22
REMARK    8  A    between atoms: N_25  and  C_26
REMARK    9  A    between atoms: C_27  and  C_28
REMARK                            x       y       z     vdW  Elec       q    Type
REMARK                         _______ _______ _______ _____ _____    ______ ____
ROOT
ATOM      1  N   UNL     1       0.831   7.913  21.461  0.00  0.00    +0.000 N 
ATOM      2  C   UNL     1       0.235   9.146  21.767  0.00  0.00    +0.000 A 
ATOM      3  C   UNL     1      -0.003  10.110  20.828  0.00  0.00    +0.000 A 
ATOM      4  C   UNL     1      -0.848  11.186  21.056  0.00  0.00    +0.000 A 
ATOM      5  C   UNL     1      -1.451  11.835  19.964  0.00  0.00    +0.000 A 
ATOM      6  C   UNL     1      -2.033  13.085  20.144  0.00  0.00    +0.000 A 
ATOM      7  C   UNL     1      -2.069  13.618  21.437  0.00  0.00    +0.000 A 
ATOM      8  C   UNL     1      -1.687  12.839  22.544  0.00  0.00    +0.000 A 
ATOM      9  C   UNL     1      -1.114  11.564  22.355  0.00  0.00    +0.000 A 
ATOM     10  C   UNL     1      -0.804  10.575  23.311  0.00  0.00    +0.000 A 
ATOM     11  N   UNL     1      -0.211   9.364  23.031  0.00  0.00    +0.000 NA
ATOM     12  H   UNL     1       0.647   7.306  22.251  0.00  0.00    +0.000 HD
ENDROOT
BRANCH   5  13
ATOM     13  C   UNL     1      -1.772  11.001  18.796  0.00  0.00    +0.000 A 
ATOM     14  C   UNL     1      -0.861  10.185  18.065  0.00  0.00    +0.000 A 
ATOM     15  N   UNL     1      -1.397   9.645  16.979  0.00  0.00    +0.000 NA
ATOM     16  N   UNL     1      -2.639  10.159  16.976  0.00  0.00    +0.000 N 
ATOM     17  C   UNL     1      -3.454   9.946  15.800  0.00  0.00    +0.000 C 
ATOM     18  C   UNL     1      -2.958  10.899  18.099  0.00  0.00    +0.000 A 
ATOM     19  C   UNL     1      -4.302  11.454  18.378  0.00  0.00    +0.000 C 
ENDBRANCH   5  13
BRANCH   1  25
ATOM     20  C   UNL     1       2.021   7.831  19.190  0.00  0.00    +0.000 A 
ATOM     21  C   UNL     1       2.577   7.035  18.171  0.00  0.00    +0.000 A 
ATOM     22  C   UNL     1       2.727   5.667  18.333  0.00  0.00    +0.000 A 
ATOM     23  C   UNL     1       2.196   5.067  19.470  0.00  0.00    +0.000 A 
ATOM     24  C   UNL     1       1.542   5.852  20.439  0.00  0.00    +0.000 A 
ATOM     25  C   UNL     1       1.439   7.262  20.347  0.00  0.00    +0.000 A 
BRANCH  22  26
ATOM     26  C   UNL     1       3.607   4.960  17.361  0.00  0.00    +0.000 C 
ATOM     27  O   UNL     1       3.370   3.782  17.077  0.00  0.00    +0.000 OA
ATOM     28  N   UNL     1       4.611   5.699  16.770  0.00  0.00    +0.000 N 
ATOM     29  C   UNL     1       5.534   5.144  15.781  0.00  0.00    +0.000 C 
ATOM     30  C   UNL     1       6.689   5.806  16.535  0.00  0.00    +0.000 C 
ATOM     31  C   UNL     1       5.657   6.395  17.517  0.00  0.00    +0.000 C 
BRANCH  30  32
ATOM     32  O   UNL     1       7.677   4.893  17.077  0.00  0.00    +0.000 OA
ATOM     33  C   UNL     1       7.897   4.968  18.477  0.00  0.00    +0.000 C 
ENDBRANCH  30  32
ENDBRANCH  22  26
BRANCH  20  35
ATOM     34  C   UNL     1       2.389   9.621  17.686  0.00  0.00    +0.000 C 
ATOM     35  O   UNL     1       2.114   9.181  19.014  0.00  0.00    +0.000 OA
ENDBRANCH  20  35
ENDBRANCH   1  25
TORSDOF 5
ENDMDL
MODEL 6
REMARK VINA RESULT:      -7.2      3.984      7.127
REMARK  Name = 
REMARK  9 active torsions:
REMARK  status: ('A' for Active; 'I' for Inactive)
REMARK    1  A    between atoms: C_1  and  O_2
REMARK    2  A    between atoms: O_2  and  C_3
REMARK    3  A    between atoms: C_5  and  C_6
REMARK    4  A    between atoms: C_10  and  O_11
REMARK    5  A    between atoms: O_11  and  C_12
REMARK    6  A    between atoms: C_16  and  N_17
REMARK    7  A    between atoms: C_21  and  C_22
REMARK    8  A    between atoms: N_25  and  C_26
REMARK    9  A    between atoms: C_27  and  C_28
REMARK                            x       y       z     vdW  Elec       q    Type
REMARK                         _______ _______ _______ _____ _____    ______ ____
ROOT
ATOM      1  N   UNL     1      -0.791  11.076  23.106  0.00  0.00    +0.000 N 
ATOM      2  C   UNL     1      -0.112  10.227  22.220  0.00  0.00    +0.000 A 
ATOM      3  C   UNL     1      -0.128  10.401  20.864  0.00  0.00    +0.000 A 
ATOM      4  C   UNL     1       0.766   9.765  20.017  0.00  0.00    +0.000 A 
ATOM      5  C   UNL     1       1.053  10.332  18.763  0.00  0.00    +0.000 A 
ATOM      6  C   UNL     1       1.684   9.564  17.790  0.00  0.00    +0.000 A 
ATOM      7  C   UNL     1       2.087   8.268  18.128  0.00  0.00    +0.000 A 
ATOM      8  C   UNL     1       2.014   7.820  19.460  0.00  0.00    +0.000 A 
ATOM      9  C   UNL     1       1.389   8.612  20.446  0.00  0.00    +0.000 A 
ATOM     10  C   UNL     1       1.340   8.423  21.842  0.00  0.00    +0.000 A 
ATOM     11  N   UNL     1       0.672   9.240  22.726  0.00  0.00    +0.000 NA
ATOM     12  H   UNL     1      -0.406  10.894  24.025  0.00  0.00    +0.000 HD
ENDROOT
BRANCH   5  13
ATOM     13  C   UNL     1       1.022  11.799  18.679  0.00  0.00    +0.000 A 
ATOM     14  C   UNL     1       2.106  12.684  18.950  0.00  0.00    +0.000 A 
ATOM     15  N   UNL     1       1.757  13.963  18.921  0.00  0.00    +0.000 NA
ATOM     16  N   UNL     1       0.435  13.904  18.691  0.00  0.00    +0.000 N 
ATOM     17  C   UNL     1      -0.325  15.129  18.805  0.00  0.00    +0.000 C 
ATOM     18  C   UNL     1      -0.047  12.635  18.432  0.00  0.00    +0.000 A 
ATOM     19  C   UNL     1      -1.440  12.339  18.025  0.00  0.00    +0.000 C 
ENDBRANCH   5  13
BRANCH   1  25
ATOM     20  C   UNL     1      -1.484  13.486  22.558  0.00  0.00    +0.000 A 
ATOM     21  C   UNL     1      -2.495  14.464  22.591  0.00  0.00    +0.000 A 
ATOM     22  C   UNL     1      -3.791  14.143  22.960  0.00  0.00    +0.000 A 
ATOM     23  C   UNL     1      -4.054  12.860  23.428  0.00  0.00    +0.000 A 
ATOM     24  C   UNL     1      -3.016  11.911  23.497  0.00  0.00    +0.000 A 
ATOM     25  C   UNL     1      -1.696  12.178  23.056  0.00  0.00    +0.000 A 
BRANCH  22  26
ATOM     26  C   UNL     1      -4.852  15.144  22.658  0.00  0.00    +0.000 C 
ATOM     27  O   UNL     1      -5.517  15.618  23.582  0.00  0.00    +0.000 OA
ATOM     28  N   UNL     1      -4.982  15.544  21.343  0.00  0.00    +0.000 N 
ATOM     29  C   UNL     1      -5.962  16.537  20.904  0.00  0.00    +0.000 C 
ATOM     30  C   UNL     1      -6.330  15.610  19.743  0.00  0.00    +0.000 C 
ATOM     31  C   UNL     1      -5.250  14.627  20.236  0.00  0.00    +0.000 C 
BRANCH  30  32
ATOM     32  O   UNL     1      -7.703  15.142  19.738  0.00  0.00    +0.000 OA
ATOM     33  C   UNL     1      -7.916  13.831  19.238  0.00  0.00    +0.000 C 
ENDBRANCH  30  32
ENDBRANCH  22  26
BRANCH  20  35
ATOM     34  C   UNL     1       0.268  15.073  22.463  0.00  0.00    +0.000 C 
ATOM     35  O   UNL     1      -0.305  13.859  21.983  0.00  0.00    +0.000 OA
ENDBRANCH  20  35
ENDBRANCH   1  25
TORSDOF 5
ENDMDL
MODEL 7
REMARK VINA RESULT:      -7.2      4.041      7.060
REMARK  Name = 
REMARK  9 active torsions:
REMARK  status: ('A' for Active; 'I' for Inactive)
REMARK    1  A    between atoms: C_1  and  O_2
REMARK    2  A    between atoms: O_2  and  C_3
REMARK    3  A    between atoms: C_5  and  C_6
REMARK    4  A    between atoms: C_10  and  O_11
REMARK    5  A    between atoms: O_11  and  C_12
REMARK    6  A    between atoms: C_16  and  N_17
REMARK    7  A    between atoms: C_21  and  C_22
REMARK    8  A    between atoms: N_25  and  C_26
REMARK    9  A    between atoms: C_27  and  C_28
REMARK                            x       y       z     vdW  Elec       q    Type
REMARK                         _______ _______ _______ _____ _____    ______ ____
ROOT
ATOM      1  N   UNL     1      -0.798  11.127  23.157  0.00  0.00    +0.000 N 
ATOM      2  C   UNL     1      -0.134  10.285  22.253  0.00  0.00    +0.000 A 
ATOM      3  C   UNL     1      -0.127  10.501  20.903  0.00  0.00    +0.000 A 
ATOM      4  C   UNL     1       0.758   9.863  20.047  0.00  0.00    +0.000 A 
ATOM      5  C   UNL     1       1.078  10.458  18.815  0.00  0.00    +0.000 A 
ATOM      6  C   UNL     1       1.697   9.701  17.826  0.00  0.00    +0.000 A 
ATOM      7  C   UNL     1       2.056   8.383  18.129  0.00  0.00    +0.000 A 
ATOM      8  C   UNL     1       1.953   7.898  19.445  0.00  0.00    +0.000 A 
ATOM      9  C   UNL     1       1.339   8.678  20.448  0.00  0.00    +0.000 A 
ATOM     10  C   UNL     1       1.266   8.448  21.837  0.00  0.00    +0.000 A 
ATOM     11  N   UNL     1       0.612   9.259  22.738  0.00  0.00    +0.000 NA
ATOM     12  H   UNL     1      -0.430  10.905  24.074  0.00  0.00    +0.000 HD
ENDROOT
BRANCH   5  13
ATOM     13  C   UNL     1       1.094  11.928  18.776  0.00  0.00    +0.000 A 
ATOM     14  C   UNL     1       2.195  12.770  19.105  0.00  0.00    +0.000 A 
ATOM     15  N   UNL     1       1.886  14.060  19.107  0.00  0.00    +0.000 NA
ATOM     16  N   UNL     1       0.570  14.049  18.837  0.00  0.00    +0.000 N 
ATOM     17  C   UNL     1      -0.157  15.293  18.968  0.00  0.00    +0.000 C 
ATOM     18  C   UNL     1       0.057  12.804  18.525  0.00  0.00    +0.000 A 
ATOM     19  C   UNL     1      -1.331  12.563  18.071  0.00  0.00    +0.000 C 
ENDBRANCH   5  13
BRANCH   1  25
ATOM     20  C   UNL     1      -1.387  13.591  22.751  0.00  0.00    +0.000 A 
ATOM     21  C   UNL     1      -2.371  14.596  22.790  0.00  0.00    +0.000 A 
ATOM     22  C   UNL     1      -3.698  14.290  23.042  0.00  0.00    +0.000 A 
ATOM     23  C   UNL     1      -4.027  12.984  23.391  0.00  0.00    +0.000 A 
ATOM     24  C   UNL     1      -3.023  12.000  23.458  0.00  0.00    +0.000 A 
ATOM     25  C   UNL     1      -1.668  12.258  23.130  0.00  0.00    +0.000 A 
BRANCH  22  26
ATOM     26  C   UNL     1      -4.709  15.343  22.746  0.00  0.00    +0.000 C 
ATOM     27  O   UNL     1      -5.762  15.368  23.388  0.00  0.00    +0.000 OA
ATOM     28  N   UNL     1      -4.369  16.292  21.804  0.00  0.00    +0.000 N 
ATOM     29  C   UNL     1      -5.249  17.398  21.431  0.00  0.00    +0.000 C 
ATOM     30  C   UNL     1      -4.948  17.098  19.960  0.00  0.00    +0.000 C 
ATOM     31  C   UNL     1      -4.001  15.974  20.425  0.00  0.00    +0.000 C 
BRANCH  30  32
ATOM     32  O   UNL     1      -6.096  16.712  19.162  0.00  0.00    +0.000 OA
ATOM     33  C   UNL     1      -6.392  17.542  18.050  0.00  0.00    +0.000 C 
ENDBRANCH  30  32
ENDBRANCH  22  26
BRANCH  20  35
ATOM     34  C   UNL     1       0.237  15.305  22.592  0.00  0.00    +0.000 C 
ATOM     35  O   UNL     1      -0.161  13.970  22.288  0.00  0.00    +0.000 OA
ENDBRANCH  20  35
ENDBRANCH   1  25
TORSDOF 5
ENDMDL
MODEL 8
REMARK VINA RESULT:      -7.2      6.128     11.179
REMARK  Name = 
REMARK  9 active torsions:
REMARK  status: ('A' for Active; 'I' for Inactive)
REMARK    1  A    between atoms: C_1  and  O_2
REMARK    2  A    between atoms: O_2  and  C_3
REMARK    3  A    between atoms: C_5  and  C_6
REMARK    4  A    between atoms: C_10  and  O_11
REMARK    5  A    between atoms: O_11  and  C_12
REMARK    6  A    between atoms: C_16  and  N_17
REMARK    7  A    between atoms: C_21  and  C_22
REMARK    8  A    between atoms: N_25  and  C_26
REMARK    9  A    between atoms: C_27  and  C_28
REMARK                            x       y       z     vdW  Elec       q    Type
REMARK                         _______ _______ _______ _____ _____    ______ ____
ROOT
ATOM      1  N   UNL     1      -0.783  13.498  23.144  0.00  0.00    +0.000 N 
ATOM      2  C   UNL     1      -1.579  14.516  23.689  0.00  0.00    +0.000 A 
ATOM      3  C   UNL     1      -2.741  14.943  23.109  0.00  0.00    +0.000 A 
ATOM      4  C   UNL     1      -3.673  15.719  23.781  0.00  0.00    +0.000 A 
ATOM      5  C   UNL     1      -5.015  15.703  23.365  0.00  0.00    +0.000 A 
ATOM      6  C   UNL     1      -5.884  16.694  23.809  0.00  0.00    +0.000 A 
ATOM      7  C   UNL     1      -5.404  17.633  24.729  0.00  0.00    +0.000 A 
ATOM      8  C   UNL     1      -4.136  17.474  25.318  0.00  0.00    +0.000 A 
ATOM      9  C   UNL     1      -3.266  16.455  24.875  0.00  0.00    +0.000 A 
ATOM     10  C   UNL     1      -2.036  16.035  25.419  0.00  0.00    +0.000 A 
ATOM     11  N   UNL     1      -1.237  15.044  24.893  0.00  0.00    +0.000 NA
ATOM     12  H   UNL     1      -0.155  13.203  23.881  0.00  0.00    +0.000 HD
ENDROOT
BRANCH   5  13
ATOM     13  C   UNL     1      -5.517  14.441  22.803  0.00  0.00    +0.000 A 
ATOM     14  C   UNL     1      -5.790  13.244  23.525  0.00  0.00    +0.000 A 
ATOM     15  N   UNL     1      -6.108  12.221  22.744  0.00  0.00    +0.000 NA
ATOM     16  N   UNL     1      -5.982  12.741  21.511  0.00  0.00    +0.000 N 
ATOM     17  C   UNL     1      -6.051  11.834  20.386  0.00  0.00    +0.000 C 
ATOM     18  C   UNL     1      -5.730  14.099  21.483  0.00  0.00    +0.000 A 
ATOM     19  C   UNL     1      -5.680  14.913  20.247  0.00  0.00    +0.000 C 
ENDBRANCH   5  13
BRANCH   1  25
ATOM     20  C   UNL     1      -0.220  11.384  21.803  0.00  0.00    +0.000 A 
ATOM     21  C   UNL     1      -0.236  10.732  20.556  0.00  0.00    +0.000 A 
ATOM     22  C   UNL     1      -0.899  11.280  19.470  0.00  0.00    +0.000 A 
ATOM     23  C   UNL     1      -1.440  12.556  19.592  0.00  0.00    +0.000 A 
ATOM     24  C   UNL     1      -1.328  13.253  20.810  0.00  0.00    +0.000 A 
ATOM     25  C   UNL     1      -0.727  12.695  21.966  0.00  0.00    +0.000 A 
BRANCH  22  26
ATOM     26  C   UNL     1      -1.143  10.390  18.301  0.00  0.00    +0.000 C 
ATOM     27  O   UNL     1      -0.200   9.763  17.811  0.00  0.00    +0.000 OA
ATOM     28  N   UNL     1      -2.448  10.260  17.873  0.00  0.00    +0.000 N 
ATOM     29  C   UNL     1      -2.841   9.402  16.756  0.00  0.00    +0.000 C 
ATOM     30  C   UNL     1      -3.701  10.549  16.220  0.00  0.00    +0.000 C 
ATOM     31  C   UNL     1      -3.280  11.384  17.446  0.00  0.00    +0.000 C 
BRANCH  30  32
ATOM     32  O   UNL     1      -3.319  11.048  14.913  0.00  0.00    +0.000 OA
ATOM     33  C   UNL     1      -3.660  10.230  13.806  0.00  0.00    +0.000 C 
ENDBRANCH  30  32
ENDBRANCH  22  26
BRANCH  20  35
ATOM     34  C   UNL     1      -0.181   9.316  22.953  0.00  0.00    +0.000 C 
ATOM     35  O   UNL     1       0.274  10.663  22.851  0.00  0.00    +0.000 OA
ENDBRANCH  20  35
ENDBRANCH   1  25
TORSDOF 5
ENDMDL
MODEL 9
REMARK VINA RESULT:      -7.2      6.046     11.418
REMARK  Name = 
REMARK  9 active torsions:
REMARK  status: ('A' for Active; 'I' for Inactive)
REMARK    1  A    between atoms: C_1  and  O_2
REMARK    2  A    between atoms: O_2  and  C_3
REMARK    3  A    between atoms: C_5  and  C_6
REMARK    4  A    between atoms: C_10  and  O_11
REMARK    5  A    between atoms: O_11  and  C_12
REMARK    6  A    between atoms: C_16  and  N_17
REMARK    7  A    between atoms: C_21  and  C_22
REMARK    8  A    between atoms: N_25  and  C_26
REMARK    9  A    between atoms: C_27  and  C_28
REMARK                            x       y       z     vdW  Elec       q    Type
REMARK                         _______ _______ _______ _____ _____    ______ ____
ROOT
ATOM      1  N   UNL     1      -1.301  13.559  23.423  0.00  0.00    +0.000 N 
ATOM      2  C   UNL     1      -2.183  14.571  23.832  0.00  0.00    +0.000 A 
ATOM      3  C   UNL     1      -3.242  14.985  23.073  0.00  0.00    +0.000 A 
ATOM      4  C   UNL     1      -4.276  15.753  23.586  0.00  0.00    +0.000 A 
ATOM      5  C   UNL     1      -5.535  15.723  22.962  0.00  0.00    +0.000 A 
ATOM      6  C   UNL     1      -6.473  16.706  23.259  0.00  0.00    +0.000 A 
ATOM      7  C   UNL     1      -6.154  17.651  24.241  0.00  0.00    +0.000 A 
ATOM      8  C   UNL     1      -4.994  17.505  25.024  0.00  0.00    +0.000 A 
ATOM      9  C   UNL     1      -4.056  16.494  24.728  0.00  0.00    +0.000 A 
ATOM     10  C   UNL     1      -2.923  16.087  25.463  0.00  0.00    +0.000 A 
ATOM     11  N   UNL     1      -2.041  15.103  25.073  0.00  0.00    +0.000 NA
ATOM     12  H   UNL     1      -0.796  13.271  24.252  0.00  0.00    +0.000 HD
ENDROOT
BRANCH   5  13
ATOM     13  C   UNL     1      -5.929  14.455  22.331  0.00  0.00    +0.000 A 
ATOM     14  C   UNL     1      -5.680  14.070  20.982  0.00  0.00    +0.000 A 
ATOM     15  N   UNL     1      -6.262  12.926  20.648  0.00  0.00    +0.000 NA
ATOM     16  N   UNL     1      -6.936  12.600  21.764  0.00  0.00    +0.000 N 
ATOM     17  C   UNL     1      -7.868  11.497  21.691  0.00  0.00    +0.000 C 
ATOM     18  C   UNL     1      -6.692  13.426  22.845  0.00  0.00    +0.000 A 
ATOM     19  C   UNL     1      -7.217  13.192  24.209  0.00  0.00    +0.000 C 
ENDBRANCH   5  13
BRANCH   1  25
ATOM     20  C   UNL     1      -0.722  11.380  22.197  0.00  0.00    +0.000 A 
ATOM     21  C   UNL     1      -0.499  10.737  20.966  0.00  0.00    +0.000 A 
ATOM     22  C   UNL     1      -0.754  11.379  19.765  0.00  0.00    +0.000 A 
ATOM     23  C   UNL     1      -1.110  12.724  19.790  0.00  0.00    +0.000 A 
ATOM     24  C   UNL     1      -1.227  13.398  21.020  0.00  0.00    +0.000 A 
ATOM     25  C   UNL     1      -1.051  12.754  22.271  0.00  0.00    +0.000 A 
BRANCH  22  26
ATOM     26  C   UNL     1      -0.805  10.535  18.539  0.00  0.00    +0.000 C 
ATOM     27  O   UNL     1       0.248  10.139  18.034  0.00  0.00    +0.000 OA
ATOM     28  N   UNL     1      -2.055  10.180  18.074  0.00  0.00    +0.000 N 
ATOM     29  C   UNL     1      -2.258   9.335  16.897  0.00  0.00    +0.000 C 
ATOM     30  C   UNL     1      -3.321  10.323  16.413  0.00  0.00    +0.000 C 
ATOM     31  C   UNL     1      -3.087  11.143  17.697  0.00  0.00    +0.000 C 
BRANCH  30  32
ATOM     32  O   UNL     1      -3.032  10.971  15.148  0.00  0.00    +0.000 OA
ATOM     33  C   UNL     1      -3.420  10.266  13.979  0.00  0.00    +0.000 C 
ENDBRANCH  30  32
ENDBRANCH  22  26
BRANCH  20  35
ATOM     34  C   UNL     1       0.130   9.402  23.177  0.00  0.00    +0.000 C 
ATOM     35  O   UNL     1      -0.642  10.594  23.309  0.00  0.00    +0.000 OA
ENDBRANCH  20  35
ENDBRANCH   1  25
TORSDOF 5
ENDMDL
