MODEL 1
REMARK VINA RESULT:      -6.6      0.000      0.000
REMARK  Name = 
REMARK  13 active torsions:
REMARK  status: ('A' for Active; 'I' for Inactive)
REMARK    1  A    between atoms: C_1  and  C_2
REMARK    2  A    between atoms: C_2  and  C_3
REMARK    3  A    between atoms: C_2  and  O_4
REMARK    4  A    between atoms: O_4  and  C_5
REMARK    5  A    between atoms: C_6  and  C_7
REMARK    6  A    between atoms: C_7  and  O_8
REMARK    7  A    between atoms: O_8  and  P_9
REMARK    8  A    between atoms: C_13  and  N_14
REMARK    9  A    between atoms: N_16  and  C_17
REMARK   10  A    between atoms: C_26  and  O_27
REMARK   11  A    between atoms: O_27  and  C_28
REMARK   12  A    between atoms: C_28  and  C_29
REMARK   13  A    between atoms: C_28  and  C_30
REMARK                            x       y       z     vdW  Elec       q    Type
REMARK                         _______ _______ _______ _____ _____    ______ ____
ROOT
ATOM      1  C   UNL     1       0.164  10.950  20.571  0.00  0.00    +0.000 C 
ATOM      2  C   UNL     1       0.678  11.065  19.127  0.00  0.00    +0.000 C 
ATOM      3  O   UNL     1      -0.267  11.952  18.455  0.00  0.00    +0.000 OA
ATOM      4  C   UNL     1      -0.973  12.681  19.446  0.00  0.00    +0.000 C 
ATOM      5  C   UNL     1      -0.302  12.401  20.792  0.00  0.00    +0.000 C 
ENDROOT
BRANCH   4   6
ATOM      6  N   UNL     1      -2.396  12.359  19.323  0.00  0.00    +0.000 N 
ATOM      7  C   UNL     1      -3.276  12.704  20.277  0.00  0.00    +0.000 A 
ATOM      8  N   UNL     1      -4.504  12.352  19.869  0.00  0.00    +0.000 N 
ATOM      9  C   UNL     1      -5.743  12.559  20.599  0.00  0.00    +0.000 C 
ATOM     10  C   UNL     1      -4.412  11.867  18.570  0.00  0.00    +0.000 A 
ATOM     11  C   UNL     1      -5.401  11.460  17.627  0.00  0.00    +0.000 A 
ATOM     12  O   UNL     1      -6.613  11.383  17.757  0.00  0.00    +0.000 OA
ATOM     13  N   UNL     1      -4.791  11.109  16.430  0.00  0.00    +0.000 N 
ATOM     14  C   UNL     1      -3.436  11.023  16.214  0.00  0.00    +0.000 A 
ATOM     15  N   UNL     1      -3.055  10.589  14.997  0.00  0.00    +0.000 N 
ATOM     16  N   UNL     1      -2.543  11.317  17.111  0.00  0.00    +0.000 NA
ATOM     17  C   UNL     1      -3.076  11.802  18.254  0.00  0.00    +0.000 A 
ATOM     18  H   UNL     1      -5.427  10.861  15.686  0.00  0.00    +0.000 HD
ATOM     19  H   UNL     1      -3.691  10.244  14.291  0.00  0.00    +0.000 HD
ATOM     20  H   UNL     1      -2.068  10.432  14.826  0.00  0.00    +0.000 HD
ENDBRANCH   4   6
BRANCH   1  21
ATOM     21  O   UNL     1       1.078  10.433  21.545  0.00  0.00    +0.000 OA
BRANCH  21  23
ATOM     22  C   UNL     1      -0.479  10.062  23.368  0.00  0.00    +0.000 C 
ATOM     23  C   UNL     1       0.520   9.417  22.405  0.00  0.00    +0.000 C 
ATOM     24  C   UNL     1      -0.209   8.322  21.629  0.00  0.00    +0.000 C 
ENDBRANCH  21  23
ENDBRANCH   1  21
BRANCH   2  25
ATOM     25  C   UNL     1       0.695   9.756  18.339  0.00  0.00    +0.000 C 
BRANCH  25  26
ATOM     26  O   UNL     1       1.972   9.635  17.689  0.00  0.00    +0.000 OA
BRANCH  26  27
ATOM     27  P   UNL     1       2.676   8.056  17.761  0.00  0.00    +0.000 P 
ATOM     28  O   UNL     1       2.125   8.002  19.209  0.00  0.00    +0.000 OA
ATOM     29  O   UNL     1       3.381   6.478  17.833  0.00  0.00    +0.000 OA
ATOM     30  H   UNL     1       3.892   8.731  17.524  0.00  0.00    +0.000 HD
ENDBRANCH  26  27
ENDBRANCH  25  26
ENDBRANCH   2  25
BRANCH   5  31
ATOM     31  O   UNL     1       0.821  13.282  21.062  0.00  0.00    +0.000 OA
BRANCH  31  32
ATOM     32  C   UNL     1       0.555  14.405  21.917  0.00  0.00    +0.000 C 
ATOM     33  C   UNL     1       0.299  15.687  21.133  0.00  0.00    +0.000 C 
ATOM     34  C   UNL     1      -0.639  14.092  22.815  0.00  0.00    +0.000 C 
ENDBRANCH  31  32
ENDBRANCH   5  31
TORSDOF 8
ENDMDL
MODEL 2
REMARK VINA RESULT:      -6.5      2.921      4.753
REMARK  Name = 
REMARK  13 active torsions:
REMARK  status: ('A' for Active; 'I' for Inactive)
REMARK    1  A    between atoms: C_1  and  C_2
REMARK    2  A    between atoms: C_2  and  C_3
REMARK    3  A    between atoms: C_2  and  O_4
REMARK    4  A    between atoms: O_4  and  C_5
REMARK    5  A    between atoms: C_6  and  C_7
REMARK    6  A    between atoms: C_7  and  O_8
REMARK    7  A    between atoms: O_8  and  P_9
REMARK    8  A    between atoms: C_13  and  N_14
REMARK    9  A    between atoms: N_16  and  C_17
REMARK   10  A    between atoms: C_26  and  O_27
REMARK   11  A    between atoms: O_27  and  C_28
REMARK   12  A    between atoms: C_28  and  C_29
REMARK   13  A    between atoms: C_28  and  C_30
REMARK                            x       y       z     vdW  Elec       q    Type
REMARK                         _______ _______ _______ _____ _____    ______ ____
ROOT
ATOM      1  C   UNL     1      -0.760  11.264  20.560  0.00  0.00    +0.000 C 
ATOM      2  C   UNL     1      -0.925  11.723  19.103  0.00  0.00    +0.000 C 
ATOM      3  O   UNL     1      -1.877  12.828  19.156  0.00  0.00    +0.000 OA
ATOM      4  C   UNL     1      -1.916  13.317  20.488  0.00  0.00    +0.000 C 
ATOM      5  C   UNL     1      -0.788  12.633  21.264  0.00  0.00    +0.000 C 
ENDROOT
BRANCH   4   6
ATOM      6  N   UNL     1      -3.279  13.151  20.996  0.00  0.00    +0.000 N 
ATOM      7  C   UNL     1      -4.227  12.538  20.268  0.00  0.00    +0.000 A 
ATOM      8  N   UNL     1      -5.345  12.464  21.004  0.00  0.00    +0.000 N 
ATOM      9  C   UNL     1      -6.603  11.862  20.596  0.00  0.00    +0.000 C 
ATOM     10  C   UNL     1      -5.065  12.948  22.276  0.00  0.00    +0.000 A 
ATOM     11  C   UNL     1      -5.841  13.004  23.471  0.00  0.00    +0.000 A 
ATOM     12  O   UNL     1      -7.003  12.676  23.660  0.00  0.00    +0.000 OA
ATOM     13  N   UNL     1      -5.075  13.533  24.502  0.00  0.00    +0.000 N 
ATOM     14  C   UNL     1      -3.812  14.061  24.375  0.00  0.00    +0.000 A 
ATOM     15  N   UNL     1      -3.276  14.592  25.490  0.00  0.00    +0.000 N 
ATOM     16  N   UNL     1      -3.148  14.080  23.258  0.00  0.00    +0.000 NA
ATOM     17  C   UNL     1      -3.787  13.449  22.248  0.00  0.00    +0.000 A 
ATOM     18  H   UNL     1      -5.533  13.555  25.403  0.00  0.00    +0.000 HD
ATOM     19  H   UNL     1      -3.774  14.706  26.363  0.00  0.00    +0.000 HD
ATOM     20  H   UNL     1      -2.382  15.066  25.419  0.00  0.00    +0.000 HD
ENDBRANCH   4   6
BRANCH   1  21
ATOM     21  O   UNL     1       0.370  10.435  20.855  0.00  0.00    +0.000 OA
BRANCH  21  23
ATOM     22  C   UNL     1       1.130   8.178  21.324  0.00  0.00    +0.000 C 
ATOM     23  C   UNL     1       0.052   9.232  21.589  0.00  0.00    +0.000 C 
ATOM     24  C   UNL     1      -0.025   9.464  23.096  0.00  0.00    +0.000 C 
ENDBRANCH  21  23
ENDBRANCH   1  21
BRANCH   2  25
ATOM     25  C   UNL     1      -1.513  10.677  18.157  0.00  0.00    +0.000 C 
BRANCH  25  26
ATOM     26  O   UNL     1      -2.614  11.272  17.450  0.00  0.00    +0.000 OA
BRANCH  26  27
ATOM     27  P   UNL     1      -2.858  10.669  15.846  0.00  0.00    +0.000 P 
ATOM     28  O   UNL     1      -4.356  10.993  16.076  0.00  0.00    +0.000 OA
ATOM     29  O   UNL     1      -3.102  10.065  14.244  0.00  0.00    +0.000 OA
ATOM     30  H   UNL     1      -2.340   9.462  16.363  0.00  0.00    +0.000 HD
ENDBRANCH  26  27
ENDBRANCH  25  26
ENDBRANCH   2  25
BRANCH   5  31
ATOM     31  O   UNL     1       0.486  13.319  21.138  0.00  0.00    +0.000 OA
BRANCH  31  32
ATOM     32  C   UNL     1       0.425  14.743  20.960  0.00  0.00    +0.000 C 
ATOM     33  C   UNL     1       0.949  15.505  22.171  0.00  0.00    +0.000 C 
ATOM     34  C   UNL     1       1.211  15.137  19.712  0.00  0.00    +0.000 C 
ENDBRANCH  31  32
ENDBRANCH   5  31
TORSDOF 8
ENDMDL
MODEL 3
REMARK VINA RESULT:      -6.4      3.051      4.773
REMARK  Name = 
REMARK  13 active torsions:
REMARK  status: ('A' for Active; 'I' for Inactive)
REMARK    1  A    between atoms: C_1  and  C_2
REMARK    2  A    between atoms: C_2  and  C_3
REMARK    3  A    between atoms: C_2  and  O_4
REMARK    4  A    between atoms: O_4  and  C_5
REMARK    5  A    between atoms: C_6  and  C_7
REMARK    6  A    between atoms: C_7  and  O_8
REMARK    7  A    between atoms: O_8  and  P_9
REMARK    8  A    between atoms: C_13  and  N_14
REMARK    9  A    between atoms: N_16  and  C_17
REMARK   10  A    between atoms: C_26  and  O_27
REMARK   11  A    between atoms: O_27  and  C_28
REMARK   12  A    between atoms: C_28  and  C_29
REMARK   13  A    between atoms: C_28  and  C_30
REMARK                            x       y       z     vdW  Elec       q    Type
REMARK                         _______ _______ _______ _____ _____    ______ ____
ROOT
ATOM      1  C   UNL     1      -1.127  11.594  20.694  0.00  0.00    +0.000 C 
ATOM      2  C   UNL     1      -1.457  11.589  19.193  0.00  0.00    +0.000 C 
ATOM      3  O   UNL     1      -2.608  12.477  19.052  0.00  0.00    +0.000 OA
ATOM      4  C   UNL     1      -2.674  13.304  20.204  0.00  0.00    +0.000 C 
ATOM      5  C   UNL     1      -1.393  13.078  21.009  0.00  0.00    +0.000 C 
ENDROOT
BRANCH   4   6
ATOM      6  N   UNL     1      -3.948  13.047  20.878  0.00  0.00    +0.000 N 
ATOM      7  C   UNL     1      -4.942  12.384  20.265  0.00  0.00    +0.000 A 
ATOM      8  N   UNL     1      -5.950  12.231  21.136  0.00  0.00    +0.000 N 
ATOM      9  C   UNL     1      -7.211  11.556  20.880  0.00  0.00    +0.000 C 
ATOM     10  C   UNL     1      -5.538  12.716  22.372  0.00  0.00    +0.000 A 
ATOM     11  C   UNL     1      -6.156  12.709  23.657  0.00  0.00    +0.000 A 
ATOM     12  O   UNL     1      -7.261  12.307  23.986  0.00  0.00    +0.000 OA
ATOM     13  N   UNL     1      -5.297  13.272  24.593  0.00  0.00    +0.000 N 
ATOM     14  C   UNL     1      -4.095  13.880  24.315  0.00  0.00    +0.000 A 
ATOM     15  N   UNL     1      -3.453  14.431  25.363  0.00  0.00    +0.000 N 
ATOM     16  N   UNL     1      -3.583  13.954  23.123  0.00  0.00    +0.000 NA
ATOM     17  C   UNL     1      -4.307  13.297  22.190  0.00  0.00    +0.000 A 
ATOM     18  H   UNL     1      -5.635  13.255  25.544  0.00  0.00    +0.000 HD
ATOM     19  H   UNL     1      -3.841  14.503  26.294  0.00  0.00    +0.000 HD
ATOM     20  H   UNL     1      -2.606  14.961  25.188  0.00  0.00    +0.000 HD
ENDBRANCH   4   6
BRANCH   1  21
ATOM     21  O   UNL     1       0.160  11.096  21.077  0.00  0.00    +0.000 OA
BRANCH  21  23
ATOM     22  C   UNL     1      -0.961  10.409  23.116  0.00  0.00    +0.000 C 
ATOM     23  C   UNL     1       0.124  10.069  22.091  0.00  0.00    +0.000 C 
ATOM     24  C   UNL     1      -0.180   8.686  21.519  0.00  0.00    +0.000 C 
ENDBRANCH  21  23
ENDBRANCH   1  21
BRANCH   2  25
ATOM     25  C   UNL     1      -1.872  10.233  18.625  0.00  0.00    +0.000 C 
BRANCH  25  26
ATOM     26  O   UNL     1      -3.083  10.408  17.871  0.00  0.00    +0.000 OA
BRANCH  26  27
ATOM     27  P   UNL     1      -2.887  10.328  16.154  0.00  0.00    +0.000 P 
ATOM     28  O   UNL     1      -4.111  11.277  16.085  0.00  0.00    +0.000 OA
ATOM     29  O   UNL     1      -2.693  10.246  14.437  0.00  0.00    +0.000 OA
ATOM     30  H   UNL     1      -3.113   8.945  16.325  0.00  0.00    +0.000 HD
ENDBRANCH  26  27
ENDBRANCH  25  26
ENDBRANCH   2  25
BRANCH   5  31
ATOM     31  O   UNL     1      -0.290  13.917  20.572  0.00  0.00    +0.000 OA
BRANCH  31  32
ATOM     32  C   UNL     1      -0.638  15.234  20.118  0.00  0.00    +0.000 C 
ATOM     33  C   UNL     1      -0.398  16.300  21.181  0.00  0.00    +0.000 C 
ATOM     34  C   UNL     1       0.154  15.565  18.855  0.00  0.00    +0.000 C 
ENDBRANCH  31  32
ENDBRANCH   5  31
TORSDOF 8
ENDMDL
MODEL 4
REMARK VINA RESULT:      -6.4      2.480      3.529
REMARK  Name = 
REMARK  13 active torsions:
REMARK  status: ('A' for Active; 'I' for Inactive)
REMARK    1  A    between atoms: C_1  and  C_2
REMARK    2  A    between atoms: C_2  and  C_3
REMARK    3  A    between atoms: C_2  and  O_4
REMARK    4  A    between atoms: O_4  and  C_5
REMARK    5  A    between atoms: C_6  and  C_7
REMARK    6  A    between atoms: C_7  and  O_8
REMARK    7  A    between atoms: O_8  and  P_9
REMARK    8  A    between atoms: C_13  and  N_14
REMARK    9  A    between atoms: N_16  and  C_17
REMARK   10  A    between atoms: C_26  and  O_27
REMARK   11  A    between atoms: O_27  and  C_28
REMARK   12  A    between atoms: C_28  and  C_29
REMARK   13  A    between atoms: C_28  and  C_30
REMARK                            x       y       z     vdW  Elec       q    Type
REMARK                         _______ _______ _______ _____ _____    ______ ____
ROOT
ATOM      1  C   UNL     1      -0.832  10.948  20.290  0.00  0.00    +0.000 C 
ATOM      2  C   UNL     1      -1.129  11.238  18.810  0.00  0.00    +0.000 C 
ATOM      3  O   UNL     1      -2.129  12.301  18.823  0.00  0.00    +0.000 OA
ATOM      4  C   UNL     1      -2.092  12.930  20.095  0.00  0.00    +0.000 C 
ATOM      5  C   UNL     1      -0.876  12.383  20.846  0.00  0.00    +0.000 C 
ENDROOT
BRANCH   4   6
ATOM      6  N   UNL     1      -3.404  12.763  20.725  0.00  0.00    +0.000 N 
ATOM      7  C   UNL     1      -3.578  12.966  22.040  0.00  0.00    +0.000 A 
ATOM      8  N   UNL     1      -4.880  12.815  22.324  0.00  0.00    +0.000 N 
ATOM      9  C   UNL     1      -5.497  12.963  23.631  0.00  0.00    +0.000 C 
ATOM     10  C   UNL     1      -5.568  12.617  21.132  0.00  0.00    +0.000 A 
ATOM     11  C   UNL     1      -6.958  12.507  20.836  0.00  0.00    +0.000 A 
ATOM     12  O   UNL     1      -7.916  12.507  21.593  0.00  0.00    +0.000 OA
ATOM     13  N   UNL     1      -7.136  12.373  19.465  0.00  0.00    +0.000 N 
ATOM     14  C   UNL     1      -6.133  12.222  18.537  0.00  0.00    +0.000 A 
ATOM     15  N   UNL     1      -6.528  12.031  17.263  0.00  0.00    +0.000 N 
ATOM     16  N   UNL     1      -4.868  12.240  18.833  0.00  0.00    +0.000 NA
ATOM     17  C   UNL     1      -4.629  12.509  20.135  0.00  0.00    +0.000 A 
ATOM     18  H   UNL     1      -8.099  12.346  19.162  0.00  0.00    +0.000 HD
ATOM     19  H   UNL     1      -7.489  11.901  16.978  0.00  0.00    +0.000 HD
ATOM     20  H   UNL     1      -5.822  11.832  16.562  0.00  0.00    +0.000 HD
ENDBRANCH   4   6
BRANCH   1  21
ATOM     21  O   UNL     1       0.358  10.204  20.578  0.00  0.00    +0.000 OA
BRANCH  21  23
ATOM     22  C   UNL     1       1.307   8.058  21.196  0.00  0.00    +0.000 C 
ATOM     23  C   UNL     1       0.145   9.034  21.398  0.00  0.00    +0.000 C 
ATOM     24  C   UNL     1       0.056   9.364  22.886  0.00  0.00    +0.000 C 
ENDBRANCH  21  23
ENDBRANCH   1  21
BRANCH   2  25
ATOM     25  C   UNL     1      -1.732  10.072  18.029  0.00  0.00    +0.000 C 
BRANCH  25  26
ATOM     26  O   UNL     1      -2.880  10.552  17.310  0.00  0.00    +0.000 OA
BRANCH  26  27
ATOM     27  P   UNL     1      -2.822  10.302  15.599  0.00  0.00    +0.000 P 
ATOM     28  O   UNL     1      -4.303  10.761  15.598  0.00  0.00    +0.000 OA
ATOM     29  O   UNL     1      -2.765  10.051  13.889  0.00  0.00    +0.000 OA
ATOM     30  H   UNL     1      -2.530   8.964  15.937  0.00  0.00    +0.000 HD
ENDBRANCH  26  27
ENDBRANCH  25  26
ENDBRANCH   2  25
BRANCH   5  31
ATOM     31  O   UNL     1       0.349  13.105  20.546  0.00  0.00    +0.000 OA
BRANCH  31  32
ATOM     32  C   UNL     1       0.248  14.537  20.507  0.00  0.00    +0.000 C 
ATOM     33  C   UNL     1       0.929  15.202  21.697  0.00  0.00    +0.000 C 
ATOM     34  C   UNL     1       0.845  15.057  19.203  0.00  0.00    +0.000 C 
ENDBRANCH  31  32
ENDBRANCH   5  31
TORSDOF 8
ENDMDL
MODEL 5
REMARK VINA RESULT:      -6.3      1.988      3.660
REMARK  Name = 
REMARK  13 active torsions:
REMARK  status: ('A' for Active; 'I' for Inactive)
REMARK    1  A    between atoms: C_1  and  C_2
REMARK    2  A    between atoms: C_2  and  C_3
REMARK    3  A    between atoms: C_2  and  O_4
REMARK    4  A    between atoms: O_4  and  C_5
REMARK    5  A    between atoms: C_6  and  C_7
REMARK    6  A    between atoms: C_7  and  O_8
REMARK    7  A    between atoms: O_8  and  P_9
REMARK    8  A    between atoms: C_13  and  N_14
REMARK    9  A    between atoms: N_16  and  C_17
REMARK   10  A    between atoms: C_26  and  O_27
REMARK   11  A    between atoms: O_27  and  C_28
REMARK   12  A    between atoms: C_28  and  C_29
REMARK   13  A    between atoms: C_28  and  C_30
REMARK                            x       y       z     vdW  Elec       q    Type
REMARK                         _______ _______ _______ _____ _____    ______ ____
ROOT
ATOM      1  C   UNL     1      -0.531  11.877  21.257  0.00  0.00    +0.000 C 
ATOM      2  C   UNL     1      -0.123  12.911  20.195  0.00  0.00    +0.000 C 
ATOM      3  O   UNL     1      -1.299  13.758  20.015  0.00  0.00    +0.000 OA
ATOM      4  C   UNL     1      -2.139  13.598  21.148  0.00  0.00    +0.000 C 
ATOM      5  C   UNL     1      -1.366  12.780  22.185  0.00  0.00    +0.000 C 
ENDROOT
BRANCH   4   6
ATOM      6  N   UNL     1      -3.424  13.065  20.691  0.00  0.00    +0.000 N 
ATOM      7  C   UNL     1      -3.556  12.499  19.480  0.00  0.00    +0.000 A 
ATOM      8  N   UNL     1      -4.810  12.039  19.362  0.00  0.00    +0.000 N 
ATOM      9  C   UNL     1      -5.365  11.346  18.212  0.00  0.00    +0.000 C 
ATOM     10  C   UNL     1      -5.460  12.221  20.577  0.00  0.00    +0.000 A 
ATOM     11  C   UNL     1      -6.750  11.827  21.041  0.00  0.00    +0.000 A 
ATOM     12  O   UNL     1      -7.651  11.259  20.444  0.00  0.00    +0.000 OA
ATOM     13  N   UNL     1      -6.904  12.202  22.370  0.00  0.00    +0.000 N 
ATOM     14  C   UNL     1      -6.019  12.963  23.097  0.00  0.00    +0.000 A 
ATOM     15  N   UNL     1      -6.398  13.277  24.350  0.00  0.00    +0.000 N 
ATOM     16  N   UNL     1      -4.883  13.388  22.632  0.00  0.00    +0.000 NA
ATOM     17  C   UNL     1      -4.612  12.934  21.389  0.00  0.00    +0.000 A 
ATOM     18  H   UNL     1      -7.772  11.910  22.796  0.00  0.00    +0.000 HD
ATOM     19  H   UNL     1      -7.309  13.071  24.739  0.00  0.00    +0.000 HD
ATOM     20  H   UNL     1      -5.813  13.906  24.890  0.00  0.00    +0.000 HD
ENDBRANCH   4   6
BRANCH   1  21
ATOM     21  O   UNL     1       0.525  11.144  21.887  0.00  0.00    +0.000 OA
BRANCH  21  23
ATOM     22  C   UNL     1       1.498   8.921  21.861  0.00  0.00    +0.000 C 
ATOM     23  C   UNL     1       0.232   9.747  22.105  0.00  0.00    +0.000 C 
ATOM     24  C   UNL     1      -0.254   9.460  23.524  0.00  0.00    +0.000 C 
ENDBRANCH  21  23
ENDBRANCH   1  21
BRANCH   2  25
ATOM     25  C   UNL     1       0.220  12.331  18.825  0.00  0.00    +0.000 C 
BRANCH  25  26
ATOM     26  O   UNL     1      -0.148  10.942  18.814  0.00  0.00    +0.000 OA
BRANCH  26  27
ATOM     27  P   UNL     1       1.027   9.885  18.110  0.00  0.00    +0.000 P 
ATOM     28  O   UNL     1       2.021  11.061  18.284  0.00  0.00    +0.000 OA
ATOM     29  O   UNL     1       2.201   8.829  17.405  0.00  0.00    +0.000 OA
ATOM     30  H   UNL     1       0.165   9.887  16.992  0.00  0.00    +0.000 HD
ENDBRANCH  26  27
ENDBRANCH  25  26
ENDBRANCH   2  25
BRANCH   5  31
ATOM     31  O   UNL     1      -0.516  13.596  23.034  0.00  0.00    +0.000 OA
BRANCH  31  32
ATOM     32  C   UNL     1      -0.978  14.930  23.300  0.00  0.00    +0.000 C 
ATOM     33  C   UNL     1      -1.409  15.121  24.749  0.00  0.00    +0.000 C 
ATOM     34  C   UNL     1       0.117  15.931  22.941  0.00  0.00    +0.000 C 
ENDBRANCH  31  32
ENDBRANCH   5  31
TORSDOF 8
ENDMDL
MODEL 6
REMARK VINA RESULT:      -6.2      2.881      3.713
REMARK  Name = 
REMARK  13 active torsions:
REMARK  status: ('A' for Active; 'I' for Inactive)
REMARK    1  A    between atoms: C_1  and  C_2
REMARK    2  A    between atoms: C_2  and  C_3
REMARK    3  A    between atoms: C_2  and  O_4
REMARK    4  A    between atoms: O_4  and  C_5
REMARK    5  A    between atoms: C_6  and  C_7
REMARK    6  A    between atoms: C_7  and  O_8
REMARK    7  A    between atoms: O_8  and  P_9
REMARK    8  A    between atoms: C_13  and  N_14
REMARK    9  A    between atoms: N_16  and  C_17
REMARK   10  A    between atoms: C_26  and  O_27
REMARK   11  A    between atoms: O_27  and  C_28
REMARK   12  A    between atoms: C_28  and  C_29
REMARK   13  A    between atoms: C_28  and  C_30
REMARK                            x       y       z     vdW  Elec       q    Type
REMARK                         _______ _______ _______ _____ _____    ______ ____
ROOT
ATOM      1  C   UNL     1      -0.061  11.390  21.330  0.00  0.00    +0.000 C 
ATOM      2  C   UNL     1      -0.398  11.749  19.874  0.00  0.00    +0.000 C 
ATOM      3  O   UNL     1      -1.457  12.749  19.963  0.00  0.00    +0.000 OA
ATOM      4  C   UNL     1      -1.437  13.303  21.269  0.00  0.00    +0.000 C 
ATOM      5  C   UNL     1      -0.179  12.786  21.970  0.00  0.00    +0.000 C 
ENDROOT
BRANCH   4   6
ATOM      6  N   UNL     1      -2.726  13.023  21.904  0.00  0.00    +0.000 N 
ATOM      7  C   UNL     1      -2.816  12.761  23.218  0.00  0.00    +0.000 A 
ATOM      8  N   UNL     1      -4.110  12.618  23.535  0.00  0.00    +0.000 N 
ATOM      9  C   UNL     1      -4.646  12.341  24.857  0.00  0.00    +0.000 C 
ATOM     10  C   UNL     1      -4.871  12.906  22.408  0.00  0.00    +0.000 A 
ATOM     11  C   UNL     1      -6.279  13.012  22.204  0.00  0.00    +0.000 A 
ATOM     12  O   UNL     1      -7.194  12.816  22.988  0.00  0.00    +0.000 OA
ATOM     13  N   UNL     1      -6.535  13.385  20.890  0.00  0.00    +0.000 N 
ATOM     14  C   UNL     1      -5.598  13.496  19.890  0.00  0.00    +0.000 A 
ATOM     15  N   UNL     1      -6.071  13.797  18.666  0.00  0.00    +0.000 N 
ATOM     16  N   UNL     1      -4.325  13.313  20.072  0.00  0.00    +0.000 NA
ATOM     17  C   UNL     1      -3.998  13.087  21.363  0.00  0.00    +0.000 A 
ATOM     18  H   UNL     1      -7.510  13.538  20.675  0.00  0.00    +0.000 HD
ATOM     19  H   UNL     1      -7.053  13.849  18.431  0.00  0.00    +0.000 HD
ATOM     20  H   UNL     1      -5.424  13.806  17.885  0.00  0.00    +0.000 HD
ENDBRANCH   4   6
BRANCH   1  21
ATOM     21  O   UNL     1       1.173  10.701  21.559  0.00  0.00    +0.000 OA
BRANCH  21  23
ATOM     22  C   UNL     1      -0.318   9.343  22.907  0.00  0.00    +0.000 C 
ATOM     23  C   UNL     1       1.027   9.406  22.179  0.00  0.00    +0.000 C 
ATOM     24  C   UNL     1       1.075   8.260  21.170  0.00  0.00    +0.000 C 
ENDBRANCH  21  23
ENDBRANCH   1  21
BRANCH   2  25
ATOM     25  C   UNL     1      -0.946  10.597  19.033  0.00  0.00    +0.000 C 
BRANCH  25  26
ATOM     26  O   UNL     1      -2.291  10.920  18.641  0.00  0.00    +0.000 OA
BRANCH  26  27
ATOM     27  P   UNL     1      -2.578  10.886  16.935  0.00  0.00    +0.000 P 
ATOM     28  O   UNL     1      -1.631   9.658  16.916  0.00  0.00    +0.000 OA
ATOM     29  O   UNL     1      -2.864  10.853  15.230  0.00  0.00    +0.000 OA
ATOM     30  H   UNL     1      -2.010  12.177  16.947  0.00  0.00    +0.000 HD
ENDBRANCH  26  27
ENDBRANCH  25  26
ENDBRANCH   2  25
BRANCH   5  31
ATOM     31  O   UNL     1       0.998  13.594  21.699  0.00  0.00    +0.000 OA
BRANCH  31  32
ATOM     32  C   UNL     1       0.757  14.963  21.339  0.00  0.00    +0.000 C 
ATOM     33  C   UNL     1       1.213  15.938  22.418  0.00  0.00    +0.000 C 
ATOM     34  C   UNL     1       1.456  15.276  20.019  0.00  0.00    +0.000 C 
ENDBRANCH  31  32
ENDBRANCH   5  31
TORSDOF 8
ENDMDL
MODEL 7
REMARK VINA RESULT:      -6.2      2.955      5.591
REMARK  Name = 
REMARK  13 active torsions:
REMARK  status: ('A' for Active; 'I' for Inactive)
REMARK    1  A    between atoms: C_1  and  C_2
REMARK    2  A    between atoms: C_2  and  C_3
REMARK    3  A    between atoms: C_2  and  O_4
REMARK    4  A    between atoms: O_4  and  C_5
REMARK    5  A    between atoms: C_6  and  C_7
REMARK    6  A    between atoms: C_7  and  O_8
REMARK    7  A    between atoms: O_8  and  P_9
REMARK    8  A    between atoms: C_13  and  N_14
REMARK    9  A    between atoms: N_16  and  C_17
REMARK   10  A    between atoms: C_26  and  O_27
REMARK   11  A    between atoms: O_27  and  C_28
REMARK   12  A    between atoms: C_28  and  C_29
REMARK   13  A    between atoms: C_28  and  C_30
REMARK                            x       y       z     vdW  Elec       q    Type
REMARK                         _______ _______ _______ _____ _____    ______ ____
ROOT
ATOM      1  C   UNL     1      -0.630  11.182  18.661  0.00  0.00    +0.000 C 
ATOM      2  C   UNL     1       0.354  10.332  19.482  0.00  0.00    +0.000 C 
ATOM      3  O   UNL     1       1.112  11.291  20.280  0.00  0.00    +0.000 OA
ATOM      4  C   UNL     1       0.379  12.505  20.331  0.00  0.00    +0.000 C 
ATOM      5  C   UNL     1      -0.999  12.239  19.719  0.00  0.00    +0.000 C 
ENDROOT
BRANCH   4   6
ATOM      6  N   UNL     1       1.195  13.557  19.723  0.00  0.00    +0.000 N 
ATOM      7  C   UNL     1       2.471  13.336  19.368  0.00  0.00    +0.000 A 
ATOM      8  N   UNL     1       2.944  14.441  18.775  0.00  0.00    +0.000 N 
ATOM      9  C   UNL     1       4.278  14.618  18.229  0.00  0.00    +0.000 C 
ATOM     10  C   UNL     1       1.902  15.353  18.654  0.00  0.00    +0.000 A 
ATOM     11  C   UNL     1       1.814  16.627  18.018  0.00  0.00    +0.000 A 
ATOM     12  O   UNL     1       2.680  17.274  17.451  0.00  0.00    +0.000 OA
ATOM     13  N   UNL     1       0.519  17.117  18.129  0.00  0.00    +0.000 N 
ATOM     14  C   UNL     1      -0.496  16.545  18.860  0.00  0.00    +0.000 A 
ATOM     15  N   UNL     1      -1.657  17.226  18.895  0.00  0.00    +0.000 N 
ATOM     16  N   UNL     1      -0.376  15.424  19.505  0.00  0.00    +0.000 NA
ATOM     17  C   UNL     1       0.821  14.826  19.318  0.00  0.00    +0.000 A 
ATOM     18  H   UNL     1       0.354  17.993  17.655  0.00  0.00    +0.000 HD
ATOM     19  H   UNL     1      -1.788  18.150  18.507  0.00  0.00    +0.000 HD
ATOM     20  H   UNL     1      -2.403  16.881  19.491  0.00  0.00    +0.000 HD
ENDBRANCH   4   6
BRANCH   1  21
ATOM     21  O   UNL     1      -1.732  10.496  18.056  0.00  0.00    +0.000 OA
BRANCH  21  23
ATOM     22  C   UNL     1      -2.642  10.707  15.817  0.00  0.00    +0.000 C 
ATOM     23  C   UNL     1      -2.561  11.325  17.215  0.00  0.00    +0.000 C 
ATOM     24  C   UNL     1      -3.984  11.473  17.751  0.00  0.00    +0.000 C 
ENDBRANCH  21  23
ENDBRANCH   1  21
BRANCH   2  25
ATOM     25  C   UNL     1       1.368   9.540  18.659  0.00  0.00    +0.000 C 
BRANCH  25  26
ATOM     26  O   UNL     1       1.793   8.405  19.432  0.00  0.00    +0.000 OA
BRANCH  26  27
ATOM     27  P   UNL     1       2.610   7.176  18.530  0.00  0.00    +0.000 P 
ATOM     28  O   UNL     1       2.839   8.275  17.460  0.00  0.00    +0.000 OA
ATOM     29  O   UNL     1       3.426   5.948  17.626  0.00  0.00    +0.000 OA
ATOM     30  H   UNL     1       1.366   6.511  18.560  0.00  0.00    +0.000 HD
ENDBRANCH  26  27
ENDBRANCH  25  26
ENDBRANCH   2  25
BRANCH   5  31
ATOM     31  O   UNL     1      -1.956  11.716  20.678  0.00  0.00    +0.000 OA
BRANCH  31  32
ATOM     32  C   UNL     1      -2.005  12.379  21.951  0.00  0.00    +0.000 C 
ATOM     33  C   UNL     1      -3.379  12.969  22.249  0.00  0.00    +0.000 C 
ATOM     34  C   UNL     1      -1.603  11.402  23.053  0.00  0.00    +0.000 C 
ENDBRANCH  31  32
ENDBRANCH   5  31
TORSDOF 8
ENDMDL
MODEL 8
REMARK VINA RESULT:      -6.2      3.909      6.698
REMARK  Name = 
REMARK  13 active torsions:
REMARK  status: ('A' for Active; 'I' for Inactive)
REMARK    1  A    between atoms: C_1  and  C_2
REMARK    2  A    between atoms: C_2  and  C_3
REMARK    3  A    between atoms: C_2  and  O_4
REMARK    4  A    between atoms: O_4  and  C_5
REMARK    5  A    between atoms: C_6  and  C_7
REMARK    6  A    between atoms: C_7  and  O_8
REMARK    7  A    between atoms: O_8  and  P_9
REMARK    8  A    between atoms: C_13  and  N_14
REMARK    9  A    between atoms: N_16  and  C_17
REMARK   10  A    between atoms: C_26  and  O_27
REMARK   11  A    between atoms: O_27  and  C_28
REMARK   12  A    between atoms: C_28  and  C_29
REMARK   13  A    between atoms: C_28  and  C_30
REMARK                            x       y       z     vdW  Elec       q    Type
REMARK                         _______ _______ _______ _____ _____    ______ ____
ROOT
ATOM      1  C   UNL     1      -0.508  11.402  20.665  0.00  0.00    +0.000 C 
ATOM      2  C   UNL     1      -1.575  12.337  21.256  0.00  0.00    +0.000 C 
ATOM      3  O   UNL     1      -1.581  13.508  20.384  0.00  0.00    +0.000 OA
ATOM      4  C   UNL     1      -0.976  13.148  19.153  0.00  0.00    +0.000 C 
ATOM      5  C   UNL     1      -0.770  11.631  19.165  0.00  0.00    +0.000 C 
ENDROOT
BRANCH   4   6
ATOM      6  N   UNL     1       0.208  13.988  18.962  0.00  0.00    +0.000 N 
ATOM      7  C   UNL     1       1.437  13.454  18.876  0.00  0.00    +0.000 A 
ATOM      8  N   UNL     1       2.312  14.440  18.631  0.00  0.00    +0.000 N 
ATOM      9  C   UNL     1       3.746  14.291  18.452  0.00  0.00    +0.000 C 
ATOM     10  C   UNL     1       1.601  15.620  18.450  0.00  0.00    +0.000 A 
ATOM     11  C   UNL     1       2.007  16.933  18.067  0.00  0.00    +0.000 A 
ATOM     12  O   UNL     1       3.127  17.368  17.850  0.00  0.00    +0.000 OA
ATOM     13  N   UNL     1       0.893  17.757  17.969  0.00  0.00    +0.000 N 
ATOM     14  C   UNL     1      -0.391  17.417  18.321  0.00  0.00    +0.000 A 
ATOM     15  N   UNL     1      -1.313  18.393  18.218  0.00  0.00    +0.000 N 
ATOM     16  N   UNL     1      -0.733  16.239  18.750  0.00  0.00    +0.000 NA
ATOM     17  C   UNL     1       0.284  15.350  18.733  0.00  0.00    +0.000 A 
ATOM     18  H   UNL     1       1.086  18.695  17.646  0.00  0.00    +0.000 HD
ATOM     19  H   UNL     1      -1.101  19.356  17.994  0.00  0.00    +0.000 HD
ATOM     20  H   UNL     1      -2.254  18.207  18.547  0.00  0.00    +0.000 HD
ENDBRANCH   4   6
BRANCH   1  21
ATOM     21  O   UNL     1      -0.530  10.037  21.100  0.00  0.00    +0.000 OA
BRANCH  21  23
ATOM     22  C   UNL     1       0.114   9.432  23.359  0.00  0.00    +0.000 C 
ATOM     23  C   UNL     1       0.594   9.656  21.923  0.00  0.00    +0.000 C 
ATOM     24  C   UNL     1       1.270   8.374  21.443  0.00  0.00    +0.000 C 
ENDBRANCH  21  23
ENDBRANCH   1  21
BRANCH   2  25
ATOM     25  C   UNL     1      -1.287  12.838  22.670  0.00  0.00    +0.000 C 
BRANCH  25  26
ATOM     26  O   UNL     1      -2.381  13.670  23.089  0.00  0.00    +0.000 OA
BRANCH  26  27
ATOM     27  P   UNL     1      -3.671  12.830  23.879  0.00  0.00    +0.000 P 
ATOM     28  O   UNL     1      -3.565  13.928  24.969  0.00  0.00    +0.000 OA
ATOM     29  O   UNL     1      -4.959  11.990  24.670  0.00  0.00    +0.000 OA
ATOM     30  H   UNL     1      -2.766  11.748  23.919  0.00  0.00    +0.000 HD
ENDBRANCH  26  27
ENDBRANCH  25  26
ENDBRANCH   2  25
BRANCH   5  31
ATOM     31  O   UNL     1      -1.937  10.894  18.712  0.00  0.00    +0.000 OA
BRANCH  31  32
ATOM     32  C   UNL     1      -2.536  11.346  17.488  0.00  0.00    +0.000 C 
ATOM     33  C   UNL     1      -2.349  10.353  16.346  0.00  0.00    +0.000 C 
ATOM     34  C   UNL     1      -4.022  11.613  17.713  0.00  0.00    +0.000 C 
ENDBRANCH  31  32
ENDBRANCH   5  31
TORSDOF 8
ENDMDL
MODEL 9
REMARK VINA RESULT:      -6.2      2.630      4.082
REMARK  Name = 
REMARK  13 active torsions:
REMARK  status: ('A' for Active; 'I' for Inactive)
REMARK    1  A    between atoms: C_1  and  C_2
REMARK    2  A    between atoms: C_2  and  C_3
REMARK    3  A    between atoms: C_2  and  O_4
REMARK    4  A    between atoms: O_4  and  C_5
REMARK    5  A    between atoms: C_6  and  C_7
REMARK    6  A    between atoms: C_7  and  O_8
REMARK    7  A    between atoms: O_8  and  P_9
REMARK    8  A    between atoms: C_13  and  N_14
REMARK    9  A    between atoms: N_16  and  C_17
REMARK   10  A    between atoms: C_26  and  O_27
REMARK   11  A    between atoms: O_27  and  C_28
REMARK   12  A    between atoms: C_28  and  C_29
REMARK   13  A    between atoms: C_28  and  C_30
REMARK                            x       y       z     vdW  Elec       q    Type
REMARK                         _______ _______ _______ _____ _____    ______ ____
ROOT
ATOM      1  C   UNL     1      -0.822  11.605  20.907  0.00  0.00    +0.000 C 
ATOM      2  C   UNL     1      -0.483  12.326  19.592  0.00  0.00    +0.000 C 
ATOM      3  O   UNL     1      -1.605  13.230  19.352  0.00  0.00    +0.000 OA
ATOM      4  C   UNL     1      -2.294  13.417  20.578  0.00  0.00    +0.000 C 
ATOM      5  C   UNL     1      -1.452  12.776  21.684  0.00  0.00    +0.000 C 
ENDROOT
BRANCH   4   6
ATOM      6  N   UNL     1      -3.666  12.934  20.410  0.00  0.00    +0.000 N 
ATOM      7  C   UNL     1      -4.072  12.368  19.261  0.00  0.00    +0.000 A 
ATOM      8  N   UNL     1      -5.339  11.958  19.415  0.00  0.00    +0.000 N 
ATOM      9  C   UNL     1      -6.150  11.282  18.417  0.00  0.00    +0.000 C 
ATOM     10  C   UNL     1      -5.711  12.173  20.737  0.00  0.00    +0.000 A 
ATOM     11  C   UNL     1      -6.888  11.834  21.467  0.00  0.00    +0.000 A 
ATOM     12  O   UNL     1      -7.916  11.299  21.080  0.00  0.00    +0.000 OA
ATOM     13  N   UNL     1      -6.744  12.221  22.794  0.00  0.00    +0.000 N 
ATOM     14  C   UNL     1      -5.697  12.949  23.308  0.00  0.00    +0.000 A 
ATOM     15  N   UNL     1      -5.792  13.285  24.609  0.00  0.00    +0.000 N 
ATOM     16  N   UNL     1      -4.669  13.326  22.609  0.00  0.00    +0.000 NA
ATOM     17  C   UNL     1      -4.684  12.855  21.343  0.00  0.00    +0.000 A 
ATOM     18  H   UNL     1      -7.513  11.966  23.396  0.00  0.00    +0.000 HD
ATOM     19  H   UNL     1      -6.607  13.118  25.183  0.00  0.00    +0.000 HD
ATOM     20  H   UNL     1      -5.082  13.892  25.005  0.00  0.00    +0.000 HD
ENDBRANCH   4   6
BRANCH   1  21
ATOM     21  O   UNL     1       0.250  10.924  21.568  0.00  0.00    +0.000 OA
BRANCH  21  23
ATOM     22  C   UNL     1       1.119   8.667  21.368  0.00  0.00    +0.000 C 
ATOM     23  C   UNL     1      -0.026   9.543  21.884  0.00  0.00    +0.000 C 
ATOM     24  C   UNL     1      -0.171   9.299  23.384  0.00  0.00    +0.000 C 
ENDBRANCH  21  23
ENDBRANCH   1  21
BRANCH   2  25
ATOM     25  C   UNL     1      -0.374  11.420  18.366  0.00  0.00    +0.000 C 
BRANCH  25  26
ATOM     26  O   UNL     1      -1.459  10.478  18.400  0.00  0.00    +0.000 OA
BRANCH  26  27
ATOM     27  P   UNL     1      -2.225  10.198  16.874  0.00  0.00    +0.000 P 
ATOM     28  O   UNL     1      -3.255   9.360  17.674  0.00  0.00    +0.000 OA
ATOM     29  O   UNL     1      -2.989   9.918  15.348  0.00  0.00    +0.000 OA
ATOM     30  H   UNL     1      -0.998   9.600  16.516  0.00  0.00    +0.000 HD
ENDBRANCH  26  27
ENDBRANCH  25  26
ENDBRANCH   2  25
BRANCH   5  31
ATOM     31  O   UNL     1      -0.436  13.667  22.215  0.00  0.00    +0.000 OA
BRANCH  31  32
ATOM     32  C   UNL     1      -0.833  15.032  22.419  0.00  0.00    +0.000 C 
ATOM     33  C   UNL     1      -1.020  15.371  23.894  0.00  0.00    +0.000 C 
ATOM     34  C   UNL     1       0.200  15.965  21.794  0.00  0.00    +0.000 C 
ENDBRANCH  31  32
ENDBRANCH   5  31
TORSDOF 8
ENDMDL
