MODEL 1
REMARK VINA RESULT:      -8.6      0.000      0.000
REMARK  Name = 
REMARK  5 active torsions:
REMARK  status: ('A' for Active; 'I' for Inactive)
REMARK    1  A    between atoms: C_1  and  C_2
REMARK    2  A    between atoms: C_5  and  C_6
REMARK    3  A    between atoms: C_6  and  N_7
REMARK    4  A    between atoms: C_8  and  C_9
REMARK    5  A    between atoms: C_14  and  N_15
REMARK                            x       y       z     vdW  Elec       q    Type
REMARK                         _______ _______ _______ _____ _____    ______ ____
ROOT
ATOM      1  N   UNL     1       5.762   5.093  17.205  0.00  0.00    +0.000 N 
ATOM      2  C   UNL     1       6.917   5.788  16.904  0.00  0.00    +0.000 A 
ATOM      3  C   UNL     1       7.610   6.632  17.953  0.00  0.00    +0.000 C 
ATOM      4  N   UNL     1       7.469   5.786  15.731  0.00  0.00    +0.000 NA
ATOM      5  C   UNL     1       6.904   5.018  14.712  0.00  0.00    +0.000 A 
ATOM      6  C   UNL     1       7.529   4.981  13.463  0.00  0.00    +0.000 A 
ATOM      7  C   UNL     1       7.020   4.184  12.432  0.00  0.00    +0.000 A 
ATOM      8  C   UNL     1       5.858   3.432  12.651  0.00  0.00    +0.000 A 
ATOM      9  C   UNL     1       5.204   3.482  13.884  0.00  0.00    +0.000 A 
ATOM     10  C   UNL     1       5.749   4.271  14.906  0.00  0.00    +0.000 A 
ATOM     11  C   UNL     1       5.115   4.333  16.229  0.00  0.00    +0.000 A 
ATOM     12  O   UNL     1       4.059   3.729  16.398  0.00  0.00    +0.000 OA
ENDROOT
BRANCH   8  13
ATOM     13  N   UNL     1       5.329   2.572  11.584  0.00  0.00    +0.000 N 
ATOM     14  O   UNL     1       6.017   1.601  11.237  0.00  0.00    +0.000 OA
ATOM     15  O   UNL     1       4.228   2.865  11.098  0.00  0.00    +0.000 OA
ENDBRANCH   8  13
BRANCH   1  16
ATOM     16  C   UNL     1       5.082   5.173  18.495  0.00  0.00    +0.000 C 
BRANCH  16  21
ATOM     17  C   UNL     1       1.076   9.378  18.988  0.00  0.00    +0.000 C 
ATOM     18  C   UNL     1       2.033   8.237  18.816  0.00  0.00    +0.000 A 
ATOM     19  C   UNL     1       2.123   7.220  19.769  0.00  0.00    +0.000 A 
ATOM     20  C   UNL     1       3.077   6.208  19.638  0.00  0.00    +0.000 A 
ATOM     21  C   UNL     1       3.956   6.185  18.546  0.00  0.00    +0.000 A 
ATOM     22  C   UNL     1       3.829   7.183  17.567  0.00  0.00    +0.000 A 
ATOM     23  C   UNL     1       2.885   8.203  17.706  0.00  0.00    +0.000 A 
ENDBRANCH  16  21
ENDBRANCH   1  16
TORSDOF 3
ENDMDL
MODEL 2
REMARK VINA RESULT:      -8.2      0.150      1.015
REMARK  Name = 
REMARK  5 active torsions:
REMARK  status: ('A' for Active; 'I' for Inactive)
REMARK    1  A    between atoms: C_1  and  C_2
REMARK    2  A    between atoms: C_5  and  C_6
REMARK    3  A    between atoms: C_6  and  N_7
REMARK    4  A    between atoms: C_8  and  C_9
REMARK    5  A    between atoms: C_14  and  N_15
REMARK                            x       y       z     vdW  Elec       q    Type
REMARK                         _______ _______ _______ _____ _____    ______ ____
ROOT
ATOM      1  N   UNL     1       5.725   5.079  17.208  0.00  0.00    +0.000 N 
ATOM      2  C   UNL     1       6.903   5.741  16.923  0.00  0.00    +0.000 A 
ATOM      3  C   UNL     1       7.608   6.560  17.983  0.00  0.00    +0.000 C 
ATOM      4  N   UNL     1       7.469   5.727  15.756  0.00  0.00    +0.000 NA
ATOM      5  C   UNL     1       6.894   4.979  14.728  0.00  0.00    +0.000 A 
ATOM      6  C   UNL     1       7.532   4.928  13.487  0.00  0.00    +0.000 A 
ATOM      7  C   UNL     1       7.012   4.150  12.446  0.00  0.00    +0.000 A 
ATOM      8  C   UNL     1       5.826   3.432  12.649  0.00  0.00    +0.000 A 
ATOM      9  C   UNL     1       5.159   3.496  13.874  0.00  0.00    +0.000 A 
ATOM     10  C   UNL     1       5.715   4.265  14.906  0.00  0.00    +0.000 A 
ATOM     11  C   UNL     1       5.068   4.342  16.222  0.00  0.00    +0.000 A 
ATOM     12  O   UNL     1       3.993   3.768  16.376  0.00  0.00    +0.000 OA
ENDROOT
BRANCH   8  13
ATOM     13  N   UNL     1       5.284   2.591  11.573  0.00  0.00    +0.000 N 
ATOM     14  O   UNL     1       5.955   1.608  11.221  0.00  0.00    +0.000 OA
ATOM     15  O   UNL     1       4.192   2.910  11.085  0.00  0.00    +0.000 OA
ENDBRANCH   8  13
BRANCH   1  16
ATOM     16  C   UNL     1       5.033   5.174  18.491  0.00  0.00    +0.000 C 
BRANCH  16  21
ATOM     17  C   UNL     1       0.883   9.266  18.540  0.00  0.00    +0.000 C 
ATOM     18  C   UNL     1       2.014   8.283  18.574  0.00  0.00    +0.000 A 
ATOM     19  C   UNL     1       2.968   8.245  17.554  0.00  0.00    +0.000 A 
ATOM     20  C   UNL     1       3.967   7.269  17.555  0.00  0.00    +0.000 A 
ATOM     21  C   UNL     1       4.042   6.316  18.582  0.00  0.00    +0.000 A 
ATOM     22  C   UNL     1       3.109   6.390  19.628  0.00  0.00    +0.000 A 
ATOM     23  C   UNL     1       2.101   7.356  19.619  0.00  0.00    +0.000 A 
ENDBRANCH  16  21
ENDBRANCH   1  16
TORSDOF 3
ENDMDL
MODEL 3
REMARK VINA RESULT:      -8.1      3.582      6.719
REMARK  Name = 
REMARK  5 active torsions:
REMARK  status: ('A' for Active; 'I' for Inactive)
REMARK    1  A    between atoms: C_1  and  C_2
REMARK    2  A    between atoms: C_5  and  C_6
REMARK    3  A    between atoms: C_6  and  N_7
REMARK    4  A    between atoms: C_8  and  C_9
REMARK    5  A    between atoms: C_14  and  N_15
REMARK                            x       y       z     vdW  Elec       q    Type
REMARK                         _______ _______ _______ _____ _____    ______ ____
ROOT
ATOM      1  N   UNL     1       1.103   9.468  19.469  0.00  0.00    +0.000 N 
ATOM      2  C   UNL     1       0.946   8.605  20.536  0.00  0.00    +0.000 A 
ATOM      3  C   UNL     1       0.044   8.962  21.698  0.00  0.00    +0.000 C 
ATOM      4  N   UNL     1       1.556   7.464  20.628  0.00  0.00    +0.000 NA
ATOM      5  C   UNL     1       2.391   7.050  19.590  0.00  0.00    +0.000 A 
ATOM      6  C   UNL     1       3.008   5.799  19.673  0.00  0.00    +0.000 A 
ATOM      7  C   UNL     1       3.814   5.329  18.629  0.00  0.00    +0.000 A 
ATOM      8  C   UNL     1       4.019   6.133  17.500  0.00  0.00    +0.000 A 
ATOM      9  C   UNL     1       3.434   7.398  17.416  0.00  0.00    +0.000 A 
ATOM     10  C   UNL     1       2.613   7.835  18.465  0.00  0.00    +0.000 A 
ATOM     11  C   UNL     1       1.952   9.144  18.410  0.00  0.00    +0.000 A 
ATOM     12  O   UNL     1       2.188   9.876  17.453  0.00  0.00    +0.000 OA
ENDROOT
BRANCH   8  13
ATOM     13  N   UNL     1       4.841   5.640  16.388  0.00  0.00    +0.000 N 
ATOM     14  O   UNL     1       5.388   6.483  15.660  0.00  0.00    +0.000 OA
ATOM     15  O   UNL     1       4.944   4.414  16.244  0.00  0.00    +0.000 OA
ENDBRANCH   8  13
BRANCH   1  16
ATOM     16  C   UNL     1       0.497  10.796  19.409  0.00  0.00    +0.000 C 
BRANCH  16  21
ATOM     17  C   UNL     1      -4.785  11.273  16.992  0.00  0.00    +0.000 C 
ATOM     18  C   UNL     1      -3.468  11.081  17.681  0.00  0.00    +0.000 A 
ATOM     19  C   UNL     1      -3.130  11.826  18.813  0.00  0.00    +0.000 A 
ATOM     20  C   UNL     1      -1.867  11.697  19.395  0.00  0.00    +0.000 A 
ATOM     21  C   UNL     1      -0.916  10.814  18.863  0.00  0.00    +0.000 A 
ATOM     22  C   UNL     1      -1.278  10.034  17.754  0.00  0.00    +0.000 A 
ATOM     23  C   UNL     1      -2.536  10.173  17.163  0.00  0.00    +0.000 A 
ENDBRANCH  16  21
ENDBRANCH   1  16
TORSDOF 3
ENDMDL
MODEL 4
REMARK VINA RESULT:      -7.9      3.867      6.669
REMARK  Name = 
REMARK  5 active torsions:
REMARK  status: ('A' for Active; 'I' for Inactive)
REMARK    1  A    between atoms: C_1  and  C_2
REMARK    2  A    between atoms: C_5  and  C_6
REMARK    3  A    between atoms: C_6  and  N_7
REMARK    4  A    between atoms: C_8  and  C_9
REMARK    5  A    between atoms: C_14  and  N_15
REMARK                            x       y       z     vdW  Elec       q    Type
REMARK                         _______ _______ _______ _____ _____    ______ ____
ROOT
ATOM      1  N   UNL     1       1.256   9.237  19.325  0.00  0.00    +0.000 N 
ATOM      2  C   UNL     1       1.045   8.654  20.559  0.00  0.00    +0.000 A 
ATOM      3  C   UNL     1       0.251   9.371  21.630  0.00  0.00    +0.000 C 
ATOM      4  N   UNL     1       1.511   7.490  20.889  0.00  0.00    +0.000 NA
ATOM      5  C   UNL     1       2.236   6.754  19.951  0.00  0.00    +0.000 A 
ATOM      6  C   UNL     1       2.695   5.480  20.296  0.00  0.00    +0.000 A 
ATOM      7  C   UNL     1       3.383   4.692  19.367  0.00  0.00    +0.000 A 
ATOM      8  C   UNL     1       3.632   5.198  18.084  0.00  0.00    +0.000 A 
ATOM      9  C   UNL     1       3.206   6.481  17.733  0.00  0.00    +0.000 A 
ATOM     10  C   UNL     1       2.499   7.239  18.676  0.00  0.00    +0.000 A 
ATOM     11  C   UNL     1       2.005   8.582  18.347  0.00  0.00    +0.000 A 
ATOM     12  O   UNL     1       2.284   9.051  17.246  0.00  0.00    +0.000 OA
ENDROOT
BRANCH   8  13
ATOM     13  N   UNL     1       4.331   4.370  17.092  0.00  0.00    +0.000 N 
ATOM     14  O   UNL     1       4.315   3.141  17.257  0.00  0.00    +0.000 OA
ATOM     15  O   UNL     1       4.891   4.947  16.149  0.00  0.00    +0.000 OA
ENDBRANCH   8  13
BRANCH   1  16
ATOM     16  C   UNL     1       0.819  10.589  18.984  0.00  0.00    +0.000 C 
BRANCH  16  21
ATOM     17  C   UNL     1      -4.704  11.425  17.319  0.00  0.00    +0.000 C 
ATOM     18  C   UNL     1      -3.319  11.142  17.818  0.00  0.00    +0.000 A 
ATOM     19  C   UNL     1      -2.785  11.845  18.900  0.00  0.00    +0.000 A 
ATOM     20  C   UNL     1      -1.464  11.631  19.302  0.00  0.00    +0.000 A 
ATOM     21  C   UNL     1      -0.652  10.701  18.637  0.00  0.00    +0.000 A 
ATOM     22  C   UNL     1      -1.210   9.964  17.581  0.00  0.00    +0.000 A 
ATOM     23  C   UNL     1      -2.526  10.189  17.170  0.00  0.00    +0.000 A 
ENDBRANCH  16  21
ENDBRANCH   1  16
TORSDOF 3
ENDMDL
MODEL 5
REMARK VINA RESULT:      -7.9      3.880      6.826
REMARK  Name = 
REMARK  5 active torsions:
REMARK  status: ('A' for Active; 'I' for Inactive)
REMARK    1  A    between atoms: C_1  and  C_2
REMARK    2  A    between atoms: C_5  and  C_6
REMARK    3  A    between atoms: C_6  and  N_7
REMARK    4  A    between atoms: C_8  and  C_9
REMARK    5  A    between atoms: C_14  and  N_15
REMARK                            x       y       z     vdW  Elec       q    Type
REMARK                         _______ _______ _______ _____ _____    ______ ____
ROOT
ATOM      1  N   UNL     1       1.140   9.474  19.464  0.00  0.00    +0.000 N 
ATOM      2  C   UNL     1       0.900   8.790  20.639  0.00  0.00    +0.000 A 
ATOM      3  C   UNL     1       0.068   9.411  21.742  0.00  0.00    +0.000 C 
ATOM      4  N   UNL     1       1.368   7.607  20.887  0.00  0.00    +0.000 NA
ATOM      5  C   UNL     1       2.127   6.955  19.915  0.00  0.00    +0.000 A 
ATOM      6  C   UNL     1       2.590   5.661  20.168  0.00  0.00    +0.000 A 
ATOM      7  C   UNL     1       3.313   4.957  19.199  0.00  0.00    +0.000 A 
ATOM      8  C   UNL     1       3.593   5.568  17.969  0.00  0.00    +0.000 A 
ATOM      9  C   UNL     1       3.164   6.872  17.712  0.00  0.00    +0.000 A 
ATOM     10  C   UNL     1       2.422   7.545  18.692  0.00  0.00    +0.000 A 
ATOM     11  C   UNL     1       1.924   8.906  18.458  0.00  0.00    +0.000 A 
ATOM     12  O   UNL     1       2.229   9.466  17.408  0.00  0.00    +0.000 OA
ENDROOT
BRANCH   8  13
ATOM     13  N   UNL     1       4.329   4.830  16.934  0.00  0.00    +0.000 N 
ATOM     14  O   UNL     1       4.227   3.593  16.931  0.00  0.00    +0.000 OA
ATOM     15  O   UNL     1       5.002   5.484  16.127  0.00  0.00    +0.000 OA
ENDBRANCH   8  13
BRANCH   1  16
ATOM     16  C   UNL     1       0.699  10.845  19.221  0.00  0.00    +0.000 C 
BRANCH  16  21
ATOM     17  C   UNL     1      -4.929  10.920  17.706  0.00  0.00    +0.000 C 
ATOM     18  C   UNL     1      -3.462  10.965  18.015  0.00  0.00    +0.000 A 
ATOM     19  C   UNL     1      -2.568  10.087  17.398  0.00  0.00    +0.000 A 
ATOM     20  C   UNL     1      -1.218  10.084  17.757  0.00  0.00    +0.000 A 
ATOM     21  C   UNL     1      -0.730  10.964  18.733  0.00  0.00    +0.000 A 
ATOM     22  C   UNL     1      -1.625  11.875  19.315  0.00  0.00    +0.000 A 
ATOM     23  C   UNL     1      -2.978  11.869  18.967  0.00  0.00    +0.000 A 
ENDBRANCH  16  21
ENDBRANCH   1  16
TORSDOF 3
ENDMDL
MODEL 6
REMARK VINA RESULT:      -7.5      4.467      6.822
REMARK  Name = 
REMARK  5 active torsions:
REMARK  status: ('A' for Active; 'I' for Inactive)
REMARK    1  A    between atoms: C_1  and  C_2
REMARK    2  A    between atoms: C_5  and  C_6
REMARK    3  A    between atoms: C_6  and  N_7
REMARK    4  A    between atoms: C_8  and  C_9
REMARK    5  A    between atoms: C_14  and  N_15
REMARK                            x       y       z     vdW  Elec       q    Type
REMARK                         _______ _______ _______ _____ _____    ______ ____
ROOT
ATOM      1  N   UNL     1       1.384   9.106  19.395  0.00  0.00    +0.000 N 
ATOM      2  C   UNL     1       1.148   8.729  20.702  0.00  0.00    +0.000 A 
ATOM      3  C   UNL     1       0.591   9.716  21.706  0.00  0.00    +0.000 C 
ATOM      4  N   UNL     1       1.393   7.541  21.160  0.00  0.00    +0.000 NA
ATOM      5  C   UNL     1       1.889   6.565  20.295  0.00  0.00    +0.000 A 
ATOM      6  C   UNL     1       2.107   5.274  20.782  0.00  0.00    +0.000 A 
ATOM      7  C   UNL     1       2.557   4.256  19.933  0.00  0.00    +0.000 A 
ATOM      8  C   UNL     1       2.811   4.544  18.585  0.00  0.00    +0.000 A 
ATOM      9  C   UNL     1       2.627   5.836  18.090  0.00  0.00    +0.000 A 
ATOM     10  C   UNL     1       2.154   6.831  18.957  0.00  0.00    +0.000 A 
ATOM     11  C   UNL     1       1.916   8.198  18.478  0.00  0.00    +0.000 A 
ATOM     12  O   UNL     1       2.205   8.466  17.314  0.00  0.00    +0.000 OA
ENDROOT
BRANCH   8  13
ATOM     13  N   UNL     1       3.259   3.478  17.679  0.00  0.00    +0.000 N 
ATOM     14  O   UNL     1       2.575   3.260  16.668  0.00  0.00    +0.000 OA
ATOM     15  O   UNL     1       4.293   2.864  17.976  0.00  0.00    +0.000 OA
ENDBRANCH   8  13
BRANCH   1  16
ATOM     16  C   UNL     1       1.203  10.469  18.900  0.00  0.00    +0.000 C 
BRANCH  16  21
ATOM     17  C   UNL     1      -4.448  11.467  17.883  0.00  0.00    +0.000 C 
ATOM     18  C   UNL     1      -2.973  11.265  18.058  0.00  0.00    +0.000 A 
ATOM     19  C   UNL     1      -2.309  10.211  17.427  0.00  0.00    +0.000 A 
ATOM     20  C   UNL     1      -0.951   9.986  17.666  0.00  0.00    +0.000 A 
ATOM     21  C   UNL     1      -0.225  10.815  18.533  0.00  0.00    +0.000 A 
ATOM     22  C   UNL     1      -0.887  11.900  19.127  0.00  0.00    +0.000 A 
ATOM     23  C   UNL     1      -2.249  12.117  18.900  0.00  0.00    +0.000 A 
ENDBRANCH  16  21
ENDBRANCH   1  16
TORSDOF 3
ENDMDL
MODEL 7
REMARK VINA RESULT:      -7.0      1.536      2.701
REMARK  Name = 
REMARK  5 active torsions:
REMARK  status: ('A' for Active; 'I' for Inactive)
REMARK    1  A    between atoms: C_1  and  C_2
REMARK    2  A    between atoms: C_5  and  C_6
REMARK    3  A    between atoms: C_6  and  N_7
REMARK    4  A    between atoms: C_8  and  C_9
REMARK    5  A    between atoms: C_14  and  N_15
REMARK                            x       y       z     vdW  Elec       q    Type
REMARK                         _______ _______ _______ _____ _____    ______ ____
ROOT
ATOM      1  N   UNL     1       5.649   5.843  17.183  0.00  0.00    +0.000 N 
ATOM      2  C   UNL     1       6.966   6.188  16.953  0.00  0.00    +0.000 A 
ATOM      3  C   UNL     1       7.758   6.961  17.986  0.00  0.00    +0.000 C 
ATOM      4  N   UNL     1       7.601   5.898  15.860  0.00  0.00    +0.000 NA
ATOM      5  C   UNL     1       6.950   5.169  14.865  0.00  0.00    +0.000 A 
ATOM      6  C   UNL     1       7.654   4.819  13.709  0.00  0.00    +0.000 A 
ATOM      7  C   UNL     1       7.050   4.046  12.711  0.00  0.00    +0.000 A 
ATOM      8  C   UNL     1       5.718   3.640  12.865  0.00  0.00    +0.000 A 
ATOM      9  C   UNL     1       4.991   4.007  14.000  0.00  0.00    +0.000 A 
ATOM     10  C   UNL     1       5.628   4.762  14.994  0.00  0.00    +0.000 A 
ATOM     11  C   UNL     1       4.917   5.148  16.219  0.00  0.00    +0.000 A 
ATOM     12  O   UNL     1       3.730   4.850  16.321  0.00  0.00    +0.000 OA
ENDROOT
BRANCH   8  13
ATOM     13  N   UNL     1       5.081   2.807  11.835  0.00  0.00    +0.000 N 
ATOM     14  O   UNL     1       3.998   3.196  11.372  0.00  0.00    +0.000 OA
ATOM     15  O   UNL     1       5.664   1.771  11.489  0.00  0.00    +0.000 OA
ENDBRANCH   8  13
BRANCH   1  16
ATOM     16  C   UNL     1       4.900   6.253  18.368  0.00  0.00    +0.000 C 
BRANCH  16  21
ATOM     17  C   UNL     1       2.186   2.116  21.448  0.00  0.00    +0.000 C 
ATOM     18  C   UNL     1       2.852   3.131  20.569  0.00  0.00    +0.000 A 
ATOM     19  C   UNL     1       4.142   2.925  20.077  0.00  0.00    +0.000 A 
ATOM     20  C   UNL     1       4.782   3.916  19.329  0.00  0.00    +0.000 A 
ATOM     21  C   UNL     1       4.141   5.131  19.047  0.00  0.00    +0.000 A 
ATOM     22  C   UNL     1       2.827   5.313  19.504  0.00  0.00    +0.000 A 
ATOM     23  C   UNL     1       2.193   4.328  20.265  0.00  0.00    +0.000 A 
ENDBRANCH  16  21
ENDBRANCH   1  16
TORSDOF 3
ENDMDL
MODEL 8
REMARK VINA RESULT:      -7.0      6.522     10.044
REMARK  Name = 
REMARK  5 active torsions:
REMARK  status: ('A' for Active; 'I' for Inactive)
REMARK    1  A    between atoms: C_1  and  C_2
REMARK    2  A    between atoms: C_5  and  C_6
REMARK    3  A    between atoms: C_6  and  N_7
REMARK    4  A    between atoms: C_8  and  C_9
REMARK    5  A    between atoms: C_14  and  N_15
REMARK                            x       y       z     vdW  Elec       q    Type
REMARK                         _______ _______ _______ _____ _____    ______ ____
ROOT
ATOM      1  N   UNL     1       1.663   8.526  19.912  0.00  0.00    +0.000 N 
ATOM      2  C   UNL     1       1.420   9.166  18.712  0.00  0.00    +0.000 A 
ATOM      3  C   UNL     1       2.048   8.670  17.427  0.00  0.00    +0.000 C 
ATOM      4  N   UNL     1       0.671  10.218  18.601  0.00  0.00    +0.000 NA
ATOM      5  C   UNL     1       0.038  10.728  19.735  0.00  0.00    +0.000 A 
ATOM      6  C   UNL     1      -0.806  11.834  19.602  0.00  0.00    +0.000 A 
ATOM      7  C   UNL     1      -1.497  12.343  20.708  0.00  0.00    +0.000 A 
ATOM      8  C   UNL     1      -1.321  11.748  21.964  0.00  0.00    +0.000 A 
ATOM      9  C   UNL     1      -0.458  10.662  22.120  0.00  0.00    +0.000 A 
ATOM     10  C   UNL     1       0.204  10.158  20.991  0.00  0.00    +0.000 A 
ATOM     11  C   UNL     1       1.098   8.999  21.097  0.00  0.00    +0.000 A 
ATOM     12  O   UNL     1       1.305   8.522  22.210  0.00  0.00    +0.000 OA
ENDROOT
BRANCH   8  13
ATOM     13  N   UNL     1      -2.060  12.259  23.127  0.00  0.00    +0.000 N 
ATOM     14  O   UNL     1      -3.044  11.608  23.511  0.00  0.00    +0.000 OA
ATOM     15  O   UNL     1      -1.656  13.303  23.656  0.00  0.00    +0.000 OA
ENDBRANCH   8  13
BRANCH   1  16
ATOM     16  C   UNL     1       2.585   7.402  20.057  0.00  0.00    +0.000 C 
BRANCH  16  21
ATOM     17  C   UNL     1       0.780   2.009  18.782  0.00  0.00    +0.000 C 
ATOM     18  C   UNL     1       1.152   3.431  19.074  0.00  0.00    +0.000 A 
ATOM     19  C   UNL     1       1.729   4.242  18.094  0.00  0.00    +0.000 A 
ATOM     20  C   UNL     1       2.148   5.538  18.403  0.00  0.00    +0.000 A 
ATOM     21  C   UNL     1       1.989   6.056  19.697  0.00  0.00    +0.000 A 
ATOM     22  C   UNL     1       1.366   5.253  20.664  0.00  0.00    +0.000 A 
ATOM     23  C   UNL     1       0.961   3.952  20.359  0.00  0.00    +0.000 A 
ENDBRANCH  16  21
ENDBRANCH   1  16
TORSDOF 3
ENDMDL
MODEL 9
REMARK VINA RESULT:      -7.0      2.137      3.136
REMARK  Name = 
REMARK  5 active torsions:
REMARK  status: ('A' for Active; 'I' for Inactive)
REMARK    1  A    between atoms: C_1  and  C_2
REMARK    2  A    between atoms: C_5  and  C_6
REMARK    3  A    between atoms: C_6  and  N_7
REMARK    4  A    between atoms: C_8  and  C_9
REMARK    5  A    between atoms: C_14  and  N_15
REMARK                            x       y       z     vdW  Elec       q    Type
REMARK                         _______ _______ _______ _____ _____    ______ ____
ROOT
ATOM      1  N   UNL     1       4.033   5.570  18.090  0.00  0.00    +0.000 N 
ATOM      2  C   UNL     1       3.359   4.410  17.759  0.00  0.00    +0.000 A 
ATOM      3  C   UNL     1       2.200   3.919  18.600  0.00  0.00    +0.000 C 
ATOM      4  N   UNL     1       3.671   3.667  16.743  0.00  0.00    +0.000 NA
ATOM      5  C   UNL     1       4.715   4.060  15.905  0.00  0.00    +0.000 A 
ATOM      6  C   UNL     1       5.016   3.281  14.785  0.00  0.00    +0.000 A 
ATOM      7  C   UNL     1       6.023   3.668  13.894  0.00  0.00    +0.000 A 
ATOM      8  C   UNL     1       6.751   4.839  14.144  0.00  0.00    +0.000 A 
ATOM      9  C   UNL     1       6.484   5.612  15.275  0.00  0.00    +0.000 A 
ATOM     10  C   UNL     1       5.454   5.213  16.138  0.00  0.00    +0.000 A 
ATOM     11  C   UNL     1       5.114   6.008  17.325  0.00  0.00    +0.000 A 
ATOM     12  O   UNL     1       5.798   6.995  17.579  0.00  0.00    +0.000 OA
ENDROOT
BRANCH   8  13
ATOM     13  N   UNL     1       7.794   5.269  13.203  0.00  0.00    +0.000 N 
ATOM     14  O   UNL     1       7.681   4.913  12.020  0.00  0.00    +0.000 OA
ATOM     15  O   UNL     1       8.721   5.962  13.644  0.00  0.00    +0.000 OA
ENDBRANCH   8  13
BRANCH   1  16
ATOM     16  C   UNL     1       3.750   6.355  19.290  0.00  0.00    +0.000 C 
BRANCH  16  21
ATOM     17  C   UNL     1       0.024  10.802  18.729  0.00  0.00    +0.000 C 
ATOM     18  C   UNL     1       0.902   9.593  18.856  0.00  0.00    +0.000 A 
ATOM     19  C   UNL     1       1.044   8.929  20.076  0.00  0.00    +0.000 A 
ATOM     20  C   UNL     1       1.929   7.856  20.200  0.00  0.00    +0.000 A 
ATOM     21  C   UNL     1       2.685   7.416  19.104  0.00  0.00    +0.000 A 
ATOM     22  C   UNL     1       2.503   8.057  17.869  0.00  0.00    +0.000 A 
ATOM     23  C   UNL     1       1.628   9.140  17.749  0.00  0.00    +0.000 A 
ENDBRANCH  16  21
ENDBRANCH   1  16
TORSDOF 3
ENDMDL
