MODEL 1
REMARK VINA RESULT:      -8.5      0.000      0.000
REMARK  Name = 
REMARK  13 active torsions:
REMARK  status: ('A' for Active; 'I' for Inactive)
REMARK    1  A    between atoms: C_1  and  O_2
REMARK    2  A    between atoms: O_2  and  C_3
REMARK    3  A    between atoms: C_3  and  C_5
REMARK    4  A    between atoms: C_5  and  C_6
REMARK    5  A    between atoms: C_5  and  C_16
REMARK    6  A    between atoms: C_6  and  C_7
REMARK    7  A    between atoms: C_11  and  C_12
REMARK    8  A    between atoms: C_16  and  C_17
REMARK    9  A    between atoms: C_16  and  N_18
REMARK   10  A    between atoms: C_19  and  C_21
REMARK   11  A    between atoms: C_24  and  C_25
REMARK   12  A    between atoms: C_28  and  C_29
REMARK   13  A    between atoms: C_29  and  O_31
REMARK                            x       y       z     vdW  Elec       q    Type
REMARK                         _______ _______ _______ _____ _____    ______ ____
ROOT
ATOM      1  C   UNL     1       3.137   4.185  17.625  0.00  0.00    +0.000 C 
ATOM      2  C   UNL     1       2.167   3.554  16.616  0.00  0.00    +0.000 C 
ENDROOT
BRANCH   1   3
ATOM      3  N   UNL     1       2.481   5.336  18.244  0.00  0.00    +0.000 N 
ATOM      4  C   UNL     1       2.902   6.637  18.080  0.00  0.00    +0.000 C 
ATOM      5  O   UNL     1       3.867   6.964  17.399  0.00  0.00    +0.000 OA
ATOM      6  H   UNL     1       1.714   5.137  18.875  0.00  0.00    +0.000 HD
BRANCH   4   7
ATOM      7  C   UNL     1       2.143   7.667  18.828  0.00  0.00    +0.000 A 
ATOM      8  C   UNL     1       1.895   7.441  20.182  0.00  0.00    +0.000 A 
ATOM      9  C   UNL     1       1.147   8.362  20.917  0.00  0.00    +0.000 A 
ATOM     10  C   UNL     1       0.648   9.540  20.331  0.00  0.00    +0.000 A 
ATOM     11  C   UNL     1       0.944   9.762  18.974  0.00  0.00    +0.000 A 
ATOM     12  C   UNL     1       1.681   8.838  18.225  0.00  0.00    +0.000 A 
BRANCH  10  13
ATOM     13  C   UNL     1      -0.154  10.503  21.119  0.00  0.00    +0.000 A 
ATOM     14  C   UNL     1      -0.556  10.211  22.436  0.00  0.00    +0.000 A 
ATOM     15  C   UNL     1      -1.341  11.098  23.176  0.00  0.00    +0.000 A 
ATOM     16  C   UNL     1      -1.737  12.317  22.621  0.00  0.00    +0.000 A 
ATOM     17  C   UNL     1      -1.320  12.650  21.327  0.00  0.00    +0.000 A 
ATOM     18  C   UNL     1      -0.554  11.742  20.585  0.00  0.00    +0.000 A 
BRANCH  16  19
ATOM     19  C   UNL     1      -2.554  13.232  23.462  0.00  0.00    +0.000 C 
ATOM     20  O   UNL     1      -2.329  14.427  23.537  0.00  0.00    +0.000 OA
BRANCH  19  21
ATOM     21  O   UNL     1      -3.532  12.623  24.165  0.00  0.00    +0.000 OA
ATOM     22  H   UNL     1      -4.089  12.008  23.658  0.00  0.00    +0.000 HD
ENDBRANCH  19  21
ENDBRANCH  16  19
ENDBRANCH  10  13
ENDBRANCH   4   7
ENDBRANCH   1   3
BRANCH   1  23
ATOM     23  C   UNL     1       3.714   3.188  18.661  0.00  0.00    +0.000 C 
BRANCH  23  24
ATOM     24  C   UNL     1       2.671   2.828  19.715  0.00  0.00    +0.000 C 
ATOM     25  O   UNL     1       1.912   1.867  19.672  0.00  0.00    +0.000 OA
BRANCH  24  27
ATOM     26  C   UNL     1       2.081   3.316  21.938  0.00  0.00    +0.000 C 
ATOM     27  O   UNL     1       2.677   3.758  20.716  0.00  0.00    +0.000 OA
ENDBRANCH  24  27
ENDBRANCH  23  24
BRANCH  23  28
ATOM     28  C   UNL     1       5.008   3.669  19.351  0.00  0.00    +0.000 C 
BRANCH  28  29
ATOM     29  C   UNL     1       5.924   4.531  18.508  0.00  0.00    +0.000 A 
ATOM     30  C   UNL     1       6.624   5.610  19.059  0.00  0.00    +0.000 A 
ATOM     31  C   UNL     1       7.473   6.388  18.269  0.00  0.00    +0.000 A 
ATOM     32  C   UNL     1       7.617   6.107  16.909  0.00  0.00    +0.000 A 
ATOM     33  C   UNL     1       6.910   5.046  16.338  0.00  0.00    +0.000 A 
ATOM     34  C   UNL     1       6.077   4.257  17.140  0.00  0.00    +0.000 A 
BRANCH  33  35
ATOM     35  C   UNL     1       7.041   4.761  14.882  0.00  0.00    +0.000 C 
ATOM     36  N   UNL     1       7.742   5.497  14.079  0.00  0.00    +0.000 NA
ATOM     37  N   UNL     1       6.408   3.690  14.325  0.00  0.00    +0.000 N 
ATOM     38  H   UNL     1       8.229   6.242  14.582  0.00  0.00    +0.000 HD
ATOM     39  H   UNL     1       5.492   3.474  14.695  0.00  0.00    +0.000 HD
ATOM     40  H   UNL     1       6.419   3.755  13.313  0.00  0.00    +0.000 HD
ENDBRANCH  33  35
ENDBRANCH  28  29
ENDBRANCH  23  28
ENDBRANCH   1  23
TORSDOF 11
ENDMDL
MODEL 2
REMARK VINA RESULT:      -8.4      0.525      1.076
REMARK  Name = 
REMARK  13 active torsions:
REMARK  status: ('A' for Active; 'I' for Inactive)
REMARK    1  A    between atoms: C_1  and  O_2
REMARK    2  A    between atoms: O_2  and  C_3
REMARK    3  A    between atoms: C_3  and  C_5
REMARK    4  A    between atoms: C_5  and  C_6
REMARK    5  A    between atoms: C_5  and  C_16
REMARK    6  A    between atoms: C_6  and  C_7
REMARK    7  A    between atoms: C_11  and  C_12
REMARK    8  A    between atoms: C_16  and  C_17
REMARK    9  A    between atoms: C_16  and  N_18
REMARK   10  A    between atoms: C_19  and  C_21
REMARK   11  A    between atoms: C_24  and  C_25
REMARK   12  A    between atoms: C_28  and  C_29
REMARK   13  A    between atoms: C_29  and  O_31
REMARK                            x       y       z     vdW  Elec       q    Type
REMARK                         _______ _______ _______ _____ _____    ______ ____
ROOT
ATOM      1  C   UNL     1       3.070   4.072  17.682  0.00  0.00    +0.000 C 
ATOM      2  C   UNL     1       2.043   3.484  16.705  0.00  0.00    +0.000 C 
ENDROOT
BRANCH   1   3
ATOM      3  N   UNL     1       2.464   5.219  18.359  0.00  0.00    +0.000 N 
ATOM      4  C   UNL     1       2.851   6.524  18.148  0.00  0.00    +0.000 C 
ATOM      5  O   UNL     1       3.739   6.858  17.373  0.00  0.00    +0.000 OA
ATOM      6  H   UNL     1       1.767   5.014  19.064  0.00  0.00    +0.000 HD
BRANCH   4   7
ATOM      7  C   UNL     1       2.157   7.548  18.963  0.00  0.00    +0.000 A 
ATOM      8  C   UNL     1       1.804   8.747  18.344  0.00  0.00    +0.000 A 
ATOM      9  C   UNL     1       1.188   9.758  19.082  0.00  0.00    +0.000 A 
ATOM     10  C   UNL     1       0.885   9.595  20.447  0.00  0.00    +0.000 A 
ATOM     11  C   UNL     1       1.218   8.362  21.038  0.00  0.00    +0.000 A 
ATOM     12  C   UNL     1       1.849   7.347  20.310  0.00  0.00    +0.000 A 
BRANCH  10  13
ATOM     13  C   UNL     1       0.243  10.680  21.221  0.00  0.00    +0.000 A 
ATOM     14  C   UNL     1      -0.511  10.404  22.376  0.00  0.00    +0.000 A 
ATOM     15  C   UNL     1      -1.149  11.418  23.095  0.00  0.00    +0.000 A 
ATOM     16  C   UNL     1      -1.038  12.748  22.683  0.00  0.00    +0.000 A 
ATOM     17  C   UNL     1      -0.262  13.056  21.559  0.00  0.00    +0.000 A 
ATOM     18  C   UNL     1       0.352  12.028  20.832  0.00  0.00    +0.000 A 
BRANCH  16  19
ATOM     19  C   UNL     1      -1.719  13.788  23.498  0.00  0.00    +0.000 C 
ATOM     20  O   UNL     1      -2.917  13.995  23.426  0.00  0.00    +0.000 OA
BRANCH  19  21
ATOM     21  O   UNL     1      -0.896  14.510  24.286  0.00  0.00    +0.000 OA
ATOM     22  H   UNL     1       0.056  14.379  24.128  0.00  0.00    +0.000 HD
ENDBRANCH  19  21
ENDBRANCH  16  19
ENDBRANCH  10  13
ENDBRANCH   4   7
ENDBRANCH   1   3
BRANCH   1  23
ATOM     23  C   UNL     1       3.675   3.039  18.666  0.00  0.00    +0.000 C 
BRANCH  23  24
ATOM     24  C   UNL     1       2.661   2.641  19.734  0.00  0.00    +0.000 C 
ATOM     25  O   UNL     1       1.550   2.168  19.526  0.00  0.00    +0.000 OA
BRANCH  24  27
ATOM     26  C   UNL     1       2.169   3.292  21.940  0.00  0.00    +0.000 C 
ATOM     27  O   UNL     1       3.157   2.917  20.978  0.00  0.00    +0.000 OA
ENDBRANCH  24  27
ENDBRANCH  23  24
BRANCH  23  28
ATOM     28  C   UNL     1       4.987   3.497  19.338  0.00  0.00    +0.000 C 
BRANCH  28  29
ATOM     29  C   UNL     1       5.851   4.437  18.524  0.00  0.00    +0.000 A 
ATOM     30  C   UNL     1       6.446   5.566  19.099  0.00  0.00    +0.000 A 
ATOM     31  C   UNL     1       7.248   6.416  18.336  0.00  0.00    +0.000 A 
ATOM     32  C   UNL     1       7.452   6.157  16.980  0.00  0.00    +0.000 A 
ATOM     33  C   UNL     1       6.850   5.046  16.384  0.00  0.00    +0.000 A 
ATOM     34  C   UNL     1       6.063   4.186  17.160  0.00  0.00    +0.000 A 
BRANCH  33  35
ATOM     35  C   UNL     1       7.043   4.783  14.931  0.00  0.00    +0.000 C 
ATOM     36  N   UNL     1       7.826   5.493  14.183  0.00  0.00    +0.000 NA
ATOM     37  N   UNL     1       6.381   3.761  14.317  0.00  0.00    +0.000 N 
ATOM     38  H   UNL     1       8.326   6.199  14.728  0.00  0.00    +0.000 HD
ATOM     39  H   UNL     1       5.435   3.591  14.634  0.00  0.00    +0.000 HD
ATOM     40  H   UNL     1       6.450   3.846  13.309  0.00  0.00    +0.000 HD
ENDBRANCH  33  35
ENDBRANCH  28  29
ENDBRANCH  23  28
ENDBRANCH   1  23
TORSDOF 11
ENDMDL
MODEL 3
REMARK VINA RESULT:      -8.3      0.334      1.025
REMARK  Name = 
REMARK  13 active torsions:
REMARK  status: ('A' for Active; 'I' for Inactive)
REMARK    1  A    between atoms: C_1  and  O_2
REMARK    2  A    between atoms: O_2  and  C_3
REMARK    3  A    between atoms: C_3  and  C_5
REMARK    4  A    between atoms: C_5  and  C_6
REMARK    5  A    between atoms: C_5  and  C_16
REMARK    6  A    between atoms: C_6  and  C_7
REMARK    7  A    between atoms: C_11  and  C_12
REMARK    8  A    between atoms: C_16  and  C_17
REMARK    9  A    between atoms: C_16  and  N_18
REMARK   10  A    between atoms: C_19  and  C_21
REMARK   11  A    between atoms: C_24  and  C_25
REMARK   12  A    between atoms: C_28  and  C_29
REMARK   13  A    between atoms: C_29  and  O_31
REMARK                            x       y       z     vdW  Elec       q    Type
REMARK                         _______ _______ _______ _____ _____    ______ ____
ROOT
ATOM      1  C   UNL     1       3.234   4.094  17.645  0.00  0.00    +0.000 C 
ATOM      2  C   UNL     1       2.243   3.375  16.718  0.00  0.00    +0.000 C 
ENDROOT
BRANCH   1   3
ATOM      3  N   UNL     1       2.558   5.242  18.249  0.00  0.00    +0.000 N 
ATOM      4  C   UNL     1       2.918   6.551  18.019  0.00  0.00    +0.000 C 
ATOM      5  O   UNL     1       3.839   6.888  17.284  0.00  0.00    +0.000 OA
ATOM      6  H   UNL     1       1.827   5.037  18.920  0.00  0.00    +0.000 HD
BRANCH   4   7
ATOM      7  C   UNL     1       2.149   7.578  18.760  0.00  0.00    +0.000 A 
ATOM      8  C   UNL     1       1.887   7.349  20.110  0.00  0.00    +0.000 A 
ATOM      9  C   UNL     1       1.129   8.267  20.839  0.00  0.00    +0.000 A 
ATOM     10  C   UNL     1       0.635   9.447  20.251  0.00  0.00    +0.000 A 
ATOM     11  C   UNL     1       0.946   9.672  18.897  0.00  0.00    +0.000 A 
ATOM     12  C   UNL     1       1.692   8.750  18.154  0.00  0.00    +0.000 A 
BRANCH  10  13
ATOM     13  C   UNL     1      -0.177  10.406  21.032  0.00  0.00    +0.000 A 
ATOM     14  C   UNL     1      -0.789  11.513  20.416  0.00  0.00    +0.000 A 
ATOM     15  C   UNL     1      -1.530  12.443  21.151  0.00  0.00    +0.000 A 
ATOM     16  C   UNL     1      -1.692  12.281  22.528  0.00  0.00    +0.000 A 
ATOM     17  C   UNL     1      -1.127  11.168  23.161  0.00  0.00    +0.000 A 
ATOM     18  C   UNL     1      -0.365  10.256  22.419  0.00  0.00    +0.000 A 
BRANCH  16  19
ATOM     19  C   UNL     1      -2.509  13.288  23.256  0.00  0.00    +0.000 C 
ATOM     20  O   UNL     1      -2.031  14.047  24.080  0.00  0.00    +0.000 OA
BRANCH  19  21
ATOM     21  O   UNL     1      -3.825  13.262  22.960  0.00  0.00    +0.000 OA
ATOM     22  H   UNL     1      -4.071  12.709  22.197  0.00  0.00    +0.000 HD
ENDBRANCH  19  21
ENDBRANCH  16  19
ENDBRANCH  10  13
ENDBRANCH   4   7
ENDBRANCH   1   3
BRANCH   1  23
ATOM     23  C   UNL     1       3.911   3.172  18.690  0.00  0.00    +0.000 C 
BRANCH  23  24
ATOM     24  C   UNL     1       2.931   2.781  19.792  0.00  0.00    +0.000 C 
ATOM     25  O   UNL     1       2.190   1.806  19.779  0.00  0.00    +0.000 OA
BRANCH  24  27
ATOM     26  C   UNL     1       1.930   3.562  21.772  0.00  0.00    +0.000 C 
ATOM     27  O   UNL     1       2.970   3.703  20.801  0.00  0.00    +0.000 OA
ENDBRANCH  24  27
ENDBRANCH  23  24
BRANCH  23  28
ATOM     28  C   UNL     1       5.194   3.758  19.316  0.00  0.00    +0.000 C 
BRANCH  28  29
ATOM     29  C   UNL     1       6.031   4.632  18.408  0.00  0.00    +0.000 A 
ATOM     30  C   UNL     1       6.680   5.775  18.888  0.00  0.00    +0.000 A 
ATOM     31  C   UNL     1       7.457   6.565  18.037  0.00  0.00    +0.000 A 
ATOM     32  C   UNL     1       7.579   6.230  16.688  0.00  0.00    +0.000 A 
ATOM     33  C   UNL     1       6.922   5.104  16.187  0.00  0.00    +0.000 A 
ATOM     34  C   UNL     1       6.162   4.305  17.049  0.00  0.00    +0.000 A 
BRANCH  33  35
ATOM     35  C   UNL     1       7.028   4.760  14.742  0.00  0.00    +0.000 C 
ATOM     36  N   UNL     1       6.401   3.761  14.205  0.00  0.00    +0.000 NA
ATOM     37  N   UNL     1       7.814   5.499  13.908  0.00  0.00    +0.000 N 
ATOM     38  H   UNL     1       5.791   3.295  14.882  0.00  0.00    +0.000 HD
ATOM     39  H   UNL     1       8.679   5.844  14.303  0.00  0.00    +0.000 HD
ATOM     40  H   UNL     1       7.948   5.020  13.024  0.00  0.00    +0.000 HD
ENDBRANCH  33  35
ENDBRANCH  28  29
ENDBRANCH  23  28
ENDBRANCH   1  23
TORSDOF 11
ENDMDL
MODEL 4
REMARK VINA RESULT:      -8.3      2.614      4.190
REMARK  Name = 
REMARK  13 active torsions:
REMARK  status: ('A' for Active; 'I' for Inactive)
REMARK    1  A    between atoms: C_1  and  O_2
REMARK    2  A    between atoms: O_2  and  C_3
REMARK    3  A    between atoms: C_3  and  C_5
REMARK    4  A    between atoms: C_5  and  C_6
REMARK    5  A    between atoms: C_5  and  C_16
REMARK    6  A    between atoms: C_6  and  C_7
REMARK    7  A    between atoms: C_11  and  C_12
REMARK    8  A    between atoms: C_16  and  C_17
REMARK    9  A    between atoms: C_16  and  N_18
REMARK   10  A    between atoms: C_19  and  C_21
REMARK   11  A    between atoms: C_24  and  C_25
REMARK   12  A    between atoms: C_28  and  C_29
REMARK   13  A    between atoms: C_29  and  O_31
REMARK                            x       y       z     vdW  Elec       q    Type
REMARK                         _______ _______ _______ _____ _____    ______ ____
ROOT
ATOM      1  C   UNL     1       4.712   4.279  18.037  0.00  0.00    +0.000 C 
ATOM      2  C   UNL     1       5.185   3.727  19.389  0.00  0.00    +0.000 C 
ENDROOT
BRANCH   1   3
ATOM      3  N   UNL     1       4.023   5.548  18.268  0.00  0.00    +0.000 N 
ATOM      4  C   UNL     1       2.877   5.672  19.021  0.00  0.00    +0.000 C 
ATOM      5  O   UNL     1       2.318   4.733  19.577  0.00  0.00    +0.000 OA
ATOM      6  H   UNL     1       4.391   6.359  17.785  0.00  0.00    +0.000 HD
BRANCH   4   7
ATOM      7  C   UNL     1       2.292   7.031  19.100  0.00  0.00    +0.000 A 
ATOM      8  C   UNL     1       2.271   7.801  17.938  0.00  0.00    +0.000 A 
ATOM      9  C   UNL     1       1.770   9.103  17.973  0.00  0.00    +0.000 A 
ATOM     10  C   UNL     1       1.256   9.663  19.157  0.00  0.00    +0.000 A 
ATOM     11  C   UNL     1       1.254   8.852  20.307  0.00  0.00    +0.000 A 
ATOM     12  C   UNL     1       1.768   7.550  20.285  0.00  0.00    +0.000 A 
BRANCH  10  13
ATOM     13  C   UNL     1       0.738  11.049  19.183  0.00  0.00    +0.000 A 
ATOM     14  C   UNL     1       1.575  12.134  19.506  0.00  0.00    +0.000 A 
ATOM     15  C   UNL     1       1.088  13.442  19.566  0.00  0.00    +0.000 A 
ATOM     16  C   UNL     1      -0.254  13.705  19.288  0.00  0.00    +0.000 A 
ATOM     17  C   UNL     1      -1.101  12.651  18.927  0.00  0.00    +0.000 A 
ATOM     18  C   UNL     1      -0.608  11.340  18.895  0.00  0.00    +0.000 A 
BRANCH  16  19
ATOM     19  C   UNL     1      -0.712  15.119  19.345  0.00  0.00    +0.000 C 
ATOM     20  O   UNL     1      -1.314  15.574  20.302  0.00  0.00    +0.000 OA
BRANCH  19  21
ATOM     21  O   UNL     1      -0.446  15.839  18.236  0.00  0.00    +0.000 OA
ATOM     22  H   UNL     1      -0.280  15.319  17.430  0.00  0.00    +0.000 HD
ENDBRANCH  19  21
ENDBRANCH  16  19
ENDBRANCH  10  13
ENDBRANCH   4   7
ENDBRANCH   1   3
BRANCH   1  23
ATOM     23  C   UNL     1       5.828   4.381  16.967  0.00  0.00    +0.000 C 
BRANCH  23  24
ATOM     24  C   UNL     1       7.132   4.880  17.581  0.00  0.00    +0.000 C 
ATOM     25  O   UNL     1       8.155   4.222  17.723  0.00  0.00    +0.000 OA
BRANCH  24  27
ATOM     26  C   UNL     1       8.091   6.681  18.750  0.00  0.00    +0.000 C 
ATOM     27  O   UNL     1       6.991   6.178  17.989  0.00  0.00    +0.000 OA
ENDBRANCH  24  27
ENDBRANCH  23  24
BRANCH  23  28
ATOM     28  C   UNL     1       5.458   5.252  15.748  0.00  0.00    +0.000 C 
BRANCH  28  29
ATOM     29  C   UNL     1       6.085   4.844  14.431  0.00  0.00    +0.000 A 
ATOM     30  C   UNL     1       7.274   5.425  13.976  0.00  0.00    +0.000 A 
ATOM     31  C   UNL     1       7.842   5.030  12.764  0.00  0.00    +0.000 A 
ATOM     32  C   UNL     1       7.217   4.059  11.980  0.00  0.00    +0.000 A 
ATOM     33  C   UNL     1       6.019   3.483  12.409  0.00  0.00    +0.000 A 
ATOM     34  C   UNL     1       5.465   3.869  13.635  0.00  0.00    +0.000 A 
BRANCH  33  35
ATOM     35  C   UNL     1       5.335   2.467  11.562  0.00  0.00    +0.000 C 
ATOM     36  N   UNL     1       4.176   2.665  11.017  0.00  0.00    +0.000 NA
ATOM     37  N   UNL     1       5.915   1.256  11.326  0.00  0.00    +0.000 N 
ATOM     38  H   UNL     1       3.837   3.614  11.194  0.00  0.00    +0.000 HD
ATOM     39  H   UNL     1       6.432   0.853  12.097  0.00  0.00    +0.000 HD
ATOM     40  H   UNL     1       5.245   0.610  10.922  0.00  0.00    +0.000 HD
ENDBRANCH  33  35
ENDBRANCH  28  29
ENDBRANCH  23  28
ENDBRANCH   1  23
TORSDOF 11
ENDMDL
MODEL 5
REMARK VINA RESULT:      -8.1      0.741      1.397
REMARK  Name = 
REMARK  13 active torsions:
REMARK  status: ('A' for Active; 'I' for Inactive)
REMARK    1  A    between atoms: C_1  and  O_2
REMARK    2  A    between atoms: O_2  and  C_3
REMARK    3  A    between atoms: C_3  and  C_5
REMARK    4  A    between atoms: C_5  and  C_6
REMARK    5  A    between atoms: C_5  and  C_16
REMARK    6  A    between atoms: C_6  and  C_7
REMARK    7  A    between atoms: C_11  and  C_12
REMARK    8  A    between atoms: C_16  and  C_17
REMARK    9  A    between atoms: C_16  and  N_18
REMARK   10  A    between atoms: C_19  and  C_21
REMARK   11  A    between atoms: C_24  and  C_25
REMARK   12  A    between atoms: C_28  and  C_29
REMARK   13  A    between atoms: C_29  and  O_31
REMARK                            x       y       z     vdW  Elec       q    Type
REMARK                         _______ _______ _______ _____ _____    ______ ____
ROOT
ATOM      1  C   UNL     1       2.962   4.541  18.015  0.00  0.00    +0.000 C 
ATOM      2  C   UNL     1       2.098   3.930  16.903  0.00  0.00    +0.000 C 
ENDROOT
BRANCH   1   3
ATOM      3  N   UNL     1       2.280   5.724  18.537  0.00  0.00    +0.000 N 
ATOM      4  C   UNL     1       2.704   7.015  18.311  0.00  0.00    +0.000 C 
ATOM      5  O   UNL     1       3.694   7.304  17.649  0.00  0.00    +0.000 OA
ATOM      6  H   UNL     1       1.491   5.560  19.150  0.00  0.00    +0.000 HD
BRANCH   4   7
ATOM      7  C   UNL     1       1.915   8.084  18.966  0.00  0.00    +0.000 A 
ATOM      8  C   UNL     1       1.667   7.970  20.333  0.00  0.00    +0.000 A 
ATOM      9  C   UNL     1       0.892   8.929  20.985  0.00  0.00    +0.000 A 
ATOM     10  C   UNL     1       0.364  10.040  20.299  0.00  0.00    +0.000 A 
ATOM     11  C   UNL     1       0.660  10.152  18.928  0.00  0.00    +0.000 A 
ATOM     12  C   UNL     1       1.424   9.186  18.263  0.00  0.00    +0.000 A 
BRANCH  10  13
ATOM     13  C   UNL     1      -0.467  11.044  20.999  0.00  0.00    +0.000 A 
ATOM     14  C   UNL     1      -1.094  12.090  20.296  0.00  0.00    +0.000 A 
ATOM     15  C   UNL     1      -1.854  13.061  20.953  0.00  0.00    +0.000 A 
ATOM     16  C   UNL     1      -2.020  13.006  22.338  0.00  0.00    +0.000 A 
ATOM     17  C   UNL     1      -1.439  11.956  23.058  0.00  0.00    +0.000 A 
ATOM     18  C   UNL     1      -0.659  11.001  22.393  0.00  0.00    +0.000 A 
BRANCH  16  19
ATOM     19  C   UNL     1      -2.856  14.054  22.981  0.00  0.00    +0.000 C 
ATOM     20  O   UNL     1      -3.371  14.959  22.350  0.00  0.00    +0.000 OA
BRANCH  19  21
ATOM     21  O   UNL     1      -2.959  13.944  24.322  0.00  0.00    +0.000 OA
ATOM     22  H   UNL     1      -2.497  13.182  24.715  0.00  0.00    +0.000 HD
ENDBRANCH  19  21
ENDBRANCH  16  19
ENDBRANCH  10  13
ENDBRANCH   4   7
ENDBRANCH   1   3
BRANCH   1  23
ATOM     23  C   UNL     1       3.372   3.539  19.124  0.00  0.00    +0.000 C 
BRANCH  23  24
ATOM     24  C   UNL     1       2.586   3.791  20.407  0.00  0.00    +0.000 C 
ATOM     25  O   UNL     1       2.652   4.799  21.100  0.00  0.00    +0.000 OA
BRANCH  24  27
ATOM     26  C   UNL     1       1.270   2.038  19.558  0.00  0.00    +0.000 C 
ATOM     27  O   UNL     1       1.807   2.707  20.700  0.00  0.00    +0.000 OA
ENDBRANCH  24  27
ENDBRANCH  23  24
BRANCH  23  28
ATOM     28  C   UNL     1       4.884   3.520  19.433  0.00  0.00    +0.000 C 
BRANCH  28  29
ATOM     29  C   UNL     1       5.743   4.433  18.584  0.00  0.00    +0.000 A 
ATOM     30  C   UNL     1       6.347   5.576  19.119  0.00  0.00    +0.000 A 
ATOM     31  C   UNL     1       7.144   6.401  18.324  0.00  0.00    +0.000 A 
ATOM     32  C   UNL     1       7.332   6.102  16.974  0.00  0.00    +0.000 A 
ATOM     33  C   UNL     1       6.720   4.977  16.417  0.00  0.00    +0.000 A 
ATOM     34  C   UNL     1       5.940   4.142  17.225  0.00  0.00    +0.000 A 
BRANCH  33  35
ATOM     35  C   UNL     1       6.897   4.670  14.970  0.00  0.00    +0.000 C 
ATOM     36  N   UNL     1       6.348   3.650  14.392  0.00  0.00    +0.000 NA
ATOM     37  N   UNL     1       7.670   5.470  14.181  0.00  0.00    +0.000 N 
ATOM     38  H   UNL     1       5.742   3.135  15.036  0.00  0.00    +0.000 HD
ATOM     39  H   UNL     1       8.499   5.855  14.614  0.00  0.00    +0.000 HD
ATOM     40  H   UNL     1       7.862   5.019  13.293  0.00  0.00    +0.000 HD
ENDBRANCH  33  35
ENDBRANCH  28  29
ENDBRANCH  23  28
ENDBRANCH   1  23
TORSDOF 11
ENDMDL
MODEL 6
REMARK VINA RESULT:      -7.9      1.594      2.265
REMARK  Name = 
REMARK  13 active torsions:
REMARK  status: ('A' for Active; 'I' for Inactive)
REMARK    1  A    between atoms: C_1  and  O_2
REMARK    2  A    between atoms: O_2  and  C_3
REMARK    3  A    between atoms: C_3  and  C_5
REMARK    4  A    between atoms: C_5  and  C_6
REMARK    5  A    between atoms: C_5  and  C_16
REMARK    6  A    between atoms: C_6  and  C_7
REMARK    7  A    between atoms: C_11  and  C_12
REMARK    8  A    between atoms: C_16  and  C_17
REMARK    9  A    between atoms: C_16  and  N_18
REMARK   10  A    between atoms: C_19  and  C_21
REMARK   11  A    between atoms: C_24  and  C_25
REMARK   12  A    between atoms: C_28  and  C_29
REMARK   13  A    between atoms: C_29  and  O_31
REMARK                            x       y       z     vdW  Elec       q    Type
REMARK                         _______ _______ _______ _____ _____    ______ ____
ROOT
ATOM      1  C   UNL     1       2.617   4.565  18.118  0.00  0.00    +0.000 C 
ATOM      2  C   UNL     1       1.532   3.979  17.205  0.00  0.00    +0.000 C 
ENDROOT
BRANCH   1   3
ATOM      3  N   UNL     1       2.107   5.799  18.715  0.00  0.00    +0.000 N 
ATOM      4  C   UNL     1       2.547   7.057  18.369  0.00  0.00    +0.000 C 
ATOM      5  O   UNL     1       3.410   7.272  17.525  0.00  0.00    +0.000 OA
ATOM      6  H   UNL     1       1.438   5.696  19.468  0.00  0.00    +0.000 HD
BRANCH   4   7
ATOM      7  C   UNL     1       1.950   8.186  19.119  0.00  0.00    +0.000 A 
ATOM      8  C   UNL     1       1.664   7.994  20.471  0.00  0.00    +0.000 A 
ATOM      9  C   UNL     1       1.062   9.013  21.208  0.00  0.00    +0.000 A 
ATOM     10  C   UNL     1       0.750  10.257  20.628  0.00  0.00    +0.000 A 
ATOM     11  C   UNL     1       1.083  10.439  19.273  0.00  0.00    +0.000 A 
ATOM     12  C   UNL     1       1.674   9.417  18.521  0.00  0.00    +0.000 A 
BRANCH  10  13
ATOM     13  C   UNL     1       0.100  11.326  21.418  0.00  0.00    +0.000 A 
ATOM     14  C   UNL     1       0.421  12.681  21.216  0.00  0.00    +0.000 A 
ATOM     15  C   UNL     1      -0.163  13.695  21.980  0.00  0.00    +0.000 A 
ATOM     16  C   UNL     1      -1.102  13.380  22.964  0.00  0.00    +0.000 A 
ATOM     17  C   UNL     1      -1.469  12.044  23.161  0.00  0.00    +0.000 A 
ATOM     18  C   UNL     1      -0.858  11.034  22.407  0.00  0.00    +0.000 A 
BRANCH  16  19
ATOM     19  C   UNL     1      -1.707  14.501  23.732  0.00  0.00    +0.000 C 
ATOM     20  O   UNL     1      -2.759  15.023  23.408  0.00  0.00    +0.000 OA
BRANCH  19  21
ATOM     21  O   UNL     1      -0.975  14.917  24.786  0.00  0.00    +0.000 OA
ATOM     22  H   UNL     1      -1.364  15.644  25.303  0.00  0.00    +0.000 HD
ENDBRANCH  19  21
ENDBRANCH  16  19
ENDBRANCH  10  13
ENDBRANCH   4   7
ENDBRANCH   1   3
BRANCH   1  23
ATOM     23  C   UNL     1       3.172   3.569  19.167  0.00  0.00    +0.000 C 
BRANCH  23  24
ATOM     24  C   UNL     1       2.432   3.704  20.495  0.00  0.00    +0.000 C 
ATOM     25  O   UNL     1       2.413   4.702  21.205  0.00  0.00    +0.000 OA
BRANCH  24  27
ATOM     26  C   UNL     1       1.176   1.883  19.697  0.00  0.00    +0.000 C 
ATOM     27  O   UNL     1       1.808   2.528  20.805  0.00  0.00    +0.000 OA
ENDBRANCH  24  27
ENDBRANCH  23  24
BRANCH  23  28
ATOM     28  C   UNL     1       4.693   3.679  19.404  0.00  0.00    +0.000 C 
BRANCH  28  29
ATOM     29  C   UNL     1       5.478   4.397  18.327  0.00  0.00    +0.000 A 
ATOM     30  C   UNL     1       5.484   3.945  17.002  0.00  0.00    +0.000 A 
ATOM     31  C   UNL     1       6.207   4.626  16.020  0.00  0.00    +0.000 A 
ATOM     32  C   UNL     1       6.949   5.759  16.355  0.00  0.00    +0.000 A 
ATOM     33  C   UNL     1       6.971   6.212  17.676  0.00  0.00    +0.000 A 
ATOM     34  C   UNL     1       6.228   5.538  18.652  0.00  0.00    +0.000 A 
BRANCH  33  35
ATOM     35  C   UNL     1       7.784   7.405  18.042  0.00  0.00    +0.000 C 
ATOM     36  N   UNL     1       8.590   7.426  19.056  0.00  0.00    +0.000 NA
ATOM     37  N   UNL     1       7.705   8.551  17.308  0.00  0.00    +0.000 N 
ATOM     38  H   UNL     1       8.635   6.515  19.519  0.00  0.00    +0.000 HD
ATOM     39  H   UNL     1       6.789   8.785  16.947  0.00  0.00    +0.000 HD
ATOM     40  H   UNL     1       8.144   9.322  17.799  0.00  0.00    +0.000 HD
ENDBRANCH  33  35
ENDBRANCH  28  29
ENDBRANCH  23  28
ENDBRANCH   1  23
TORSDOF 11
ENDMDL
MODEL 7
REMARK VINA RESULT:      -7.9      4.527      7.986
REMARK  Name = 
REMARK  13 active torsions:
REMARK  status: ('A' for Active; 'I' for Inactive)
REMARK    1  A    between atoms: C_1  and  O_2
REMARK    2  A    between atoms: O_2  and  C_3
REMARK    3  A    between atoms: C_3  and  C_5
REMARK    4  A    between atoms: C_5  and  C_6
REMARK    5  A    between atoms: C_5  and  C_16
REMARK    6  A    between atoms: C_6  and  C_7
REMARK    7  A    between atoms: C_11  and  C_12
REMARK    8  A    between atoms: C_16  and  C_17
REMARK    9  A    between atoms: C_16  and  N_18
REMARK   10  A    between atoms: C_19  and  C_21
REMARK   11  A    between atoms: C_24  and  C_25
REMARK   12  A    between atoms: C_28  and  C_29
REMARK   13  A    between atoms: C_29  and  O_31
REMARK                            x       y       z     vdW  Elec       q    Type
REMARK                         _______ _______ _______ _____ _____    ______ ____
ROOT
ATOM      1  C   UNL     1       4.933   4.119  17.362  0.00  0.00    +0.000 C 
ATOM      2  C   UNL     1       4.677   3.907  15.863  0.00  0.00    +0.000 C 
ENDROOT
BRANCH   1   3
ATOM      3  N   UNL     1       5.654   5.379  17.537  0.00  0.00    +0.000 N 
ATOM      4  C   UNL     1       6.973   5.458  17.928  0.00  0.00    +0.000 C 
ATOM      5  O   UNL     1       7.675   4.483  18.167  0.00  0.00    +0.000 OA
ATOM      6  H   UNL     1       5.118   6.230  17.420  0.00  0.00    +0.000 HD
BRANCH   4   7
ATOM      7  C   UNL     1       7.519   6.824  18.103  0.00  0.00    +0.000 A 
ATOM      8  C   UNL     1       7.054   7.828  17.254  0.00  0.00    +0.000 A 
ATOM      9  C   UNL     1       7.571   9.120  17.352  0.00  0.00    +0.000 A 
ATOM     10  C   UNL     1       8.545   9.453  18.312  0.00  0.00    +0.000 A 
ATOM     11  C   UNL     1       8.970   8.431  19.181  0.00  0.00    +0.000 A 
ATOM     12  C   UNL     1       8.468   7.129  19.081  0.00  0.00    +0.000 A 
BRANCH  10  13
ATOM     13  C   UNL     1       9.094  10.825  18.397  0.00  0.00    +0.000 A 
ATOM     14  C   UNL     1      10.229  11.108  19.180  0.00  0.00    +0.000 A 
ATOM     15  C   UNL     1      10.735  12.406  19.293  0.00  0.00    +0.000 A 
ATOM     16  C   UNL     1      10.124  13.460  18.611  0.00  0.00    +0.000 A 
ATOM     17  C   UNL     1       9.017  13.201  17.795  0.00  0.00    +0.000 A 
ATOM     18  C   UNL     1       8.503  11.900  17.708  0.00  0.00    +0.000 A 
BRANCH  16  19
ATOM     19  C   UNL     1      10.718  14.816  18.750  0.00  0.00    +0.000 C 
ATOM     20  O   UNL     1      10.741  15.414  19.811  0.00  0.00    +0.000 OA
BRANCH  19  21
ATOM     21  O   UNL     1      11.186  15.343  17.600  0.00  0.00    +0.000 OA
ATOM     22  H   UNL     1      11.876  16.022  17.702  0.00  0.00    +0.000 HD
ENDBRANCH  19  21
ENDBRANCH  16  19
ENDBRANCH  10  13
ENDBRANCH   4   7
ENDBRANCH   1   3
BRANCH   1  23
ATOM     23  C   UNL     1       3.662   4.021  18.243  0.00  0.00    +0.000 C 
BRANCH  23  24
ATOM     24  C   UNL     1       3.203   2.573  18.383  0.00  0.00    +0.000 C 
ATOM     25  O   UNL     1       2.120   2.127  18.023  0.00  0.00    +0.000 OA
BRANCH  24  27
ATOM     26  C   UNL     1       4.305   2.093  20.404  0.00  0.00    +0.000 C 
ATOM     27  O   UNL     1       4.169   1.833  19.006  0.00  0.00    +0.000 OA
ENDBRANCH  24  27
ENDBRANCH  23  24
BRANCH  23  28
ATOM     28  C   UNL     1       2.487   4.897  17.761  0.00  0.00    +0.000 C 
BRANCH  28  29
ATOM     29  C   UNL     1       2.172   6.107  18.614  0.00  0.00    +0.000 A 
ATOM     30  C   UNL     1       2.024   6.005  20.002  0.00  0.00    +0.000 A 
ATOM     31  C   UNL     1       1.743   7.134  20.775  0.00  0.00    +0.000 A 
ATOM     32  C   UNL     1       1.587   8.379  20.165  0.00  0.00    +0.000 A 
ATOM     33  C   UNL     1       1.710   8.496  18.778  0.00  0.00    +0.000 A 
ATOM     34  C   UNL     1       2.013   7.365  18.012  0.00  0.00    +0.000 A 
BRANCH  33  35
ATOM     35  C   UNL     1       1.517   9.819  18.122  0.00  0.00    +0.000 C 
ATOM     36  N   UNL     1       2.450  10.417  17.449  0.00  0.00    +0.000 NA
ATOM     37  N   UNL     1       0.322  10.470  18.210  0.00  0.00    +0.000 N 
ATOM     38  H   UNL     1       3.292   9.839  17.382  0.00  0.00    +0.000 HD
ATOM     39  H   UNL     1      -0.165  10.385  19.092  0.00  0.00    +0.000 HD
ATOM     40  H   UNL     1       0.416  11.432  17.903  0.00  0.00    +0.000 HD
ENDBRANCH  33  35
ENDBRANCH  28  29
ENDBRANCH  23  28
ENDBRANCH   1  23
TORSDOF 11
ENDMDL
MODEL 8
REMARK VINA RESULT:      -7.9      1.568      2.357
REMARK  Name = 
REMARK  13 active torsions:
REMARK  status: ('A' for Active; 'I' for Inactive)
REMARK    1  A    between atoms: C_1  and  O_2
REMARK    2  A    between atoms: O_2  and  C_3
REMARK    3  A    between atoms: C_3  and  C_5
REMARK    4  A    between atoms: C_5  and  C_6
REMARK    5  A    between atoms: C_5  and  C_16
REMARK    6  A    between atoms: C_6  and  C_7
REMARK    7  A    between atoms: C_11  and  C_12
REMARK    8  A    between atoms: C_16  and  C_17
REMARK    9  A    between atoms: C_16  and  N_18
REMARK   10  A    between atoms: C_19  and  C_21
REMARK   11  A    between atoms: C_24  and  C_25
REMARK   12  A    between atoms: C_28  and  C_29
REMARK   13  A    between atoms: C_29  and  O_31
REMARK                            x       y       z     vdW  Elec       q    Type
REMARK                         _______ _______ _______ _____ _____    ______ ____
ROOT
ATOM      1  C   UNL     1       4.467   4.908  19.102  0.00  0.00    +0.000 C 
ATOM      2  C   UNL     1       5.892   5.459  19.245  0.00  0.00    +0.000 C 
ENDROOT
BRANCH   1   3
ATOM      3  N   UNL     1       3.522   5.952  19.496  0.00  0.00    +0.000 N 
ATOM      4  C   UNL     1       3.080   6.945  18.650  0.00  0.00    +0.000 C 
ATOM      5  O   UNL     1       3.432   7.054  17.481  0.00  0.00    +0.000 OA
ATOM      6  H   UNL     1       3.238   5.964  20.468  0.00  0.00    +0.000 HD
BRANCH   4   7
ATOM      7  C   UNL     1       2.163   7.946  19.243  0.00  0.00    +0.000 A 
ATOM      8  C   UNL     1       1.777   7.773  20.572  0.00  0.00    +0.000 A 
ATOM      9  C   UNL     1       0.881   8.666  21.160  0.00  0.00    +0.000 A 
ATOM     10  C   UNL     1       0.365   9.767  20.451  0.00  0.00    +0.000 A 
ATOM     11  C   UNL     1       0.799   9.941  19.124  0.00  0.00    +0.000 A 
ATOM     12  C   UNL     1       1.687   9.042  18.521  0.00  0.00    +0.000 A 
BRANCH  10  13
ATOM     13  C   UNL     1      -0.594  10.700  21.083  0.00  0.00    +0.000 A 
ATOM     14  C   UNL     1      -0.776  10.724  22.478  0.00  0.00    +0.000 A 
ATOM     15  C   UNL     1      -1.703  11.578  23.082  0.00  0.00    +0.000 A 
ATOM     16  C   UNL     1      -2.468  12.447  22.302  0.00  0.00    +0.000 A 
ATOM     17  C   UNL     1      -2.281  12.472  20.915  0.00  0.00    +0.000 A 
ATOM     18  C   UNL     1      -1.367  11.593  20.319  0.00  0.00    +0.000 A 
BRANCH  16  19
ATOM     19  C   UNL     1      -3.423  13.348  22.999  0.00  0.00    +0.000 C 
ATOM     20  O   UNL     1      -4.514  13.632  22.535  0.00  0.00    +0.000 OA
BRANCH  19  21
ATOM     21  O   UNL     1      -2.965  13.859  24.161  0.00  0.00    +0.000 OA
ATOM     22  H   UNL     1      -2.294  13.322  24.617  0.00  0.00    +0.000 HD
ENDBRANCH  19  21
ENDBRANCH  16  19
ENDBRANCH  10  13
ENDBRANCH   4   7
ENDBRANCH   1   3
BRANCH   1  23
ATOM     23  C   UNL     1       4.155   4.304  17.710  0.00  0.00    +0.000 C 
BRANCH  23  24
ATOM     24  C   UNL     1       2.849   3.516  17.734  0.00  0.00    +0.000 C 
ATOM     25  O   UNL     1       2.152   3.255  16.761  0.00  0.00    +0.000 OA
BRANCH  24  27
ATOM     26  C   UNL     1       1.144   3.177  19.317  0.00  0.00    +0.000 C 
ATOM     27  O   UNL     1       2.541   3.159  19.017  0.00  0.00    +0.000 OA
ENDBRANCH  24  27
ENDBRANCH  23  24
BRANCH  23  28
ATOM     28  C   UNL     1       5.285   3.425  17.133  0.00  0.00    +0.000 C 
BRANCH  28  29
ATOM     29  C   UNL     1       5.867   3.881  15.812  0.00  0.00    +0.000 A 
ATOM     30  C   UNL     1       6.800   4.922  15.744  0.00  0.00    +0.000 A 
ATOM     31  C   UNL     1       7.333   5.323  14.518  0.00  0.00    +0.000 A 
ATOM     32  C   UNL     1       6.927   4.697  13.339  0.00  0.00    +0.000 A 
ATOM     33  C   UNL     1       5.981   3.670  13.385  0.00  0.00    +0.000 A 
ATOM     34  C   UNL     1       5.465   3.259  14.620  0.00  0.00    +0.000 A 
BRANCH  33  35
ATOM     35  C   UNL     1       5.524   3.020  12.126  0.00  0.00    +0.000 C 
ATOM     36  N   UNL     1       6.156   2.035  11.570  0.00  0.00    +0.000 NA
ATOM     37  N   UNL     1       4.397   3.452  11.491  0.00  0.00    +0.000 N 
ATOM     38  H   UNL     1       6.954   1.735  12.136  0.00  0.00    +0.000 HD
ATOM     39  H   UNL     1       4.231   4.449  11.510  0.00  0.00    +0.000 HD
ATOM     40  H   UNL     1       4.342   3.061  10.556  0.00  0.00    +0.000 HD
ENDBRANCH  33  35
ENDBRANCH  28  29
ENDBRANCH  23  28
ENDBRANCH   1  23
TORSDOF 11
ENDMDL
MODEL 9
REMARK VINA RESULT:      -7.9      1.884      3.609
REMARK  Name = 
REMARK  13 active torsions:
REMARK  status: ('A' for Active; 'I' for Inactive)
REMARK    1  A    between atoms: C_1  and  O_2
REMARK    2  A    between atoms: O_2  and  C_3
REMARK    3  A    between atoms: C_3  and  C_5
REMARK    4  A    between atoms: C_5  and  C_6
REMARK    5  A    between atoms: C_5  and  C_16
REMARK    6  A    between atoms: C_6  and  C_7
REMARK    7  A    between atoms: C_11  and  C_12
REMARK    8  A    between atoms: C_16  and  C_17
REMARK    9  A    between atoms: C_16  and  N_18
REMARK   10  A    between atoms: C_19  and  C_21
REMARK   11  A    between atoms: C_24  and  C_25
REMARK   12  A    between atoms: C_28  and  C_29
REMARK   13  A    between atoms: C_29  and  O_31
REMARK                            x       y       z     vdW  Elec       q    Type
REMARK                         _______ _______ _______ _____ _____    ______ ____
ROOT
ATOM      1  C   UNL     1       4.352   5.257  16.888  0.00  0.00    +0.000 C 
ATOM      2  C   UNL     1       3.700   3.883  17.095  0.00  0.00    +0.000 C 
ENDROOT
BRANCH   1   3
ATOM      3  N   UNL     1       3.546   6.263  17.578  0.00  0.00    +0.000 N 
ATOM      4  C   UNL     1       3.237   6.210  18.919  0.00  0.00    +0.000 C 
ATOM      5  O   UNL     1       3.607   5.316  19.671  0.00  0.00    +0.000 OA
ATOM      6  H   UNL     1       3.150   6.999  17.006  0.00  0.00    +0.000 HD
BRANCH   4   7
ATOM      7  C   UNL     1       2.365   7.292  19.431  0.00  0.00    +0.000 A 
ATOM      8  C   UNL     1       1.913   7.201  20.747  0.00  0.00    +0.000 A 
ATOM      9  C   UNL     1       1.055   8.175  21.259  0.00  0.00    +0.000 A 
ATOM     10  C   UNL     1       0.643   9.276  20.484  0.00  0.00    +0.000 A 
ATOM     11  C   UNL     1       1.143   9.364  19.172  0.00  0.00    +0.000 A 
ATOM     12  C   UNL     1       1.993   8.385  18.645  0.00  0.00    +0.000 A 
BRANCH  10  13
ATOM     13  C   UNL     1      -0.277  10.295  21.036  0.00  0.00    +0.000 A 
ATOM     14  C   UNL     1      -0.926  11.221  20.198  0.00  0.00    +0.000 A 
ATOM     15  C   UNL     1      -1.771  12.208  20.713  0.00  0.00    +0.000 A 
ATOM     16  C   UNL     1      -2.003  12.287  22.087  0.00  0.00    +0.000 A 
ATOM     17  C   UNL     1      -1.402  11.354  22.940  0.00  0.00    +0.000 A 
ATOM     18  C   UNL     1      -0.537  10.385  22.416  0.00  0.00    +0.000 A 
BRANCH  16  19
ATOM     19  C   UNL     1      -2.929  13.343  22.577  0.00  0.00    +0.000 C 
ATOM     20  O   UNL     1      -3.757  13.136  23.446  0.00  0.00    +0.000 OA
BRANCH  19  21
ATOM     21  O   UNL     1      -2.804  14.531  21.950  0.00  0.00    +0.000 OA
ATOM     22  H   UNL     1      -3.040  15.311  22.482  0.00  0.00    +0.000 HD
ENDBRANCH  19  21
ENDBRANCH  16  19
ENDBRANCH  10  13
ENDBRANCH   4   7
ENDBRANCH   1   3
BRANCH   1  23
ATOM     23  C   UNL     1       5.852   5.313  17.275  0.00  0.00    +0.000 C 
BRANCH  23  24
ATOM     24  C   UNL     1       6.432   6.700  17.016  0.00  0.00    +0.000 C 
ATOM     25  O   UNL     1       5.965   7.542  16.259  0.00  0.00    +0.000 OA
BRANCH  24  27
ATOM     26  C   UNL     1       8.016   8.224  17.851  0.00  0.00    +0.000 C 
ATOM     27  O   UNL     1       7.584   6.867  17.733  0.00  0.00    +0.000 OA
ENDBRANCH  24  27
ENDBRANCH  23  24
BRANCH  23  28
ATOM     28  C   UNL     1       6.725   4.245  16.585  0.00  0.00    +0.000 C 
BRANCH  28  29
ATOM     29  C   UNL     1       6.882   4.389  15.086  0.00  0.00    +0.000 A 
ATOM     30  C   UNL     1       7.758   5.328  14.529  0.00  0.00    +0.000 A 
ATOM     31  C   UNL     1       7.897   5.440  13.144  0.00  0.00    +0.000 A 
ATOM     32  C   UNL     1       7.147   4.625  12.296  0.00  0.00    +0.000 A 
ATOM     33  C   UNL     1       6.252   3.696  12.834  0.00  0.00    +0.000 A 
ATOM     34  C   UNL     1       6.133   3.574  14.223  0.00  0.00    +0.000 A 
BRANCH  33  35
ATOM     35  C   UNL     1       5.430   2.844  11.931  0.00  0.00    +0.000 C 
ATOM     36  N   UNL     1       5.801   1.666  11.539  0.00  0.00    +0.000 NA
ATOM     37  N   UNL     1       4.226   3.286  11.466  0.00  0.00    +0.000 N 
ATOM     38  H   UNL     1       6.683   1.387  11.976  0.00  0.00    +0.000 HD
ATOM     39  H   UNL     1       4.169   4.272  11.250  0.00  0.00    +0.000 HD
ATOM     40  H   UNL     1       3.898   2.696  10.709  0.00  0.00    +0.000 HD
ENDBRANCH  33  35
ENDBRANCH  28  29
ENDBRANCH  23  28
ENDBRANCH   1  23
TORSDOF 11
ENDMDL
