MODEL 1
REMARK VINA RESULT:      -8.0      0.000      0.000
REMARK  Name = 
REMARK  14 active torsions:
REMARK  status: ('A' for Active; 'I' for Inactive)
REMARK    1  A    between atoms: C_1  and  O_2
REMARK    2  A    between atoms: O_2  and  C_3
REMARK    3  A    between atoms: C_5  and  O_6
REMARK    4  A    between atoms: O_6  and  C_7
REMARK    5  A    between atoms: C_9  and  N_10
REMARK    6  A    between atoms: N_10  and  C_11
REMARK    7  A    between atoms: N_10  and  C_17
REMARK    8  A    between atoms: C_11  and  C_12
REMARK    9  A    between atoms: C_12  and  N_13
REMARK   10  A    between atoms: N_13  and  C_14
REMARK   11  A    between atoms: C_14  and  C_15
REMARK   12  A    between atoms: C_14  and  C_16
REMARK   13  A    between atoms: C_23  and  O_24
REMARK   14  A    between atoms: O_24  and  C_25
REMARK                            x       y       z     vdW  Elec       q    Type
REMARK                         _______ _______ _______ _____ _____    ______ ____
ROOT
ATOM      1  N   UNL     1       3.151   4.983  18.155  0.00  0.00    +0.000 N 
ENDROOT
BRANCH   1   2
ATOM      2  C   UNL     1       2.589   6.085  18.817  0.00  0.00    +0.000 A 
ATOM      3  C   UNL     1       2.202   5.884  20.197  0.00  0.00    +0.000 A 
ATOM      4  C   UNL     1       1.671   6.867  20.926  0.00  0.00    +0.000 A 
ATOM      5  C   UNL     1       1.490   8.208  20.324  0.00  0.00    +0.000 A 
ATOM      6  N   UNL     1       0.999   9.141  21.077  0.00  0.00    +0.000 NA
ATOM      7  C   UNL     1       0.825  10.365  20.511  0.00  0.00    +0.000 A 
ATOM      8  C   UNL     1       1.087  10.705  19.243  0.00  0.00    +0.000 A 
ATOM      9  C   UNL     1       1.689   9.620  18.383  0.00  0.00    +0.000 A 
ATOM     10  O   UNL     1       1.986   9.853  17.204  0.00  0.00    +0.000 OA
ATOM     11  N   UNL     1       1.857   8.374  18.999  0.00  0.00    +0.000 N 
ATOM     12  C   UNL     1       2.402   7.310  18.284  0.00  0.00    +0.000 A 
BRANCH   8  13
ATOM     13  O   UNL     1       0.834  11.939  18.664  0.00  0.00    +0.000 OA
BRANCH  13  14
ATOM     14  C   UNL     1       1.627  13.052  19.117  0.00  0.00    +0.000 C 
ATOM     15  C   UNL     1       0.776  14.327  19.145  0.00  0.00    +0.000 C 
ATOM     16  C   UNL     1       1.633  15.565  19.333  0.00  0.00    +0.000 C 
ATOM     17  O   UNL     1       2.658  15.620  18.345  0.00  0.00    +0.000 OA
ATOM     18  C   UNL     1       3.556  14.518  18.447  0.00  0.00    +0.000 C 
ATOM     19  C   UNL     1       2.832  13.205  18.187  0.00  0.00    +0.000 C 
ENDBRANCH  13  14
ENDBRANCH   8  13
ENDBRANCH   1   2
BRANCH   1  24
ATOM     20  C   UNL     1       6.082   5.359  15.882  0.00  0.00    +0.000 A 
ATOM     21  C   UNL     1       7.147   5.193  16.760  0.00  0.00    +0.000 A 
ATOM     22  C   UNL     1       6.917   4.954  18.115  0.00  0.00    +0.000 A 
ATOM     23  C   UNL     1       5.606   4.928  18.614  0.00  0.00    +0.000 A 
ATOM     24  C   UNL     1       4.512   5.076  17.751  0.00  0.00    +0.000 A 
ATOM     25  C   UNL     1       4.781   5.287  16.379  0.00  0.00    +0.000 A 
BRANCH  20  27
ATOM     26  C   UNL     1       6.685   4.413  13.789  0.00  0.00    +0.000 C 
ATOM     27  O   UNL     1       6.428   5.571  14.575  0.00  0.00    +0.000 OA
ENDBRANCH  20  27
BRANCH  22  28
ATOM     28  O   UNL     1       8.045   4.785  18.875  0.00  0.00    +0.000 OA
ATOM     29  C   UNL     1       8.182   5.690  19.964  0.00  0.00    +0.000 C 
ENDBRANCH  22  28
ENDBRANCH   1  24
BRANCH   1  30
ATOM     30  C   UNL     1       2.235   4.096  17.392  0.00  0.00    +0.000 C 
BRANCH  30  31
ATOM     31  C   UNL     1       2.156   2.647  17.927  0.00  0.00    +0.000 C 
BRANCH  31  32
ATOM     32  N   UNL     1       2.767   2.355  19.233  0.00  0.00    +0.000 NA
ATOM     33  H   UNL     1       3.429   3.107  19.442  0.00  0.00    +0.000 HD
BRANCH  32  34
ATOM     34  C   UNL     1       1.849   2.188  20.366  0.00  0.00    +0.000 C 
ATOM     35  C   UNL     1       2.383   2.718  21.697  0.00  0.00    +0.000 C 
ATOM     36  C   UNL     1       0.540   2.908  20.026  0.00  0.00    +0.000 C 
ENDBRANCH  32  34
ENDBRANCH  31  32
ENDBRANCH  30  31
ENDBRANCH   1  30
TORSDOF 10
ENDMDL
MODEL 2
REMARK VINA RESULT:      -7.9      2.566      3.415
REMARK  Name = 
REMARK  14 active torsions:
REMARK  status: ('A' for Active; 'I' for Inactive)
REMARK    1  A    between atoms: C_1  and  O_2
REMARK    2  A    between atoms: O_2  and  C_3
REMARK    3  A    between atoms: C_5  and  O_6
REMARK    4  A    between atoms: O_6  and  C_7
REMARK    5  A    between atoms: C_9  and  N_10
REMARK    6  A    between atoms: N_10  and  C_11
REMARK    7  A    between atoms: N_10  and  C_17
REMARK    8  A    between atoms: C_11  and  C_12
REMARK    9  A    between atoms: C_12  and  N_13
REMARK   10  A    between atoms: N_13  and  C_14
REMARK   11  A    between atoms: C_14  and  C_15
REMARK   12  A    between atoms: C_14  and  C_16
REMARK   13  A    between atoms: C_23  and  O_24
REMARK   14  A    between atoms: O_24  and  C_25
REMARK                            x       y       z     vdW  Elec       q    Type
REMARK                         _______ _______ _______ _____ _____    ______ ____
ROOT
ATOM      1  N   UNL     1       2.546   5.791  18.434  0.00  0.00    +0.000 N 
ENDROOT
BRANCH   1   2
ATOM      2  C   UNL     1       2.201   7.134  18.652  0.00  0.00    +0.000 A 
ATOM      3  C   UNL     1       2.351   8.033  17.528  0.00  0.00    +0.000 A 
ATOM      4  C   UNL     1       2.041   9.328  17.620  0.00  0.00    +0.000 A 
ATOM      5  C   UNL     1       1.505   9.862  18.894  0.00  0.00    +0.000 A 
ATOM      6  N   UNL     1       1.188  11.117  18.929  0.00  0.00    +0.000 NA
ATOM      7  C   UNL     1       0.709  11.601  20.106  0.00  0.00    +0.000 A 
ATOM      8  C   UNL     1       0.551  10.919  21.247  0.00  0.00    +0.000 A 
ATOM      9  C   UNL     1       0.894   9.450  21.187  0.00  0.00    +0.000 A 
ATOM     10  O   UNL     1       0.755   8.736  22.188  0.00  0.00    +0.000 OA
ATOM     11  N   UNL     1       1.380   8.985  19.958  0.00  0.00    +0.000 N 
ATOM     12  C   UNL     1       1.726   7.645  19.807  0.00  0.00    +0.000 A 
BRANCH   8  13
ATOM     13  O   UNL     1       0.131  11.447  22.458  0.00  0.00    +0.000 OA
BRANCH  13  14
ATOM     14  C   UNL     1      -1.079  12.227  22.450  0.00  0.00    +0.000 C 
ATOM     15  C   UNL     1      -0.798  13.639  22.976  0.00  0.00    +0.000 C 
ATOM     16  C   UNL     1      -2.083  14.395  23.257  0.00  0.00    +0.000 C 
ATOM     17  O   UNL     1      -2.922  13.649  24.133  0.00  0.00    +0.000 OA
ATOM     18  C   UNL     1      -3.329  12.412  23.556  0.00  0.00    +0.000 C 
ATOM     19  C   UNL     1      -2.128  11.512  23.304  0.00  0.00    +0.000 C 
ENDBRANCH  13  14
ENDBRANCH   8  13
ENDBRANCH   1   2
BRANCH   1  24
ATOM     20  C   UNL     1       5.694   4.496  16.911  0.00  0.00    +0.000 A 
ATOM     21  C   UNL     1       6.610   4.695  17.939  0.00  0.00    +0.000 A 
ATOM     22  C   UNL     1       6.205   5.258  19.150  0.00  0.00    +0.000 A 
ATOM     23  C   UNL     1       4.878   5.675  19.324  0.00  0.00    +0.000 A 
ATOM     24  C   UNL     1       3.928   5.474  18.313  0.00  0.00    +0.000 A 
ATOM     25  C   UNL     1       4.366   4.874  17.111  0.00  0.00    +0.000 A 
BRANCH  20  27
ATOM     26  C   UNL     1       6.769   4.802  14.816  0.00  0.00    +0.000 C 
ATOM     27  O   UNL     1       6.201   3.921  15.778  0.00  0.00    +0.000 OA
ENDBRANCH  20  27
BRANCH  22  28
ATOM     28  O   UNL     1       7.193   5.381  20.091  0.00  0.00    +0.000 OA
ATOM     29  C   UNL     1       8.508   5.539  19.572  0.00  0.00    +0.000 C 
ENDBRANCH  22  28
ENDBRANCH   1  24
BRANCH   1  30
ATOM     30  C   UNL     1       1.549   4.924  17.754  0.00  0.00    +0.000 C 
BRANCH  30  31
ATOM     31  C   UNL     1       1.302   3.567  18.453  0.00  0.00    +0.000 C 
BRANCH  31  32
ATOM     32  N   UNL     1       0.944   3.576  19.880  0.00  0.00    +0.000 NA
ATOM     33  H   UNL     1       0.175   2.914  20.013  0.00  0.00    +0.000 HD
BRANCH  32  34
ATOM     34  C   UNL     1       2.019   3.266  20.830  0.00  0.00    +0.000 C 
ATOM     35  C   UNL     1       1.572   2.469  22.055  0.00  0.00    +0.000 C 
ATOM     36  C   UNL     1       3.098   2.474  20.082  0.00  0.00    +0.000 C 
ENDBRANCH  32  34
ENDBRANCH  31  32
ENDBRANCH  30  31
ENDBRANCH   1  30
TORSDOF 10
ENDMDL
MODEL 3
REMARK VINA RESULT:      -7.9      0.954      1.117
REMARK  Name = 
REMARK  14 active torsions:
REMARK  status: ('A' for Active; 'I' for Inactive)
REMARK    1  A    between atoms: C_1  and  O_2
REMARK    2  A    between atoms: O_2  and  C_3
REMARK    3  A    between atoms: C_5  and  O_6
REMARK    4  A    between atoms: O_6  and  C_7
REMARK    5  A    between atoms: C_9  and  N_10
REMARK    6  A    between atoms: N_10  and  C_11
REMARK    7  A    between atoms: N_10  and  C_17
REMARK    8  A    between atoms: C_11  and  C_12
REMARK    9  A    between atoms: C_12  and  N_13
REMARK   10  A    between atoms: N_13  and  C_14
REMARK   11  A    between atoms: C_14  and  C_15
REMARK   12  A    between atoms: C_14  and  C_16
REMARK   13  A    between atoms: C_23  and  O_24
REMARK   14  A    between atoms: O_24  and  C_25
REMARK                            x       y       z     vdW  Elec       q    Type
REMARK                         _______ _______ _______ _____ _____    ______ ____
ROOT
ATOM      1  N   UNL     1       2.919   5.100  18.175  0.00  0.00    +0.000 N 
ENDROOT
BRANCH   1   2
ATOM      2  C   UNL     1       2.410   6.220  18.849  0.00  0.00    +0.000 A 
ATOM      3  C   UNL     1       2.047   6.031  20.238  0.00  0.00    +0.000 A 
ATOM      4  C   UNL     1       1.565   7.031  20.978  0.00  0.00    +0.000 A 
ATOM      5  C   UNL     1       1.415   8.378  20.379  0.00  0.00    +0.000 A 
ATOM      6  N   UNL     1       0.973   9.326  21.143  0.00  0.00    +0.000 NA
ATOM      7  C   UNL     1       0.828  10.555  20.581  0.00  0.00    +0.000 A 
ATOM      8  C   UNL     1       1.073  10.887  19.308  0.00  0.00    +0.000 A 
ATOM      9  C   UNL     1       1.618   9.783  18.434  0.00  0.00    +0.000 A 
ATOM     10  O   UNL     1       1.896  10.007  17.249  0.00  0.00    +0.000 OA
ATOM     11  N   UNL     1       1.759   8.532  19.047  0.00  0.00    +0.000 N 
ATOM     12  C   UNL     1       2.251   7.451  18.321  0.00  0.00    +0.000 A 
BRANCH   8  13
ATOM     13  O   UNL     1       0.848  12.130  18.734  0.00  0.00    +0.000 OA
BRANCH  13  14
ATOM     14  C   UNL     1       1.679  13.218  19.179  0.00  0.00    +0.000 C 
ATOM     15  C   UNL     1       0.864  14.515  19.228  0.00  0.00    +0.000 C 
ATOM     16  C   UNL     1       1.758  15.728  19.408  0.00  0.00    +0.000 C 
ATOM     17  O   UNL     1       2.765  15.761  18.402  0.00  0.00    +0.000 OA
ATOM     18  C   UNL     1       3.634  14.635  18.481  0.00  0.00    +0.000 C 
ATOM     19  C   UNL     1       2.871  13.343  18.227  0.00  0.00    +0.000 C 
ENDBRANCH  13  14
ENDBRANCH   8  13
ENDBRANCH   1   2
BRANCH   1  24
ATOM     20  C   UNL     1       5.826   4.392  15.949  0.00  0.00    +0.000 A 
ATOM     21  C   UNL     1       6.825   5.167  16.530  0.00  0.00    +0.000 A 
ATOM     22  C   UNL     1       6.557   5.934  17.664  0.00  0.00    +0.000 A 
ATOM     23  C   UNL     1       5.262   5.969  18.201  0.00  0.00    +0.000 A 
ATOM     24  C   UNL     1       4.238   5.188  17.648  0.00  0.00    +0.000 A 
ATOM     25  C   UNL     1       4.552   4.399  16.517  0.00  0.00    +0.000 A 
BRANCH  20  27
ATOM     26  C   UNL     1       6.850   4.389  13.807  0.00  0.00    +0.000 C 
ATOM     27  O   UNL     1       6.209   3.669  14.852  0.00  0.00    +0.000 OA
ENDBRANCH  20  27
BRANCH  22  28
ATOM     28  O   UNL     1       7.626   6.634  18.157  0.00  0.00    +0.000 OA
ATOM     29  C   UNL     1       7.779   7.950  17.637  0.00  0.00    +0.000 C 
ENDBRANCH  22  28
ENDBRANCH   1  24
BRANCH   1  30
ATOM     30  C   UNL     1       1.946   4.184  17.525  0.00  0.00    +0.000 C 
BRANCH  30  31
ATOM     31  C   UNL     1       1.462   3.023  18.427  0.00  0.00    +0.000 C 
BRANCH  31  32
ATOM     32  N   UNL     1       2.477   2.164  19.056  0.00  0.00    +0.000 NA
ATOM     33  H   UNL     1       3.192   1.960  18.352  0.00  0.00    +0.000 HD
BRANCH  32  34
ATOM     34  C   UNL     1       3.122   2.685  20.266  0.00  0.00    +0.000 C 
ATOM     35  C   UNL     1       2.309   2.497  21.548  0.00  0.00    +0.000 C 
ATOM     36  C   UNL     1       4.475   1.984  20.422  0.00  0.00    +0.000 C 
ENDBRANCH  32  34
ENDBRANCH  31  32
ENDBRANCH  30  31
ENDBRANCH   1  30
TORSDOF 10
ENDMDL
MODEL 4
REMARK VINA RESULT:      -7.9      0.637      2.204
REMARK  Name = 
REMARK  14 active torsions:
REMARK  status: ('A' for Active; 'I' for Inactive)
REMARK    1  A    between atoms: C_1  and  O_2
REMARK    2  A    between atoms: O_2  and  C_3
REMARK    3  A    between atoms: C_5  and  O_6
REMARK    4  A    between atoms: O_6  and  C_7
REMARK    5  A    between atoms: C_9  and  N_10
REMARK    6  A    between atoms: N_10  and  C_11
REMARK    7  A    between atoms: N_10  and  C_17
REMARK    8  A    between atoms: C_11  and  C_12
REMARK    9  A    between atoms: C_12  and  N_13
REMARK   10  A    between atoms: N_13  and  C_14
REMARK   11  A    between atoms: C_14  and  C_15
REMARK   12  A    between atoms: C_14  and  C_16
REMARK   13  A    between atoms: C_23  and  O_24
REMARK   14  A    between atoms: O_24  and  C_25
REMARK                            x       y       z     vdW  Elec       q    Type
REMARK                         _______ _______ _______ _____ _____    ______ ____
ROOT
ATOM      1  N   UNL     1       3.192   5.080  18.108  0.00  0.00    +0.000 N 
ENDROOT
BRANCH   1   2
ATOM      2  C   UNL     1       2.598   6.158  18.783  0.00  0.00    +0.000 A 
ATOM      3  C   UNL     1       2.156   5.910  20.139  0.00  0.00    +0.000 A 
ATOM      4  C   UNL     1       1.590   6.866  20.877  0.00  0.00    +0.000 A 
ATOM      5  C   UNL     1       1.427   8.226  20.312  0.00  0.00    +0.000 A 
ATOM      6  N   UNL     1       0.901   9.131  21.075  0.00  0.00    +0.000 NA
ATOM      7  C   UNL     1       0.744  10.372  20.543  0.00  0.00    +0.000 A 
ATOM      8  C   UNL     1       1.056  10.755  19.299  0.00  0.00    +0.000 A 
ATOM      9  C   UNL     1       1.697   9.702  18.428  0.00  0.00    +0.000 A 
ATOM     10  O   UNL     1       2.040   9.975  17.271  0.00  0.00    +0.000 OA
ATOM     11  N   UNL     1       1.847   8.437  19.010  0.00  0.00    +0.000 N 
ATOM     12  C   UNL     1       2.426   7.400  18.283  0.00  0.00    +0.000 A 
BRANCH   8  13
ATOM     13  O   UNL     1       0.820  12.007  18.750  0.00  0.00    +0.000 OA
BRANCH  13  14
ATOM     14  C   UNL     1       1.645  13.092  19.213  0.00  0.00    +0.000 C 
ATOM     15  C   UNL     1       0.797  14.356  19.396  0.00  0.00    +0.000 C 
ATOM     16  C   UNL     1       1.664  15.585  19.598  0.00  0.00    +0.000 C 
ATOM     17  O   UNL     1       2.605  15.714  18.537  0.00  0.00    +0.000 OA
ATOM     18  C   UNL     1       3.510  14.614  18.490  0.00  0.00    +0.000 C 
ATOM     19  C   UNL     1       2.770  13.317  18.201  0.00  0.00    +0.000 C 
ENDBRANCH  13  14
ENDBRANCH   8  13
ENDBRANCH   1   2
BRANCH   1  24
ATOM     20  C   UNL     1       6.817   5.944  17.996  0.00  0.00    +0.000 A 
ATOM     21  C   UNL     1       7.103   5.800  16.642  0.00  0.00    +0.000 A 
ATOM     22  C   UNL     1       6.106   5.417  15.745  0.00  0.00    +0.000 A 
ATOM     23  C   UNL     1       4.815   5.124  16.208  0.00  0.00    +0.000 A 
ATOM     24  C   UNL     1       4.492   5.275  17.564  0.00  0.00    +0.000 A 
ATOM     25  C   UNL     1       5.519   5.694  18.441  0.00  0.00    +0.000 A 
BRANCH  20  27
ATOM     26  C   UNL     1       8.127   5.563  19.939  0.00  0.00    +0.000 C 
ATOM     27  O   UNL     1       7.868   6.341  18.777  0.00  0.00    +0.000 OA
ENDBRANCH  20  27
BRANCH  22  28
ATOM     28  O   UNL     1       6.503   5.332  14.437  0.00  0.00    +0.000 OA
ATOM     29  C   UNL     1       6.312   4.061  13.827  0.00  0.00    +0.000 C 
ENDBRANCH  22  28
ENDBRANCH   1  24
BRANCH   1  30
ATOM     30  C   UNL     1       2.292   4.082  17.476  0.00  0.00    +0.000 C 
BRANCH  30  31
ATOM     31  C   UNL     1       2.630   2.611  17.817  0.00  0.00    +0.000 C 
BRANCH  31  32
ATOM     32  N   UNL     1       2.300   2.118  19.163  0.00  0.00    +0.000 NA
ATOM     33  H   UNL     1       2.441   1.104  19.167  0.00  0.00    +0.000 HD
BRANCH  32  34
ATOM     34  C   UNL     1       3.039   2.715  20.281  0.00  0.00    +0.000 C 
ATOM     35  C   UNL     1       2.388   2.514  21.650  0.00  0.00    +0.000 C 
ATOM     36  C   UNL     1       4.445   2.106  20.299  0.00  0.00    +0.000 C 
ENDBRANCH  32  34
ENDBRANCH  31  32
ENDBRANCH  30  31
ENDBRANCH   1  30
TORSDOF 10
ENDMDL
MODEL 5
REMARK VINA RESULT:      -7.8      1.135      1.976
REMARK  Name = 
REMARK  14 active torsions:
REMARK  status: ('A' for Active; 'I' for Inactive)
REMARK    1  A    between atoms: C_1  and  O_2
REMARK    2  A    between atoms: O_2  and  C_3
REMARK    3  A    between atoms: C_5  and  O_6
REMARK    4  A    between atoms: O_6  and  C_7
REMARK    5  A    between atoms: C_9  and  N_10
REMARK    6  A    between atoms: N_10  and  C_11
REMARK    7  A    between atoms: N_10  and  C_17
REMARK    8  A    between atoms: C_11  and  C_12
REMARK    9  A    between atoms: C_12  and  N_13
REMARK   10  A    between atoms: N_13  and  C_14
REMARK   11  A    between atoms: C_14  and  C_15
REMARK   12  A    between atoms: C_14  and  C_16
REMARK   13  A    between atoms: C_23  and  O_24
REMARK   14  A    between atoms: O_24  and  C_25
REMARK                            x       y       z     vdW  Elec       q    Type
REMARK                         _______ _______ _______ _____ _____    ______ ____
ROOT
ATOM      1  N   UNL     1       2.790   5.118  18.064  0.00  0.00    +0.000 N 
ENDROOT
BRANCH   1   2
ATOM      2  C   UNL     1       2.332   6.229  18.789  0.00  0.00    +0.000 A 
ATOM      3  C   UNL     1       2.030   6.011  20.187  0.00  0.00    +0.000 A 
ATOM      4  C   UNL     1       1.601   6.999  20.974  0.00  0.00    +0.000 A 
ATOM      5  C   UNL     1       1.448   8.363  20.416  0.00  0.00    +0.000 A 
ATOM      6  N   UNL     1       1.058   9.298  21.222  0.00  0.00    +0.000 NA
ATOM      7  C   UNL     1       0.908  10.544  20.698  0.00  0.00    +0.000 A 
ATOM      8  C   UNL     1       1.100  10.904  19.423  0.00  0.00    +0.000 A 
ATOM      9  C   UNL     1       1.586   9.814  18.499  0.00  0.00    +0.000 A 
ATOM     10  O   UNL     1       1.813  10.063  17.308  0.00  0.00    +0.000 OA
ATOM     11  N   UNL     1       1.732   8.545  19.073  0.00  0.00    +0.000 N 
ATOM     12  C   UNL     1       2.171   7.475  18.298  0.00  0.00    +0.000 A 
BRANCH   8  13
ATOM     13  O   UNL     1       0.872  12.164  18.891  0.00  0.00    +0.000 OA
BRANCH  13  14
ATOM     14  C   UNL     1       1.773  13.216  19.284  0.00  0.00    +0.000 C 
ATOM     15  C   UNL     1       1.005  14.532  19.450  0.00  0.00    +0.000 C 
ATOM     16  C   UNL     1       1.946  15.715  19.576  0.00  0.00    +0.000 C 
ATOM     17  O   UNL     1       2.852  15.754  18.478  0.00  0.00    +0.000 OA
ATOM     18  C   UNL     1       3.692  14.603  18.440  0.00  0.00    +0.000 C 
ATOM     19  C   UNL     1       2.870  13.340  18.225  0.00  0.00    +0.000 C 
ENDBRANCH  13  14
ENDBRANCH   8  13
ENDBRANCH   1   2
BRANCH   1  24
ATOM     20  C   UNL     1       6.025   6.626  16.986  0.00  0.00    +0.000 A 
ATOM     21  C   UNL     1       6.525   5.648  16.132  0.00  0.00    +0.000 A 
ATOM     22  C   UNL     1       5.804   4.477  15.897  0.00  0.00    +0.000 A 
ATOM     23  C   UNL     1       4.589   4.252  16.560  0.00  0.00    +0.000 A 
ATOM     24  C   UNL     1       4.052   5.225  17.415  0.00  0.00    +0.000 A 
ATOM     25  C   UNL     1       4.795   6.413  17.606  0.00  0.00    +0.000 A 
BRANCH  20  27
ATOM     26  C   UNL     1       7.937   7.618  17.985  0.00  0.00    +0.000 C 
ATOM     27  O   UNL     1       6.810   7.738  17.125  0.00  0.00    +0.000 OA
ENDBRANCH  20  27
BRANCH  22  28
ATOM     28  O   UNL     1       6.388   3.601  15.020  0.00  0.00    +0.000 OA
ATOM     29  C   UNL     1       6.353   3.999  13.655  0.00  0.00    +0.000 C 
ENDBRANCH  22  28
ENDBRANCH   1  24
BRANCH   1  30
ATOM     30  C   UNL     1       1.772   4.191  17.506  0.00  0.00    +0.000 C 
BRANCH  30  31
ATOM     31  C   UNL     1       1.801   2.769  18.115  0.00  0.00    +0.000 C 
BRANCH  31  32
ATOM     32  N   UNL     1       1.163   2.561  19.424  0.00  0.00    +0.000 NA
ATOM     33  H   UNL     1       0.438   1.849  19.307  0.00  0.00    +0.000 HD
BRANCH  32  34
ATOM     34  C   UNL     1       2.045   2.179  20.533  0.00  0.00    +0.000 C 
ATOM     35  C   UNL     1       3.506   2.590  20.349  0.00  0.00    +0.000 C 
ATOM     36  C   UNL     1       1.500   2.819  21.814  0.00  0.00    +0.000 C 
ENDBRANCH  32  34
ENDBRANCH  31  32
ENDBRANCH  30  31
ENDBRANCH   1  30
TORSDOF 10
ENDMDL
MODEL 6
REMARK VINA RESULT:      -7.8      1.911      2.597
REMARK  Name = 
REMARK  14 active torsions:
REMARK  status: ('A' for Active; 'I' for Inactive)
REMARK    1  A    between atoms: C_1  and  O_2
REMARK    2  A    between atoms: O_2  and  C_3
REMARK    3  A    between atoms: C_5  and  O_6
REMARK    4  A    between atoms: O_6  and  C_7
REMARK    5  A    between atoms: C_9  and  N_10
REMARK    6  A    between atoms: N_10  and  C_11
REMARK    7  A    between atoms: N_10  and  C_17
REMARK    8  A    between atoms: C_11  and  C_12
REMARK    9  A    between atoms: C_12  and  N_13
REMARK   10  A    between atoms: N_13  and  C_14
REMARK   11  A    between atoms: C_14  and  C_15
REMARK   12  A    between atoms: C_14  and  C_16
REMARK   13  A    between atoms: C_23  and  O_24
REMARK   14  A    between atoms: O_24  and  C_25
REMARK                            x       y       z     vdW  Elec       q    Type
REMARK                         _______ _______ _______ _____ _____    ______ ____
ROOT
ATOM      1  N   UNL     1       3.578   4.986  18.012  0.00  0.00    +0.000 N 
ENDROOT
BRANCH   1   2
ATOM      2  C   UNL     1       2.862   5.961  18.723  0.00  0.00    +0.000 A 
ATOM      3  C   UNL     1       2.450   5.613  20.066  0.00  0.00    +0.000 A 
ATOM      4  C   UNL     1       1.776   6.468  20.837  0.00  0.00    +0.000 A 
ATOM      5  C   UNL     1       1.456   7.820  20.321  0.00  0.00    +0.000 A 
ATOM      6  N   UNL     1       0.828   8.628  21.114  0.00  0.00    +0.000 NA
ATOM      7  C   UNL     1       0.528   9.862  20.628  0.00  0.00    +0.000 A 
ATOM      8  C   UNL     1       0.794  10.325  19.401  0.00  0.00    +0.000 A 
ATOM      9  C   UNL     1       1.555   9.387  18.495  0.00  0.00    +0.000 A 
ATOM     10  O   UNL     1       1.866   9.741  17.351  0.00  0.00    +0.000 OA
ATOM     11  N   UNL     1       1.850   8.127  19.030  0.00  0.00    +0.000 N 
ATOM     12  C   UNL     1       2.547   7.192  18.269  0.00  0.00    +0.000 A 
BRANCH   8  13
ATOM     13  O   UNL     1       0.415  11.561  18.898  0.00  0.00    +0.000 OA
BRANCH  13  14
ATOM     14  C   UNL     1      -0.893  11.655  18.304  0.00  0.00    +0.000 C 
ATOM     15  C   UNL     1      -1.900  12.187  19.329  0.00  0.00    +0.000 C 
ATOM     16  C   UNL     1      -3.328  12.028  18.843  0.00  0.00    +0.000 C 
ATOM     17  O   UNL     1      -3.587  10.675  18.483  0.00  0.00    +0.000 OA
ATOM     18  C   UNL     1      -2.767  10.245  17.399  0.00  0.00    +0.000 C 
ATOM     19  C   UNL     1      -1.297  10.271  17.790  0.00  0.00    +0.000 C 
ENDBRANCH  13  14
ENDBRANCH   8  13
ENDBRANCH   1   2
BRANCH   1  24
ATOM     20  C   UNL     1       6.549   5.049  15.760  0.00  0.00    +0.000 A 
ATOM     21  C   UNL     1       7.439   5.835  16.485  0.00  0.00    +0.000 A 
ATOM     22  C   UNL     1       7.074   6.357  17.726  0.00  0.00    +0.000 A 
ATOM     23  C   UNL     1       5.786   6.133  18.234  0.00  0.00    +0.000 A 
ATOM     24  C   UNL     1       4.873   5.332  17.535  0.00  0.00    +0.000 A 
ATOM     25  C   UNL     1       5.286   4.795  16.294  0.00  0.00    +0.000 A 
BRANCH  20  27
ATOM     26  C   UNL     1       6.096   3.875  13.746  0.00  0.00    +0.000 C 
ATOM     27  O   UNL     1       7.022   4.579  14.566  0.00  0.00    +0.000 OA
ENDBRANCH  20  27
BRANCH  22  28
ATOM     28  O   UNL     1       8.043   7.095  18.353  0.00  0.00    +0.000 OA
ATOM     29  C   UNL     1       8.141   8.450  17.929  0.00  0.00    +0.000 C 
ENDBRANCH  22  28
ENDBRANCH   1  24
BRANCH   1  30
ATOM     30  C   UNL     1       2.798   3.951  17.285  0.00  0.00    +0.000 C 
BRANCH  30  31
ATOM     31  C   UNL     1       2.889   2.534  17.901  0.00  0.00    +0.000 C 
BRANCH  31  32
ATOM     32  N   UNL     1       2.984   2.418  19.364  0.00  0.00    +0.000 NA
ATOM     33  H   UNL     1       3.321   3.314  19.726  0.00  0.00    +0.000 HD
BRANCH  32  34
ATOM     34  C   UNL     1       1.758   2.038  20.075  0.00  0.00    +0.000 C 
ATOM     35  C   UNL     1       1.667   2.563  21.508  0.00  0.00    +0.000 C 
ATOM     36  C   UNL     1       0.562   2.562  19.271  0.00  0.00    +0.000 C 
ENDBRANCH  32  34
ENDBRANCH  31  32
ENDBRANCH  30  31
ENDBRANCH   1  30
TORSDOF 10
ENDMDL
MODEL 7
REMARK VINA RESULT:      -7.7      0.912      2.188
REMARK  Name = 
REMARK  14 active torsions:
REMARK  status: ('A' for Active; 'I' for Inactive)
REMARK    1  A    between atoms: C_1  and  O_2
REMARK    2  A    between atoms: O_2  and  C_3
REMARK    3  A    between atoms: C_5  and  O_6
REMARK    4  A    between atoms: O_6  and  C_7
REMARK    5  A    between atoms: C_9  and  N_10
REMARK    6  A    between atoms: N_10  and  C_11
REMARK    7  A    between atoms: N_10  and  C_17
REMARK    8  A    between atoms: C_11  and  C_12
REMARK    9  A    between atoms: C_12  and  N_13
REMARK   10  A    between atoms: N_13  and  C_14
REMARK   11  A    between atoms: C_14  and  C_15
REMARK   12  A    between atoms: C_14  and  C_16
REMARK   13  A    between atoms: C_23  and  O_24
REMARK   14  A    between atoms: O_24  and  C_25
REMARK                            x       y       z     vdW  Elec       q    Type
REMARK                         _______ _______ _______ _____ _____    ______ ____
ROOT
ATOM      1  N   UNL     1       3.303   5.086  18.082  0.00  0.00    +0.000 N 
ENDROOT
BRANCH   1   2
ATOM      2  C   UNL     1       2.685   6.155  18.749  0.00  0.00    +0.000 A 
ATOM      3  C   UNL     1       2.245   5.905  20.105  0.00  0.00    +0.000 A 
ATOM      4  C   UNL     1       1.657   6.853  20.837  0.00  0.00    +0.000 A 
ATOM      5  C   UNL     1       1.468   8.206  20.264  0.00  0.00    +0.000 A 
ATOM      6  N   UNL     1       0.922   9.105  21.020  0.00  0.00    +0.000 NA
ATOM      7  C   UNL     1       0.742  10.340  20.481  0.00  0.00    +0.000 A 
ATOM      8  C   UNL     1       1.049  10.722  19.236  0.00  0.00    +0.000 A 
ATOM      9  C   UNL     1       1.714   9.678  18.373  0.00  0.00    +0.000 A 
ATOM     10  O   UNL     1       2.055   9.951  17.216  0.00  0.00    +0.000 OA
ATOM     11  N   UNL     1       1.888   8.419  18.962  0.00  0.00    +0.000 N 
ATOM     12  C   UNL     1       2.489   7.390  18.242  0.00  0.00    +0.000 A 
BRANCH   8  13
ATOM     13  O   UNL     1       0.789  11.966  18.681  0.00  0.00    +0.000 OA
BRANCH  13  14
ATOM     14  C   UNL     1       0.721  13.087  19.582  0.00  0.00    +0.000 C 
ATOM     15  C   UNL     1      -0.361  14.069  19.119  0.00  0.00    +0.000 C 
ATOM     16  C   UNL     1      -0.271  15.389  19.862  0.00  0.00    +0.000 C 
ATOM     17  O   UNL     1       1.039  15.937  19.753  0.00  0.00    +0.000 OA
ATOM     18  C   UNL     1       2.021  15.095  20.353  0.00  0.00    +0.000 C 
ATOM     19  C   UNL     1       2.096  13.756  19.636  0.00  0.00    +0.000 C 
ENDBRANCH  13  14
ENDBRANCH   8  13
ENDBRANCH   1   2
BRANCH   1  24
ATOM     20  C   UNL     1       6.884   6.115  17.941  0.00  0.00    +0.000 A 
ATOM     21  C   UNL     1       7.192   5.891  16.604  0.00  0.00    +0.000 A 
ATOM     22  C   UNL     1       6.226   5.398  15.727  0.00  0.00    +0.000 A 
ATOM     23  C   UNL     1       4.945   5.076  16.198  0.00  0.00    +0.000 A 
ATOM     24  C   UNL     1       4.599   5.305  17.537  0.00  0.00    +0.000 A 
ATOM     25  C   UNL     1       5.594   5.834  18.391  0.00  0.00    +0.000 A 
BRANCH  20  27
ATOM     26  C   UNL     1       8.320   7.945  18.415  0.00  0.00    +0.000 C 
ATOM     27  O   UNL     1       7.905   6.615  18.702  0.00  0.00    +0.000 OA
ENDBRANCH  20  27
BRANCH  22  28
ATOM     28  O   UNL     1       6.643   5.241  14.431  0.00  0.00    +0.000 OA
ATOM     29  C   UNL     1       6.309   3.994  13.834  0.00  0.00    +0.000 C 
ENDBRANCH  22  28
ENDBRANCH   1  24
BRANCH   1  30
ATOM     30  C   UNL     1       2.425   4.064  17.456  0.00  0.00    +0.000 C 
BRANCH  30  31
ATOM     31  C   UNL     1       2.657   2.622  17.968  0.00  0.00    +0.000 C 
BRANCH  31  32
ATOM     32  N   UNL     1       3.014   2.438  19.383  0.00  0.00    +0.000 NA
ATOM     33  H   UNL     1       3.513   3.276  19.690  0.00  0.00    +0.000 HD
BRANCH  32  34
ATOM     34  C   UNL     1       1.908   2.163  20.309  0.00  0.00    +0.000 C 
ATOM     35  C   UNL     1       2.132   2.677  21.731  0.00  0.00    +0.000 C 
ATOM     36  C   UNL     1       0.640   2.805  19.736  0.00  0.00    +0.000 C 
ENDBRANCH  32  34
ENDBRANCH  31  32
ENDBRANCH  30  31
ENDBRANCH   1  30
TORSDOF 10
ENDMDL
MODEL 8
REMARK VINA RESULT:      -7.7      2.520      3.892
REMARK  Name = 
REMARK  14 active torsions:
REMARK  status: ('A' for Active; 'I' for Inactive)
REMARK    1  A    between atoms: C_1  and  O_2
REMARK    2  A    between atoms: O_2  and  C_3
REMARK    3  A    between atoms: C_5  and  O_6
REMARK    4  A    between atoms: O_6  and  C_7
REMARK    5  A    between atoms: C_9  and  N_10
REMARK    6  A    between atoms: N_10  and  C_11
REMARK    7  A    between atoms: N_10  and  C_17
REMARK    8  A    between atoms: C_11  and  C_12
REMARK    9  A    between atoms: C_12  and  N_13
REMARK   10  A    between atoms: N_13  and  C_14
REMARK   11  A    between atoms: C_14  and  C_15
REMARK   12  A    between atoms: C_14  and  C_16
REMARK   13  A    between atoms: C_23  and  O_24
REMARK   14  A    between atoms: O_24  and  C_25
REMARK                            x       y       z     vdW  Elec       q    Type
REMARK                         _______ _______ _______ _____ _____    ______ ____
ROOT
ATOM      1  N   UNL     1       2.698   5.677  18.388  0.00  0.00    +0.000 N 
ENDROOT
BRANCH   1   2
ATOM      2  C   UNL     1       2.306   7.007  18.604  0.00  0.00    +0.000 A 
ATOM      3  C   UNL     1       2.425   7.909  17.479  0.00  0.00    +0.000 A 
ATOM      4  C   UNL     1       2.069   9.192  17.569  0.00  0.00    +0.000 A 
ATOM      5  C   UNL     1       1.515   9.710  18.841  0.00  0.00    +0.000 A 
ATOM      6  N   UNL     1       1.154  10.953  18.874  0.00  0.00    +0.000 NA
ATOM      7  C   UNL     1       0.658  11.422  20.050  0.00  0.00    +0.000 A 
ATOM      8  C   UNL     1       0.524  10.736  21.192  0.00  0.00    +0.000 A 
ATOM      9  C   UNL     1       0.918   9.280  21.134  0.00  0.00    +0.000 A 
ATOM     10  O   UNL     1       0.804   8.564  22.137  0.00  0.00    +0.000 OA
ATOM     11  N   UNL     1       1.421   8.831  19.907  0.00  0.00    +0.000 N 
ATOM     12  C   UNL     1       1.813   7.503  19.758  0.00  0.00    +0.000 A 
BRANCH   8  13
ATOM     13  O   UNL     1       0.085  11.252  22.403  0.00  0.00    +0.000 OA
BRANCH  13  14
ATOM     14  C   UNL     1      -1.078  12.099  22.372  0.00  0.00    +0.000 C 
ATOM     15  C   UNL     1      -0.705  13.520  22.808  0.00  0.00    +0.000 C 
ATOM     16  C   UNL     1      -1.938  14.365  23.070  0.00  0.00    +0.000 C 
ATOM     17  O   UNL     1      -2.798  13.721  24.005  0.00  0.00    +0.000 OA
ATOM     18  C   UNL     1      -3.288  12.477  23.510  0.00  0.00    +0.000 C 
ATOM     19  C   UNL     1      -2.146  11.496  23.287  0.00  0.00    +0.000 C 
ENDBRANCH  13  14
ENDBRANCH   8  13
ENDBRANCH   1   2
BRANCH   1  24
ATOM     20  C   UNL     1       6.336   5.360  19.140  0.00  0.00    +0.000 A 
ATOM     21  C   UNL     1       6.859   5.046  17.890  0.00  0.00    +0.000 A 
ATOM     22  C   UNL     1       6.022   4.935  16.779  0.00  0.00    +0.000 A 
ATOM     23  C   UNL     1       4.635   5.090  16.923  0.00  0.00    +0.000 A 
ATOM     24  C   UNL     1       4.080   5.422  18.167  0.00  0.00    +0.000 A 
ATOM     25  C   UNL     1       4.961   5.556  19.265  0.00  0.00    +0.000 A 
BRANCH  20  27
ATOM     26  C   UNL     1       8.615   5.245  19.798  0.00  0.00    +0.000 C 
ATOM     27  O   UNL     1       7.253   5.460  20.150  0.00  0.00    +0.000 OA
ENDBRANCH  20  27
BRANCH  22  28
ATOM     28  O   UNL     1       6.657   4.645  15.601  0.00  0.00    +0.000 OA
ATOM     29  C   UNL     1       5.853   3.994  14.624  0.00  0.00    +0.000 C 
ENDBRANCH  22  28
ENDBRANCH   1  24
BRANCH   1  30
ATOM     30  C   UNL     1       1.694   4.748  17.807  0.00  0.00    +0.000 C 
BRANCH  30  31
ATOM     31  C   UNL     1       1.446   3.472  18.645  0.00  0.00    +0.000 C 
BRANCH  31  32
ATOM     32  N   UNL     1       0.634   3.591  19.867  0.00  0.00    +0.000 NA
ATOM     33  H   UNL     1      -0.181   2.981  19.760  0.00  0.00    +0.000 HD
BRANCH  32  34
ATOM     34  C   UNL     1       1.306   3.285  21.135  0.00  0.00    +0.000 C 
ATOM     35  C   UNL     1       2.123   1.993  21.123  0.00  0.00    +0.000 C 
ATOM     36  C   UNL     1       2.228   4.460  21.477  0.00  0.00    +0.000 C 
ENDBRANCH  32  34
ENDBRANCH  31  32
ENDBRANCH  30  31
ENDBRANCH   1  30
TORSDOF 10
ENDMDL
MODEL 9
REMARK VINA RESULT:      -7.6      2.653      3.515
REMARK  Name = 
REMARK  14 active torsions:
REMARK  status: ('A' for Active; 'I' for Inactive)
REMARK    1  A    between atoms: C_1  and  O_2
REMARK    2  A    between atoms: O_2  and  C_3
REMARK    3  A    between atoms: C_5  and  O_6
REMARK    4  A    between atoms: O_6  and  C_7
REMARK    5  A    between atoms: C_9  and  N_10
REMARK    6  A    between atoms: N_10  and  C_11
REMARK    7  A    between atoms: N_10  and  C_17
REMARK    8  A    between atoms: C_11  and  C_12
REMARK    9  A    between atoms: C_12  and  N_13
REMARK   10  A    between atoms: N_13  and  C_14
REMARK   11  A    between atoms: C_14  and  C_15
REMARK   12  A    between atoms: C_14  and  C_16
REMARK   13  A    between atoms: C_23  and  O_24
REMARK   14  A    between atoms: O_24  and  C_25
REMARK                            x       y       z     vdW  Elec       q    Type
REMARK                         _______ _______ _______ _____ _____    ______ ____
ROOT
ATOM      1  N   UNL     1       2.716   5.955  18.810  0.00  0.00    +0.000 N 
ENDROOT
BRANCH   1   2
ATOM      2  C   UNL     1       2.246   7.268  18.963  0.00  0.00    +0.000 A 
ATOM      3  C   UNL     1       2.248   8.100  17.779  0.00  0.00    +0.000 A 
ATOM      4  C   UNL     1       1.811   9.360  17.806  0.00  0.00    +0.000 A 
ATOM      5  C   UNL     1       1.287   9.924  19.072  0.00  0.00    +0.000 A 
ATOM      6  N   UNL     1       0.845  11.141  19.046  0.00  0.00    +0.000 NA
ATOM      7  C   UNL     1       0.377  11.654  20.216  0.00  0.00    +0.000 A 
ATOM      8  C   UNL     1       0.348  11.039  21.404  0.00  0.00    +0.000 A 
ATOM      9  C   UNL     1       0.836   9.610  21.417  0.00  0.00    +0.000 A 
ATOM     10  O   UNL     1       0.821   8.957  22.467  0.00  0.00    +0.000 OA
ATOM     11  N   UNL     1       1.306   9.114  20.194  0.00  0.00    +0.000 N 
ATOM     12  C   UNL     1       1.779   7.808  20.108  0.00  0.00    +0.000 A 
BRANCH   8  13
ATOM     13  O   UNL     1      -0.065  11.604  22.602  0.00  0.00    +0.000 OA
BRANCH  13  14
ATOM     14  C   UNL     1      -1.254  12.414  22.570  0.00  0.00    +0.000 C 
ATOM     15  C   UNL     1      -0.965  13.796  23.166  0.00  0.00    +0.000 C 
ATOM     16  C   UNL     1      -2.244  14.573  23.420  0.00  0.00    +0.000 C 
ATOM     17  O   UNL     1      -3.139  13.814  24.226  0.00  0.00    +0.000 OA
ATOM     18  C   UNL     1      -3.548  12.611  23.580  0.00  0.00    +0.000 C 
ATOM     19  C   UNL     1      -2.358  11.692  23.346  0.00  0.00    +0.000 C 
ENDBRANCH  13  14
ENDBRANCH   8  13
ENDBRANCH   1   2
BRANCH   1  24
ATOM     20  C   UNL     1       5.582   5.643  16.446  0.00  0.00    +0.000 A 
ATOM     21  C   UNL     1       6.635   5.360  17.310  0.00  0.00    +0.000 A 
ATOM     22  C   UNL     1       6.417   5.267  18.685  0.00  0.00    +0.000 A 
ATOM     23  C   UNL     1       5.141   5.507  19.214  0.00  0.00    +0.000 A 
ATOM     24  C   UNL     1       4.057   5.779  18.368  0.00  0.00    +0.000 A 
ATOM     25  C   UNL     1       4.308   5.837  16.978  0.00  0.00    +0.000 A 
BRANCH  20  27
ATOM     26  C   UNL     1       5.791   4.478  14.387  0.00  0.00    +0.000 C 
ATOM     27  O   UNL     1       5.911   5.692  15.119  0.00  0.00    +0.000 OA
ENDBRANCH  20  27
BRANCH  22  28
ATOM     28  O   UNL     1       7.526   4.960  19.428  0.00  0.00    +0.000 OA
ATOM     29  C   UNL     1       8.417   6.045  19.662  0.00  0.00    +0.000 C 
ENDBRANCH  22  28
ENDBRANCH   1  24
BRANCH   1  30
ATOM     30  C   UNL     1       1.718   4.895  18.514  0.00  0.00    +0.000 C 
BRANCH  30  31
ATOM     31  C   UNL     1       1.377   3.985  19.718  0.00  0.00    +0.000 C 
BRANCH  31  32
ATOM     32  N   UNL     1       2.004   2.656  19.783  0.00  0.00    +0.000 NA
ATOM     33  H   UNL     1       1.422   2.010  19.244  0.00  0.00    +0.000 HD
BRANCH  32  34
ATOM     34  C   UNL     1       3.393   2.561  19.318  0.00  0.00    +0.000 C 
ATOM     35  C   UNL     1       4.375   2.028  20.361  0.00  0.00    +0.000 C 
ATOM     36  C   UNL     1       3.419   1.647  18.088  0.00  0.00    +0.000 C 
ENDBRANCH  32  34
ENDBRANCH  31  32
ENDBRANCH  30  31
ENDBRANCH   1  30
TORSDOF 10
ENDMDL
