MODEL 1
REMARK VINA RESULT:      -5.3      0.000      0.000
REMARK  Name = 
REMARK  6 active torsions:
REMARK  status: ('A' for Active; 'I' for Inactive)
REMARK    1  A    between atoms: C_1  and  N_2
REMARK    2  A    between atoms: N_2  and  C_3
REMARK    3  A    between atoms: N_2  and  C_4
REMARK    4  A    between atoms: C_4  and  C_5
REMARK    5  A    between atoms: C_5  and  O_6
REMARK    6  A    between atoms: O_6  and  C_7
REMARK                            x       y       z     vdW  Elec       q    Type
REMARK                         _______ _______ _______ _____ _____    ______ ____
ROOT
ATOM      1  C   UNL     1       3.840   4.528  18.360  0.00  0.00    +0.000 A 
ATOM      2  C   UNL     1       3.934   3.468  17.451  0.00  0.00    +0.000 A 
ATOM      3  C   UNL     1       3.373   2.225  17.751  0.00  0.00    +0.000 A 
ATOM      4  C   UNL     1       2.709   2.032  18.959  0.00  0.00    +0.000 A 
ATOM      5  C   UNL     1       2.611   3.087  19.864  0.00  0.00    +0.000 A 
ATOM      6 BR   UNL     1       1.709   2.825  21.506  0.00  0.00    +0.000 Br
ATOM      7  C   UNL     1       3.172   4.331  19.572  0.00  0.00    +0.000 A 
ENDROOT
BRANCH   1   8
ATOM      8  O   UNL     1       4.351   5.786  18.174  0.00  0.00    +0.000 OA
BRANCH   8   9
ATOM      9  C   UNL     1       4.892   6.049  16.873  0.00  0.00    +0.000 C 
BRANCH   9  10
ATOM     10  C   UNL     1       6.348   6.524  16.994  0.00  0.00    +0.000 C 
BRANCH  10  12
ATOM     11  C   UNL     1       7.629   4.622  17.738  0.00  0.00    +0.000 C 
ATOM     12  N   UNL     1       7.339   5.501  16.602  0.00  0.00    +0.000 NA
ATOM     13  C   UNL     1       6.892   4.699  15.462  0.00  0.00    +0.000 C 
ENDBRANCH  10  12
ENDBRANCH   9  10
ENDBRANCH   8   9
ENDBRANCH   1   8
TORSDOF 4
ENDMDL
MODEL 2
REMARK VINA RESULT:      -5.2      3.645      5.673
REMARK  Name = 
REMARK  6 active torsions:
REMARK  status: ('A' for Active; 'I' for Inactive)
REMARK    1  A    between atoms: C_1  and  N_2
REMARK    2  A    between atoms: N_2  and  C_3
REMARK    3  A    between atoms: N_2  and  C_4
REMARK    4  A    between atoms: C_4  and  C_5
REMARK    5  A    between atoms: C_5  and  O_6
REMARK    6  A    between atoms: O_6  and  C_7
REMARK                            x       y       z     vdW  Elec       q    Type
REMARK                         _______ _______ _______ _____ _____    ______ ____
ROOT
ATOM      1  C   UNL     1       3.974   4.321  17.589  0.00  0.00    +0.000 A 
ATOM      2  C   UNL     1       3.776   5.670  17.902  0.00  0.00    +0.000 A 
ATOM      3  C   UNL     1       4.392   6.671  17.148  0.00  0.00    +0.000 A 
ATOM      4  C   UNL     1       5.207   6.332  16.072  0.00  0.00    +0.000 A 
ATOM      5  C   UNL     1       5.404   4.989  15.757  0.00  0.00    +0.000 A 
ATOM      6 BR   UNL     1       6.512   4.528  14.294  0.00  0.00    +0.000 Br
ATOM      7  C   UNL     1       4.793   3.984  16.508  0.00  0.00    +0.000 A 
ENDROOT
BRANCH   1   8
ATOM      8  O   UNL     1       3.424   3.257  18.257  0.00  0.00    +0.000 OA
BRANCH   8   9
ATOM      9  C   UNL     1       1.992   3.191  18.243  0.00  0.00    +0.000 C 
BRANCH   9  10
ATOM     10  C   UNL     1       1.498   2.263  19.364  0.00  0.00    +0.000 C 
BRANCH  10  12
ATOM     11  C   UNL     1       2.249   2.716  21.609  0.00  0.00    +0.000 C 
ATOM     12  N   UNL     1       1.193   2.969  20.626  0.00  0.00    +0.000 NA
ATOM     13  C   UNL     1       1.034   4.412  20.434  0.00  0.00    +0.000 C 
ENDBRANCH  10  12
ENDBRANCH   9  10
ENDBRANCH   8   9
ENDBRANCH   1   8
TORSDOF 4
ENDMDL
MODEL 3
REMARK VINA RESULT:      -5.1      1.077      1.621
REMARK  Name = 
REMARK  6 active torsions:
REMARK  status: ('A' for Active; 'I' for Inactive)
REMARK    1  A    between atoms: C_1  and  N_2
REMARK    2  A    between atoms: N_2  and  C_3
REMARK    3  A    between atoms: N_2  and  C_4
REMARK    4  A    between atoms: C_4  and  C_5
REMARK    5  A    between atoms: C_5  and  O_6
REMARK    6  A    between atoms: O_6  and  C_7
REMARK                            x       y       z     vdW  Elec       q    Type
REMARK                         _______ _______ _______ _____ _____    ______ ____
ROOT
ATOM      1  C   UNL     1       4.627   3.846  18.625  0.00  0.00    +0.000 A 
ATOM      2  C   UNL     1       4.094   3.554  17.364  0.00  0.00    +0.000 A 
ATOM      3  C   UNL     1       2.792   3.067  17.240  0.00  0.00    +0.000 A 
ATOM      4  C   UNL     1       2.008   2.872  18.374  0.00  0.00    +0.000 A 
ATOM      5  C   UNL     1       2.535   3.164  19.631  0.00  0.00    +0.000 A 
ATOM      6 BR   UNL     1       1.471   2.900  21.172  0.00  0.00    +0.000 Br
ATOM      7  C   UNL     1       3.837   3.649  19.761  0.00  0.00    +0.000 A 
ENDROOT
BRANCH   1   8
ATOM      8  O   UNL     1       5.888   4.326  18.867  0.00  0.00    +0.000 OA
BRANCH   8   9
ATOM      9  C   UNL     1       6.757   4.384  17.729  0.00  0.00    +0.000 C 
BRANCH   9  10
ATOM     10  C   UNL     1       6.987   5.847  17.317  0.00  0.00    +0.000 C 
BRANCH  10  12
ATOM     11  C   UNL     1       6.765   4.963  15.085  0.00  0.00    +0.000 C 
ATOM     12  N   UNL     1       6.571   6.144  15.931  0.00  0.00    +0.000 NA
ATOM     13  C   UNL     1       5.177   6.584  15.849  0.00  0.00    +0.000 C 
ENDBRANCH  10  12
ENDBRANCH   9  10
ENDBRANCH   8   9
ENDBRANCH   1   8
TORSDOF 4
ENDMDL
MODEL 4
REMARK VINA RESULT:      -5.1      3.444      5.507
REMARK  Name = 
REMARK  6 active torsions:
REMARK  status: ('A' for Active; 'I' for Inactive)
REMARK    1  A    between atoms: C_1  and  N_2
REMARK    2  A    between atoms: N_2  and  C_3
REMARK    3  A    between atoms: N_2  and  C_4
REMARK    4  A    between atoms: C_4  and  C_5
REMARK    5  A    between atoms: C_5  and  O_6
REMARK    6  A    between atoms: O_6  and  C_7
REMARK                            x       y       z     vdW  Elec       q    Type
REMARK                         _______ _______ _______ _____ _____    ______ ____
ROOT
ATOM      1  C   UNL     1       5.302   4.684  18.174  0.00  0.00    +0.000 A 
ATOM      2  C   UNL     1       4.901   6.025  18.202  0.00  0.00    +0.000 A 
ATOM      3  C   UNL     1       4.855   6.775  17.025  0.00  0.00    +0.000 A 
ATOM      4  C   UNL     1       5.204   6.192  15.811  0.00  0.00    +0.000 A 
ATOM      5  C   UNL     1       5.602   4.857  15.780  0.00  0.00    +0.000 A 
ATOM      6 BR   UNL     1       6.077   4.064  14.130  0.00  0.00    +0.000 Br
ATOM      7  C   UNL     1       5.652   4.102  16.953  0.00  0.00    +0.000 A 
ENDROOT
BRANCH   1   8
ATOM      8  O   UNL     1       5.387   3.854  19.262  0.00  0.00    +0.000 OA
BRANCH   8   9
ATOM      9  C   UNL     1       4.372   2.846  19.351  0.00  0.00    +0.000 C 
BRANCH   9  10
ATOM     10  C   UNL     1       3.047   3.475  19.811  0.00  0.00    +0.000 C 
BRANCH  10  12
ATOM     11  C   UNL     1       1.456   2.684  21.440  0.00  0.00    +0.000 C 
ATOM     12  N   UNL     1       1.987   2.483  20.090  0.00  0.00    +0.000 NA
ATOM     13  C   UNL     1       0.895   2.544  19.117  0.00  0.00    +0.000 C 
ENDBRANCH  10  12
ENDBRANCH   9  10
ENDBRANCH   8   9
ENDBRANCH   1   8
TORSDOF 4
ENDMDL
MODEL 5
REMARK VINA RESULT:      -5.1      3.094      4.950
REMARK  Name = 
REMARK  6 active torsions:
REMARK  status: ('A' for Active; 'I' for Inactive)
REMARK    1  A    between atoms: C_1  and  N_2
REMARK    2  A    between atoms: N_2  and  C_3
REMARK    3  A    between atoms: N_2  and  C_4
REMARK    4  A    between atoms: C_4  and  C_5
REMARK    5  A    between atoms: C_5  and  O_6
REMARK    6  A    between atoms: O_6  and  C_7
REMARK                            x       y       z     vdW  Elec       q    Type
REMARK                         _______ _______ _______ _____ _____    ______ ____
ROOT
ATOM      1  C   UNL     1       5.019   5.370  18.161  0.00  0.00    +0.000 A 
ATOM      2  C   UNL     1       6.238   5.388  18.850  0.00  0.00    +0.000 A 
ATOM      3  C   UNL     1       7.420   5.014  18.209  0.00  0.00    +0.000 A 
ATOM      4  C   UNL     1       7.397   4.622  16.873  0.00  0.00    +0.000 A 
ATOM      5  C   UNL     1       6.186   4.605  16.185  0.00  0.00    +0.000 A 
ATOM      6 BR   UNL     1       6.153   4.074  14.370  0.00  0.00    +0.000 Br
ATOM      7  C   UNL     1       5.000   4.976  16.820  0.00  0.00    +0.000 A 
ENDROOT
BRANCH   1   8
ATOM      8  O   UNL     1       3.800   5.713  18.686  0.00  0.00    +0.000 OA
BRANCH   8   9
ATOM      9  C   UNL     1       2.741   4.777  18.453  0.00  0.00    +0.000 C 
BRANCH   9  10
ATOM     10  C   UNL     1       2.550   3.881  19.688  0.00  0.00    +0.000 C 
BRANCH  10  12
ATOM     11  C   UNL     1       2.883   2.140  18.054  0.00  0.00    +0.000 C 
ATOM     12  N   UNL     1       2.978   2.482  19.475  0.00  0.00    +0.000 NA
ATOM     13  C   UNL     1       4.341   2.237  19.950  0.00  0.00    +0.000 C 
ENDBRANCH  10  12
ENDBRANCH   9  10
ENDBRANCH   8   9
ENDBRANCH   1   8
TORSDOF 4
ENDMDL
MODEL 6
REMARK VINA RESULT:      -5.1      1.277      1.632
REMARK  Name = 
REMARK  6 active torsions:
REMARK  status: ('A' for Active; 'I' for Inactive)
REMARK    1  A    between atoms: C_1  and  N_2
REMARK    2  A    between atoms: N_2  and  C_3
REMARK    3  A    between atoms: N_2  and  C_4
REMARK    4  A    between atoms: C_4  and  C_5
REMARK    5  A    between atoms: C_5  and  O_6
REMARK    6  A    between atoms: O_6  and  C_7
REMARK                            x       y       z     vdW  Elec       q    Type
REMARK                         _______ _______ _______ _____ _____    ______ ____
ROOT
ATOM      1  C   UNL     1       4.417   3.282  18.829  0.00  0.00    +0.000 A 
ATOM      2  C   UNL     1       3.813   2.858  17.640  0.00  0.00    +0.000 A 
ATOM      3  C   UNL     1       2.495   2.398  17.640  0.00  0.00    +0.000 A 
ATOM      4  C   UNL     1       1.767   2.362  18.826  0.00  0.00    +0.000 A 
ATOM      5  C   UNL     1       2.366   2.786  20.011  0.00  0.00    +0.000 A 
ATOM      6 BR   UNL     1       1.378   2.737  21.623  0.00  0.00    +0.000 Br
ATOM      7  C   UNL     1       3.684   3.245  20.018  0.00  0.00    +0.000 A 
ENDROOT
BRANCH   1   8
ATOM      8  O   UNL     1       5.700   3.750  18.950  0.00  0.00    +0.000 OA
BRANCH   8   9
ATOM      9  C   UNL     1       5.941   5.047  18.390  0.00  0.00    +0.000 C 
BRANCH   9  10
ATOM     10  C   UNL     1       6.861   4.928  17.164  0.00  0.00    +0.000 C 
BRANCH  10  12
ATOM     11  C   UNL     1       5.266   6.068  15.761  0.00  0.00    +0.000 C 
ATOM     12  N   UNL     1       6.133   4.893  15.879  0.00  0.00    +0.000 NA
ATOM     13  C   UNL     1       7.036   4.830  14.728  0.00  0.00    +0.000 C 
ENDBRANCH  10  12
ENDBRANCH   9  10
ENDBRANCH   8   9
ENDBRANCH   1   8
TORSDOF 4
ENDMDL
MODEL 7
REMARK VINA RESULT:      -5.0      3.475      5.700
REMARK  Name = 
REMARK  6 active torsions:
REMARK  status: ('A' for Active; 'I' for Inactive)
REMARK    1  A    between atoms: C_1  and  N_2
REMARK    2  A    between atoms: N_2  and  C_3
REMARK    3  A    between atoms: N_2  and  C_4
REMARK    4  A    between atoms: C_4  and  C_5
REMARK    5  A    between atoms: C_5  and  O_6
REMARK    6  A    between atoms: O_6  and  C_7
REMARK                            x       y       z     vdW  Elec       q    Type
REMARK                         _______ _______ _______ _____ _____    ______ ____
ROOT
ATOM      1  C   UNL     1       5.897   4.528  18.651  0.00  0.00    +0.000 A 
ATOM      2  C   UNL     1       6.713   5.580  19.085  0.00  0.00    +0.000 A 
ATOM      3  C   UNL     1       7.404   6.368  18.163  0.00  0.00    +0.000 A 
ATOM      4  C   UNL     1       7.283   6.116  16.800  0.00  0.00    +0.000 A 
ATOM      5  C   UNL     1       6.469   5.071  16.365  0.00  0.00    +0.000 A 
ATOM      6 BR   UNL     1       6.304   4.729  14.512  0.00  0.00    +0.000 Br
ATOM      7  C   UNL     1       5.778   4.278  17.282  0.00  0.00    +0.000 A 
ENDROOT
BRANCH   1   8
ATOM      8  O   UNL     1       5.176   3.691  19.462  0.00  0.00    +0.000 OA
BRANCH   8   9
ATOM      9  C   UNL     1       3.752   3.764  19.317  0.00  0.00    +0.000 C 
BRANCH   9  10
ATOM     10  C   UNL     1       3.138   2.361  19.438  0.00  0.00    +0.000 C 
BRANCH  10  12
ATOM     11  C   UNL     1       2.132   2.780  21.589  0.00  0.00    +0.000 C 
ATOM     12  N   UNL     1       1.882   2.330  20.217  0.00  0.00    +0.000 NA
ATOM     13  C   UNL     1       0.831   3.150  19.613  0.00  0.00    +0.000 C 
ENDBRANCH  10  12
ENDBRANCH   9  10
ENDBRANCH   8   9
ENDBRANCH   1   8
TORSDOF 4
ENDMDL
MODEL 8
REMARK VINA RESULT:      -5.0      3.412      5.203
REMARK  Name = 
REMARK  6 active torsions:
REMARK  status: ('A' for Active; 'I' for Inactive)
REMARK    1  A    between atoms: C_1  and  N_2
REMARK    2  A    between atoms: N_2  and  C_3
REMARK    3  A    between atoms: N_2  and  C_4
REMARK    4  A    between atoms: C_4  and  C_5
REMARK    5  A    between atoms: C_5  and  O_6
REMARK    6  A    between atoms: O_6  and  C_7
REMARK                            x       y       z     vdW  Elec       q    Type
REMARK                         _______ _______ _______ _____ _____    ______ ____
ROOT
ATOM      1  C   UNL     1       2.406   4.429  17.620  0.00  0.00    +0.000 A 
ATOM      2  C   UNL     1       2.402   5.738  18.114  0.00  0.00    +0.000 A 
ATOM      3  C   UNL     1       3.514   6.564  17.940  0.00  0.00    +0.000 A 
ATOM      4  C   UNL     1       4.637   6.092  17.267  0.00  0.00    +0.000 A 
ATOM      5  C   UNL     1       4.642   4.789  16.772  0.00  0.00    +0.000 A 
ATOM      6 BR   UNL     1       6.168   4.147  15.858  0.00  0.00    +0.000 Br
ATOM      7  C   UNL     1       3.535   3.958  16.944  0.00  0.00    +0.000 A 
ENDROOT
BRANCH   1   8
ATOM      8  O   UNL     1       1.377   3.530  17.732  0.00  0.00    +0.000 OA
BRANCH   8   9
ATOM      9  C   UNL     1       0.944   3.249  19.069  0.00  0.00    +0.000 C 
BRANCH   9  10
ATOM     10  C   UNL     1       1.764   2.087  19.653  0.00  0.00    +0.000 C 
BRANCH  10  12
ATOM     11  C   UNL     1       4.007   2.557  20.401  0.00  0.00    +0.000 C 
ATOM     12  N   UNL     1       2.602   2.475  20.807  0.00  0.00    +0.000 NA
ATOM     13  C   UNL     1       2.185   3.750  21.395  0.00  0.00    +0.000 C 
ENDBRANCH  10  12
ENDBRANCH   9  10
ENDBRANCH   8   9
ENDBRANCH   1   8
TORSDOF 4
ENDMDL
MODEL 9
REMARK VINA RESULT:      -5.0      3.623      5.536
REMARK  Name = 
REMARK  6 active torsions:
REMARK  status: ('A' for Active; 'I' for Inactive)
REMARK    1  A    between atoms: C_1  and  N_2
REMARK    2  A    between atoms: N_2  and  C_3
REMARK    3  A    between atoms: N_2  and  C_4
REMARK    4  A    between atoms: C_4  and  C_5
REMARK    5  A    between atoms: C_5  and  O_6
REMARK    6  A    between atoms: O_6  and  C_7
REMARK                            x       y       z     vdW  Elec       q    Type
REMARK                         _______ _______ _______ _____ _____    ______ ____
ROOT
ATOM      1  C   UNL     1       4.050   3.735  17.630  0.00  0.00    +0.000 A 
ATOM      2  C   UNL     1       4.698   4.138  18.804  0.00  0.00    +0.000 A 
ATOM      3  C   UNL     1       5.970   4.710  18.750  0.00  0.00    +0.000 A 
ATOM      4  C   UNL     1       6.605   4.889  17.524  0.00  0.00    +0.000 A 
ATOM      5  C   UNL     1       5.961   4.490  16.354  0.00  0.00    +0.000 A 
ATOM      6 BR   UNL     1       6.823   4.733  14.688  0.00  0.00    +0.000 Br
ATOM      7  C   UNL     1       4.690   3.916  16.401  0.00  0.00    +0.000 A 
ENDROOT
BRANCH   1   8
ATOM      8  O   UNL     1       2.806   3.163  17.562  0.00  0.00    +0.000 OA
BRANCH   8   9
ATOM      9  C   UNL     1       1.749   3.904  18.184  0.00  0.00    +0.000 C 
BRANCH   9  10
ATOM     10  C   UNL     1       1.027   3.024  19.217  0.00  0.00    +0.000 C 
BRANCH  10  12
ATOM     11  C   UNL     1       1.583   2.741  21.546  0.00  0.00    +0.000 C 
ATOM     12  N   UNL     1       0.956   3.629  20.563  0.00  0.00    +0.000 NA
ATOM     13  C   UNL     1       1.589   4.948  20.617  0.00  0.00    +0.000 C 
ENDBRANCH  10  12
ENDBRANCH   9  10
ENDBRANCH   8   9
ENDBRANCH   1   8
TORSDOF 4
ENDMDL
