MODEL 1
REMARK VINA RESULT:      -6.9      0.000      0.000
REMARK  Name = 
REMARK  11 active torsions:
REMARK  status: ('A' for Active; 'I' for Inactive)
REMARK    1  A    between atoms: C_1  and  O_2
REMARK    2  A    between atoms: O_2  and  C_3
REMARK    3  A    between atoms: C_5  and  N_6
REMARK    4  A    between atoms: N_6  and  C_7
REMARK    5  A    between atoms: C_7  and  C_8
REMARK    6  A    between atoms: C_7  and  C_9
REMARK    7  A    between atoms: C_9  and  C_10
REMARK    8  A    between atoms: C_10  and  C_11
REMARK    9  A    between atoms: C_11  and  N_12
REMARK   10  A    between atoms: C_17  and  C_18
REMARK   11  A    between atoms: C_18  and  C_19
REMARK                            x       y       z     vdW  Elec       q    Type
REMARK                         _______ _______ _______ _____ _____    ______ ____
ROOT
ATOM      1  C   UNL     1       0.750   9.096  21.488  0.00  0.00    +0.000 A 
ATOM      2  C   UNL     1       0.797  10.217  20.679  0.00  0.00    +0.000 A 
ATOM      3  C   UNL     1       1.198  10.100  19.349  0.00  0.00    +0.000 A 
ATOM      4  C   UNL     1       1.773   8.858  18.883  0.00  0.00    +0.000 A 
ATOM      5  N   UNL     1       2.237   8.853  17.625  0.00  0.00    +0.000 NA
ATOM      6  C   UNL     1       2.850   7.746  17.151  0.00  0.00    +0.000 A 
ATOM      7  C   UNL     1       3.084   6.580  17.867  0.00  0.00    +0.000 A 
ATOM      8  C   UNL     1       2.669   6.481  19.204  0.00  0.00    +0.000 A 
ATOM      9  C   UNL     1       1.876   7.670  19.725  0.00  0.00    +0.000 A 
ATOM     10  C   UNL     1       1.180   7.839  20.978  0.00  0.00    +0.000 A 
ENDROOT
BRANCH   1  12
ATOM     11  C   UNL     1      -0.709  10.175  23.074  0.00  0.00    +0.000 C 
ATOM     12  O   UNL     1       0.303   9.184  22.787  0.00  0.00    +0.000 OA
ENDBRANCH   1  12
BRANCH   3  13
ATOM     13  N   UNL     1       1.154  11.307  18.565  0.00  0.00    +0.000 N 
ATOM     14  H   UNL     1       0.949  11.063  17.594  0.00  0.00    +0.000 HD
BRANCH  13  15
ATOM     15  C   UNL     1       0.420  12.496  19.100  0.00  0.00    +0.000 C 
ATOM     16  C   UNL     1       1.333  13.724  19.177  0.00  0.00    +0.000 C 
BRANCH  15  17
ATOM     17  C   UNL     1      -0.850  12.811  18.299  0.00  0.00    +0.000 C 
BRANCH  17  18
ATOM     18  C   UNL     1      -2.021  11.982  18.832  0.00  0.00    +0.000 C 
BRANCH  18  19
ATOM     19  C   UNL     1      -2.780  11.274  17.721  0.00  0.00    +0.000 C 
BRANCH  19  20
ATOM     20  N   UNL     1      -2.167  11.611  16.442  0.00  0.00    +0.000 NA
ATOM     21  H   UNL     1      -1.154  11.666  16.555  0.00  0.00    +0.000 HD
ATOM     22  H   UNL     1      -2.472  12.537  16.148  0.00  0.00    +0.000 HD
ENDBRANCH  19  20
ENDBRANCH  18  19
ENDBRANCH  17  18
ENDBRANCH  15  17
ENDBRANCH  13  15
ENDBRANCH   3  13
BRANCH   8  23
ATOM     23  C   UNL     1       3.511   5.350  19.984  0.00  0.00    +0.000 C 
BRANCH  23  24
ATOM     24  C   UNL     1       3.529   3.768  20.053  0.00  0.00    +0.000 C 
ATOM     25  C   UNL     1       2.526   3.151  21.109  0.00  0.00    +0.000 C 
ATOM     26  C   UNL     1       1.039   3.068  20.737  0.00  0.00    +0.000 C 
ATOM     27  C   UNL     1       0.692   3.003  19.255  0.00  0.00    +0.000 C 
ATOM     28  C   UNL     1       1.837   3.062  18.244  0.00  0.00    +0.000 C 
ATOM     29  C   UNL     1       3.267   2.999  18.767  0.00  0.00    +0.000 C 
ENDBRANCH  23  24
ENDBRANCH   8  23
TORSDOF 9
ENDMDL
MODEL 2
REMARK VINA RESULT:      -6.8      2.607      7.992
REMARK  Name = 
REMARK  11 active torsions:
REMARK  status: ('A' for Active; 'I' for Inactive)
REMARK    1  A    between atoms: C_1  and  O_2
REMARK    2  A    between atoms: O_2  and  C_3
REMARK    3  A    between atoms: C_5  and  N_6
REMARK    4  A    between atoms: N_6  and  C_7
REMARK    5  A    between atoms: C_7  and  C_8
REMARK    6  A    between atoms: C_7  and  C_9
REMARK    7  A    between atoms: C_9  and  C_10
REMARK    8  A    between atoms: C_10  and  C_11
REMARK    9  A    between atoms: C_11  and  N_12
REMARK   10  A    between atoms: C_17  and  C_18
REMARK   11  A    between atoms: C_18  and  C_19
REMARK                            x       y       z     vdW  Elec       q    Type
REMARK                         _______ _______ _______ _____ _____    ______ ____
ROOT
ATOM      1  C   UNL     1       3.305   7.233  17.886  0.00  0.00    +0.000 A 
ATOM      2  C   UNL     1       3.365   6.301  18.906  0.00  0.00    +0.000 A 
ATOM      3  C   UNL     1       2.488   6.394  19.986  0.00  0.00    +0.000 A 
ATOM      4  C   UNL     1       1.675   7.578  20.147  0.00  0.00    +0.000 A 
ATOM      5  N   UNL     1       0.937   7.645  21.265  0.00  0.00    +0.000 NA
ATOM      6  C   UNL     1       0.209   8.757  21.510  0.00  0.00    +0.000 A 
ATOM      7  C   UNL     1       0.165   9.890  20.710  0.00  0.00    +0.000 A 
ATOM      8  C   UNL     1       0.922   9.945  19.529  0.00  0.00    +0.000 A 
ATOM      9  C   UNL     1       1.660   8.665  19.172  0.00  0.00    +0.000 A 
ATOM     10  C   UNL     1       2.395   8.324  17.978  0.00  0.00    +0.000 A 
ENDROOT
BRANCH   1  12
ATOM     11  C   UNL     1       5.477   6.665  17.011  0.00  0.00    +0.000 C 
ATOM     12  O   UNL     1       4.126   7.126  16.786  0.00  0.00    +0.000 OA
ENDBRANCH   1  12
BRANCH   3  13
ATOM     13  N   UNL     1       2.578   5.344  20.968  0.00  0.00    +0.000 N 
ATOM     14  H   UNL     1       2.137   5.662  21.833  0.00  0.00    +0.000 HD
BRANCH  13  15
ATOM     15  C   UNL     1       2.262   3.939  20.561  0.00  0.00    +0.000 C 
ATOM     16  C   UNL     1       2.351   2.982  21.754  0.00  0.00    +0.000 C 
BRANCH  15  17
ATOM     17  C   UNL     1       0.897   3.821  19.870  0.00  0.00    +0.000 C 
BRANCH  17  18
ATOM     18  C   UNL     1       0.905   2.635  18.903  0.00  0.00    +0.000 C 
BRANCH  18  19
ATOM     19  C   UNL     1       2.095   2.669  17.958  0.00  0.00    +0.000 C 
BRANCH  19  20
ATOM     20  N   UNL     1       2.920   1.491  18.195  0.00  0.00    +0.000 NA
ATOM     21  H   UNL     1       3.531   1.660  18.995  0.00  0.00    +0.000 HD
ATOM     22  H   UNL     1       3.531   1.333  17.396  0.00  0.00    +0.000 HD
ENDBRANCH  19  20
ENDBRANCH  18  19
ENDBRANCH  17  18
ENDBRANCH  15  17
ENDBRANCH  13  15
ENDBRANCH   3  13
BRANCH   8  23
ATOM     23  C   UNL     1       1.183  11.473  19.086  0.00  0.00    +0.000 C 
BRANCH  23  24
ATOM     24  C   UNL     1       0.318  12.676  18.525  0.00  0.00    +0.000 C 
ATOM     25  C   UNL     1      -1.153  12.277  18.103  0.00  0.00    +0.000 C 
ATOM     26  C   UNL     1      -2.205  12.101  19.209  0.00  0.00    +0.000 C 
ATOM     27  C   UNL     1      -1.984  12.862  20.510  0.00  0.00    +0.000 C 
ATOM     28  C   UNL     1      -0.721  13.714  20.641  0.00  0.00    +0.000 C 
ATOM     29  C   UNL     1       0.154  13.903  19.408  0.00  0.00    +0.000 C 
ENDBRANCH  23  24
ENDBRANCH   8  23
TORSDOF 9
ENDMDL
MODEL 3
REMARK VINA RESULT:      -6.7      3.405      8.007
REMARK  Name = 
REMARK  11 active torsions:
REMARK  status: ('A' for Active; 'I' for Inactive)
REMARK    1  A    between atoms: C_1  and  O_2
REMARK    2  A    between atoms: O_2  and  C_3
REMARK    3  A    between atoms: C_5  and  N_6
REMARK    4  A    between atoms: N_6  and  C_7
REMARK    5  A    between atoms: C_7  and  C_8
REMARK    6  A    between atoms: C_7  and  C_9
REMARK    7  A    between atoms: C_9  and  C_10
REMARK    8  A    between atoms: C_10  and  C_11
REMARK    9  A    between atoms: C_11  and  N_12
REMARK   10  A    between atoms: C_17  and  C_18
REMARK   11  A    between atoms: C_18  and  C_19
REMARK                            x       y       z     vdW  Elec       q    Type
REMARK                         _______ _______ _______ _____ _____    ______ ____
ROOT
ATOM      1  C   UNL     1       5.394   5.780  16.459  0.00  0.00    +0.000 A 
ATOM      2  C   UNL     1       5.709   4.782  17.363  0.00  0.00    +0.000 A 
ATOM      3  C   UNL     1       4.902   4.574  18.480  0.00  0.00    +0.000 A 
ATOM      4  C   UNL     1       3.874   5.537  18.809  0.00  0.00    +0.000 A 
ATOM      5  N   UNL     1       3.211   5.330  19.956  0.00  0.00    +0.000 NA
ATOM      6  C   UNL     1       2.287   6.231  20.356  0.00  0.00    +0.000 A 
ATOM      7  C   UNL     1       1.960   7.406  19.694  0.00  0.00    +0.000 A 
ATOM      8  C   UNL     1       2.613   7.742  18.497  0.00  0.00    +0.000 A 
ATOM      9  C   UNL     1       3.574   6.691  17.966  0.00  0.00    +0.000 A 
ATOM     10  C   UNL     1       4.286   6.638  16.712  0.00  0.00    +0.000 A 
ENDROOT
BRANCH   1  12
ATOM     11  C   UNL     1       6.848   4.813  14.800  0.00  0.00    +0.000 C 
ATOM     12  O   UNL     1       6.148   5.964  15.322  0.00  0.00    +0.000 OA
ENDBRANCH   1  12
BRANCH   3  13
ATOM     13  N   UNL     1       5.268   3.472  19.332  0.00  0.00    +0.000 N 
ATOM     14  H   UNL     1       5.585   3.839  20.230  0.00  0.00    +0.000 HD
BRANCH  13  15
ATOM     15  C   UNL     1       4.367   2.278  19.403  0.00  0.00    +0.000 C 
ATOM     16  C   UNL     1       3.727   2.148  20.790  0.00  0.00    +0.000 C 
BRANCH  15  17
ATOM     17  C   UNL     1       3.294   2.287  18.307  0.00  0.00    +0.000 C 
BRANCH  17  18
ATOM     18  C   UNL     1       1.940   1.895  18.902  0.00  0.00    +0.000 C 
BRANCH  18  19
ATOM     19  C   UNL     1       0.865   2.935  18.625  0.00  0.00    +0.000 C 
BRANCH  19  20
ATOM     20  N   UNL     1       1.319   3.807  17.549  0.00  0.00    +0.000 NA
ATOM     21  H   UNL     1       1.661   4.683  17.944  0.00  0.00    +0.000 HD
ATOM     22  H   UNL     1       0.532   4.051  16.951  0.00  0.00    +0.000 HD
ENDBRANCH  19  20
ENDBRANCH  18  19
ENDBRANCH  17  18
ENDBRANCH  15  17
ENDBRANCH  13  15
ENDBRANCH   3  13
BRANCH   8  23
ATOM     23  C   UNL     1       2.525   9.328  18.222  0.00  0.00    +0.000 C 
BRANCH  23  24
ATOM     24  C   UNL     1       1.386  10.385  17.918  0.00  0.00    +0.000 C 
ATOM     25  C   UNL     1      -0.070   9.899  18.299  0.00  0.00    +0.000 C 
ATOM     26  C   UNL     1      -0.489   9.945  19.776  0.00  0.00    +0.000 C 
ATOM     27  C   UNL     1       0.215  10.956  20.671  0.00  0.00    +0.000 C 
ATOM     28  C   UNL     1       1.311  11.826  20.052  0.00  0.00    +0.000 C 
ATOM     29  C   UNL     1       1.515  11.765  18.543  0.00  0.00    +0.000 C 
ENDBRANCH  23  24
ENDBRANCH   8  23
TORSDOF 9
ENDMDL
MODEL 4
REMARK VINA RESULT:      -6.7      2.725      8.131
REMARK  Name = 
REMARK  11 active torsions:
REMARK  status: ('A' for Active; 'I' for Inactive)
REMARK    1  A    between atoms: C_1  and  O_2
REMARK    2  A    between atoms: O_2  and  C_3
REMARK    3  A    between atoms: C_5  and  N_6
REMARK    4  A    between atoms: N_6  and  C_7
REMARK    5  A    between atoms: C_7  and  C_8
REMARK    6  A    between atoms: C_7  and  C_9
REMARK    7  A    between atoms: C_9  and  C_10
REMARK    8  A    between atoms: C_10  and  C_11
REMARK    9  A    between atoms: C_11  and  N_12
REMARK   10  A    between atoms: C_17  and  C_18
REMARK   11  A    between atoms: C_18  and  C_19
REMARK                            x       y       z     vdW  Elec       q    Type
REMARK                         _______ _______ _______ _____ _____    ______ ____
ROOT
ATOM      1  C   UNL     1       3.442   7.090  17.866  0.00  0.00    +0.000 A 
ATOM      2  C   UNL     1       3.449   6.174  18.902  0.00  0.00    +0.000 A 
ATOM      3  C   UNL     1       2.537   6.300  19.949  0.00  0.00    +0.000 A 
ATOM      4  C   UNL     1       1.743   7.503  20.064  0.00  0.00    +0.000 A 
ATOM      5  N   UNL     1       0.968   7.602  21.154  0.00  0.00    +0.000 NA
ATOM      6  C   UNL     1       0.255   8.732  21.357  0.00  0.00    +0.000 A 
ATOM      7  C   UNL     1       0.262   9.853  20.539  0.00  0.00    +0.000 A 
ATOM      8  C   UNL     1       1.059   9.874  19.384  0.00  0.00    +0.000 A 
ATOM      9  C   UNL     1       1.783   8.574  19.072  0.00  0.00    +0.000 A 
ATOM     10  C   UNL     1       2.552   8.200  17.910  0.00  0.00    +0.000 A 
ENDROOT
BRANCH   1  12
ATOM     11  C   UNL     1       5.653   6.536  17.084  0.00  0.00    +0.000 C 
ATOM     12  O   UNL     1       4.299   6.950  16.798  0.00  0.00    +0.000 OA
ENDBRANCH   1  12
BRANCH   3  13
ATOM     13  N   UNL     1       2.572   5.265  20.950  0.00  0.00    +0.000 N 
ATOM     14  H   UNL     1       2.097   5.600  21.789  0.00  0.00    +0.000 HD
BRANCH  13  15
ATOM     15  C   UNL     1       2.259   3.857  20.550  0.00  0.00    +0.000 C 
ATOM     16  C   UNL     1       2.398   2.898  21.737  0.00  0.00    +0.000 C 
BRANCH  15  17
ATOM     17  C   UNL     1       0.873   3.725  19.903  0.00  0.00    +0.000 C 
BRANCH  17  18
ATOM     18  C   UNL     1       0.908   2.652  18.813  0.00  0.00    +0.000 C 
BRANCH  18  19
ATOM     19  C   UNL     1       2.174   2.723  17.974  0.00  0.00    +0.000 C 
BRANCH  19  20
ATOM     20  N   UNL     1       2.908   1.472  18.121  0.00  0.00    +0.000 NA
ATOM     21  H   UNL     1       3.909   1.669  18.165  0.00  0.00    +0.000 HD
ATOM     22  H   UNL     1       2.767   0.893  17.296  0.00  0.00    +0.000 HD
ENDBRANCH  19  20
ENDBRANCH  18  19
ENDBRANCH  17  18
ENDBRANCH  15  17
ENDBRANCH  13  15
ENDBRANCH   3  13
BRANCH   8  23
ATOM     23  C   UNL     1       1.366  11.389  18.927  0.00  0.00    +0.000 C 
BRANCH  23  24
ATOM     24  C   UNL     1       0.927  12.842  19.379  0.00  0.00    +0.000 C 
ATOM     25  C   UNL     1       1.541  13.306  20.761  0.00  0.00    +0.000 C 
ATOM     26  C   UNL     1       2.997  13.793  20.783  0.00  0.00    +0.000 C 
ATOM     27  C   UNL     1       3.563  14.363  19.489  0.00  0.00    +0.000 C 
ATOM     28  C   UNL     1       2.662  14.378  18.254  0.00  0.00    +0.000 C 
ATOM     29  C   UNL     1       1.197  13.993  18.423  0.00  0.00    +0.000 C 
ENDBRANCH  23  24
ENDBRANCH   8  23
TORSDOF 9
ENDMDL
MODEL 5
REMARK VINA RESULT:      -6.7      0.919      1.208
REMARK  Name = 
REMARK  11 active torsions:
REMARK  status: ('A' for Active; 'I' for Inactive)
REMARK    1  A    between atoms: C_1  and  O_2
REMARK    2  A    between atoms: O_2  and  C_3
REMARK    3  A    between atoms: C_5  and  N_6
REMARK    4  A    between atoms: N_6  and  C_7
REMARK    5  A    between atoms: C_7  and  C_8
REMARK    6  A    between atoms: C_7  and  C_9
REMARK    7  A    between atoms: C_9  and  C_10
REMARK    8  A    between atoms: C_10  and  C_11
REMARK    9  A    between atoms: C_11  and  N_12
REMARK   10  A    between atoms: C_17  and  C_18
REMARK   11  A    between atoms: C_18  and  C_19
REMARK                            x       y       z     vdW  Elec       q    Type
REMARK                         _______ _______ _______ _____ _____    ______ ____
ROOT
ATOM      1  C   UNL     1       0.703   9.543  21.619  0.00  0.00    +0.000 A 
ATOM      2  C   UNL     1       0.925  10.541  20.686  0.00  0.00    +0.000 A 
ATOM      3  C   UNL     1       1.290  10.207  19.383  0.00  0.00    +0.000 A 
ATOM      4  C   UNL     1       1.651   8.842  19.070  0.00  0.00    +0.000 A 
ATOM      5  N   UNL     1       2.096   8.616  17.825  0.00  0.00    +0.000 NA
ATOM      6  C   UNL     1       2.516   7.376  17.489  0.00  0.00    +0.000 A 
ATOM      7  C   UNL     1       2.562   6.278  18.336  0.00  0.00    +0.000 A 
ATOM      8  C   UNL     1       2.149   6.405  19.672  0.00  0.00    +0.000 A 
ATOM      9  C   UNL     1       1.566   7.759  20.044  0.00  0.00    +0.000 A 
ATOM     10  C   UNL     1       0.918   8.183  21.262  0.00  0.00    +0.000 A 
ENDROOT
BRANCH   1  12
ATOM     11  C   UNL     1      -0.897  10.668  23.026  0.00  0.00    +0.000 C 
ATOM     12  O   UNL     1       0.288   9.853  22.894  0.00  0.00    +0.000 OA
ENDBRANCH   1  12
BRANCH   3  13
ATOM     13  N   UNL     1       1.437  11.306  18.464  0.00  0.00    +0.000 N 
ATOM     14  H   UNL     1       1.035  11.039  17.563  0.00  0.00    +0.000 HD
BRANCH  13  15
ATOM     15  C   UNL     1       1.114  12.691  18.929  0.00  0.00    +0.000 C 
ATOM     16  C   UNL     1       2.257  13.663  18.614  0.00  0.00    +0.000 C 
BRANCH  15  17
ATOM     17  C   UNL     1      -0.213  13.208  18.358  0.00  0.00    +0.000 C 
BRANCH  17  18
ATOM     18  C   UNL     1      -1.291  13.184  19.444  0.00  0.00    +0.000 C 
BRANCH  18  19
ATOM     19  C   UNL     1      -2.196  11.967  19.331  0.00  0.00    +0.000 C 
BRANCH  19  20
ATOM     20  N   UNL     1      -3.554  12.415  19.048  0.00  0.00    +0.000 NA
ATOM     21  H   UNL     1      -3.998  11.762  18.401  0.00  0.00    +0.000 HD
ATOM     22  H   UNL     1      -3.527  13.315  18.573  0.00  0.00    +0.000 HD
ENDBRANCH  19  20
ENDBRANCH  18  19
ENDBRANCH  17  18
ENDBRANCH  15  17
ENDBRANCH  13  15
ENDBRANCH   3  13
BRANCH   8  23
ATOM     23  C   UNL     1       2.802   5.249  20.586  0.00  0.00    +0.000 C 
BRANCH  23  24
ATOM     24  C   UNL     1       2.500   3.729  20.915  0.00  0.00    +0.000 C 
ATOM     25  C   UNL     1       1.057   3.245  20.484  0.00  0.00    +0.000 C 
ATOM     26  C   UNL     1       0.810   2.923  19.003  0.00  0.00    +0.000 C 
ATOM     27  C   UNL     1       2.014   2.507  18.168  0.00  0.00    +0.000 C 
ATOM     28  C   UNL     1       3.385   2.474  18.846  0.00  0.00    +0.000 C 
ATOM     29  C   UNL     1       3.449   2.681  20.355  0.00  0.00    +0.000 C 
ENDBRANCH  23  24
ENDBRANCH   8  23
TORSDOF 9
ENDMDL
MODEL 6
REMARK VINA RESULT:      -6.6      1.028      1.294
REMARK  Name = 
REMARK  11 active torsions:
REMARK  status: ('A' for Active; 'I' for Inactive)
REMARK    1  A    between atoms: C_1  and  O_2
REMARK    2  A    between atoms: O_2  and  C_3
REMARK    3  A    between atoms: C_5  and  N_6
REMARK    4  A    between atoms: N_6  and  C_7
REMARK    5  A    between atoms: C_7  and  C_8
REMARK    6  A    between atoms: C_7  and  C_9
REMARK    7  A    between atoms: C_9  and  C_10
REMARK    8  A    between atoms: C_10  and  C_11
REMARK    9  A    between atoms: C_11  and  N_12
REMARK   10  A    between atoms: C_17  and  C_18
REMARK   11  A    between atoms: C_18  and  C_19
REMARK                            x       y       z     vdW  Elec       q    Type
REMARK                         _______ _______ _______ _____ _____    ______ ____
ROOT
ATOM      1  C   UNL     1       0.389   9.507  21.760  0.00  0.00    +0.000 A 
ATOM      2  C   UNL     1       0.493  10.662  21.006  0.00  0.00    +0.000 A 
ATOM      3  C   UNL     1       0.930  10.593  19.684  0.00  0.00    +0.000 A 
ATOM      4  C   UNL     1       1.481   9.357  19.177  0.00  0.00    +0.000 A 
ATOM      5  N   UNL     1       1.981   9.394  17.933  0.00  0.00    +0.000 NA
ATOM      6  C   UNL     1       2.574   8.291  17.426  0.00  0.00    +0.000 A 
ATOM      7  C   UNL     1       2.751   7.087  18.092  0.00  0.00    +0.000 A 
ATOM      8  C   UNL     1       2.295   6.941  19.412  0.00  0.00    +0.000 A 
ATOM      9  C   UNL     1       1.523   8.129  19.965  0.00  0.00    +0.000 A 
ATOM     10  C   UNL     1       0.796   8.262  21.205  0.00  0.00    +0.000 A 
ENDROOT
BRANCH   1  12
ATOM     11  C   UNL     1      -1.125  10.518  23.339  0.00  0.00    +0.000 C 
ATOM     12  O   UNL     1      -0.092   9.550  23.049  0.00  0.00    +0.000 OA
ENDBRANCH   1  12
BRANCH   3  13
ATOM     13  N   UNL     1       0.945  11.836  18.955  0.00  0.00    +0.000 N 
ATOM     14  H   UNL     1       1.395  11.683  18.051  0.00  0.00    +0.000 HD
BRANCH  13  15
ATOM     15  C   UNL     1      -0.293  12.676  18.926  0.00  0.00    +0.000 C 
ATOM     16  C   UNL     1       0.027  14.122  18.532  0.00  0.00    +0.000 C 
BRANCH  15  17
ATOM     17  C   UNL     1      -1.379  12.091  18.013  0.00  0.00    +0.000 C 
BRANCH  17  18
ATOM     18  C   UNL     1      -2.639  11.796  18.828  0.00  0.00    +0.000 C 
BRANCH  18  19
ATOM     19  C   UNL     1      -3.787  11.305  17.959  0.00  0.00    +0.000 C 
BRANCH  19  20
ATOM     20  N   UNL     1      -4.816  12.335  17.911  0.00  0.00    +0.000 NA
ATOM     21  H   UNL     1      -4.729  12.940  18.729  0.00  0.00    +0.000 HD
ATOM     22  H   UNL     1      -5.736  11.904  17.970  0.00  0.00    +0.000 HD
ENDBRANCH  19  20
ENDBRANCH  18  19
ENDBRANCH  17  18
ENDBRANCH  15  17
ENDBRANCH  13  15
ENDBRANCH   3  13
BRANCH   8  23
ATOM     23  C   UNL     1       3.079   5.749  20.161  0.00  0.00    +0.000 C 
BRANCH  23  24
ATOM     24  C   UNL     1       2.975   4.171  20.243  0.00  0.00    +0.000 C 
ATOM     25  C   UNL     1       1.588   3.586  19.758  0.00  0.00    +0.000 C 
ATOM     26  C   UNL     1       1.333   3.475  18.248  0.00  0.00    +0.000 C 
ATOM     27  C   UNL     1       2.551   3.351  17.341  0.00  0.00    +0.000 C 
ATOM     28  C   UNL     1       3.937   3.382  17.987  0.00  0.00    +0.000 C 
ATOM     29  C   UNL     1       4.025   3.353  19.509  0.00  0.00    +0.000 C 
ENDBRANCH  23  24
ENDBRANCH   8  23
TORSDOF 9
ENDMDL
MODEL 7
REMARK VINA RESULT:      -6.6      2.693      8.141
REMARK  Name = 
REMARK  11 active torsions:
REMARK  status: ('A' for Active; 'I' for Inactive)
REMARK    1  A    between atoms: C_1  and  O_2
REMARK    2  A    between atoms: O_2  and  C_3
REMARK    3  A    between atoms: C_5  and  N_6
REMARK    4  A    between atoms: N_6  and  C_7
REMARK    5  A    between atoms: C_7  and  C_8
REMARK    6  A    between atoms: C_7  and  C_9
REMARK    7  A    between atoms: C_9  and  C_10
REMARK    8  A    between atoms: C_10  and  C_11
REMARK    9  A    between atoms: C_11  and  N_12
REMARK   10  A    between atoms: C_17  and  C_18
REMARK   11  A    between atoms: C_18  and  C_19
REMARK                            x       y       z     vdW  Elec       q    Type
REMARK                         _______ _______ _______ _____ _____    ______ ____
ROOT
ATOM      1  C   UNL     1       3.375   7.202  17.855  0.00  0.00    +0.000 A 
ATOM      2  C   UNL     1       3.346   6.327  18.926  0.00  0.00    +0.000 A 
ATOM      3  C   UNL     1       2.419   6.511  19.951  0.00  0.00    +0.000 A 
ATOM      4  C   UNL     1       1.645   7.731  20.004  0.00  0.00    +0.000 A 
ATOM      5  N   UNL     1       0.853   7.887  21.075  0.00  0.00    +0.000 NA
ATOM      6  C   UNL     1       0.157   9.036  21.220  0.00  0.00    +0.000 A 
ATOM      7  C   UNL     1       0.198  10.124  20.359  0.00  0.00    +0.000 A 
ATOM      8  C   UNL     1       1.016  10.085  19.219  0.00  0.00    +0.000 A 
ATOM      9  C   UNL     1       1.722   8.761  18.972  0.00  0.00    +0.000 A 
ATOM     10  C   UNL     1       2.504   8.328  17.839  0.00  0.00    +0.000 A 
ENDROOT
BRANCH   1  12
ATOM     11  C   UNL     1       5.479   6.308  17.097  0.00  0.00    +0.000 C 
ATOM     12  O   UNL     1       4.247   7.005  16.809  0.00  0.00    +0.000 OA
ENDBRANCH   1  12
BRANCH   3  13
ATOM     13  N   UNL     1       2.417   5.516  20.992  0.00  0.00    +0.000 N 
ATOM     14  H   UNL     1       1.875   5.865  21.783  0.00  0.00    +0.000 HD
BRANCH  13  15
ATOM     15  C   UNL     1       2.178   4.084  20.628  0.00  0.00    +0.000 C 
ATOM     16  C   UNL     1       2.319   3.169  21.849  0.00  0.00    +0.000 C 
BRANCH  15  17
ATOM     17  C   UNL     1       0.822   3.871  19.942  0.00  0.00    +0.000 C 
BRANCH  17  18
ATOM     18  C   UNL     1       0.933   2.751  18.907  0.00  0.00    +0.000 C 
BRANCH  18  19
ATOM     19  C   UNL     1       2.258   2.782  18.161  0.00  0.00    +0.000 C 
BRANCH  19  20
ATOM     20  N   UNL     1       2.894   1.476  18.274  0.00  0.00    +0.000 NA
ATOM     21  H   UNL     1       3.894   1.598  18.435  0.00  0.00    +0.000 HD
ATOM     22  H   UNL     1       2.805   0.974  17.392  0.00  0.00    +0.000 HD
ENDBRANCH  19  20
ENDBRANCH  18  19
ENDBRANCH  17  18
ENDBRANCH  15  17
ENDBRANCH  13  15
ENDBRANCH   3  13
BRANCH   8  23
ATOM     23  C   UNL     1       1.358  11.576  18.709  0.00  0.00    +0.000 C 
BRANCH  23  24
ATOM     24  C   UNL     1       2.185  12.817  19.242  0.00  0.00    +0.000 C 
ATOM     25  C   UNL     1       1.844  14.183  18.521  0.00  0.00    +0.000 C 
ATOM     26  C   UNL     1       0.562  14.922  18.933  0.00  0.00    +0.000 C 
ATOM     27  C   UNL     1       0.029  14.669  20.337  0.00  0.00    +0.000 C 
ATOM     28  C   UNL     1       0.780  13.674  21.224  0.00  0.00    +0.000 C 
ATOM     29  C   UNL     1       2.114  13.129  20.728  0.00  0.00    +0.000 C 
ENDBRANCH  23  24
ENDBRANCH   8  23
TORSDOF 9
ENDMDL
MODEL 8
REMARK VINA RESULT:      -6.4      2.764      8.223
REMARK  Name = 
REMARK  11 active torsions:
REMARK  status: ('A' for Active; 'I' for Inactive)
REMARK    1  A    between atoms: C_1  and  O_2
REMARK    2  A    between atoms: O_2  and  C_3
REMARK    3  A    between atoms: C_5  and  N_6
REMARK    4  A    between atoms: N_6  and  C_7
REMARK    5  A    between atoms: C_7  and  C_8
REMARK    6  A    between atoms: C_7  and  C_9
REMARK    7  A    between atoms: C_9  and  C_10
REMARK    8  A    between atoms: C_10  and  C_11
REMARK    9  A    between atoms: C_11  and  N_12
REMARK   10  A    between atoms: C_17  and  C_18
REMARK   11  A    between atoms: C_18  and  C_19
REMARK                            x       y       z     vdW  Elec       q    Type
REMARK                         _______ _______ _______ _____ _____    ______ ____
ROOT
ATOM      1  C   UNL     1       3.430   6.832  17.936  0.00  0.00    +0.000 A 
ATOM      2  C   UNL     1       3.470   6.009  19.047  0.00  0.00    +0.000 A 
ATOM      3  C   UNL     1       2.577   6.213  20.097  0.00  0.00    +0.000 A 
ATOM      4  C   UNL     1       1.767   7.411  20.124  0.00  0.00    +0.000 A 
ATOM      5  N   UNL     1       1.012   7.593  21.218  0.00  0.00    +0.000 NA
ATOM      6  C   UNL     1       0.286   8.727  21.337  0.00  0.00    +0.000 A 
ATOM      7  C   UNL     1       0.260   9.773  20.425  0.00  0.00    +0.000 A 
ATOM      8  C   UNL     1       1.035   9.705  19.257  0.00  0.00    +0.000 A 
ATOM      9  C   UNL     1       1.772   8.392  19.044  0.00  0.00    +0.000 A 
ATOM     10  C   UNL     1       2.524   7.929  17.902  0.00  0.00    +0.000 A 
ENDROOT
BRANCH   1  12
ATOM     11  C   UNL     1       4.828   5.287  16.726  0.00  0.00    +0.000 C 
ATOM     12  O   UNL     1       4.267   6.611  16.866  0.00  0.00    +0.000 OA
ENDBRANCH   1  12
BRANCH   3  13
ATOM     13  N   UNL     1       2.647   5.269  21.182  0.00  0.00    +0.000 N 
ATOM     14  H   UNL     1       2.562   5.773  22.066  0.00  0.00    +0.000 HD
BRANCH  13  15
ATOM     15  C   UNL     1       1.866   3.995  21.089  0.00  0.00    +0.000 C 
ATOM     16  C   UNL     1       0.769   4.093  20.023  0.00  0.00    +0.000 C 
BRANCH  15  17
ATOM     17  C   UNL     1       2.761   2.775  20.838  0.00  0.00    +0.000 C 
BRANCH  17  18
ATOM     18  C   UNL     1       2.523   2.237  19.425  0.00  0.00    +0.000 C 
BRANCH  18  19
ATOM     19  C   UNL     1       3.815   2.102  18.634  0.00  0.00    +0.000 C 
BRANCH  19  20
ATOM     20  N   UNL     1       4.910   2.653  19.421  0.00  0.00    +0.000 NA
ATOM     21  H   UNL     1       5.524   3.197  18.814  0.00  0.00    +0.000 HD
ATOM     22  H   UNL     1       5.478   1.896  19.797  0.00  0.00    +0.000 HD
ENDBRANCH  19  20
ENDBRANCH  18  19
ENDBRANCH  17  18
ENDBRANCH  15  17
ENDBRANCH  13  15
ENDBRANCH   3  13
BRANCH   8  23
ATOM     23  C   UNL     1       1.309  11.179  18.665  0.00  0.00    +0.000 C 
BRANCH  23  24
ATOM     24  C   UNL     1       1.985  12.518  19.172  0.00  0.00    +0.000 C 
ATOM     25  C   UNL     1       1.512  13.817  18.402  0.00  0.00    +0.000 C 
ATOM     26  C   UNL     1       0.150  14.423  18.769  0.00  0.00    +0.000 C 
ATOM     27  C   UNL     1      -0.380  14.155  20.171  0.00  0.00    +0.000 C 
ATOM     28  C   UNL     1       0.457  13.276  21.102  0.00  0.00    +0.000 C 
ATOM     29  C   UNL     1       1.852  12.865  20.646  0.00  0.00    +0.000 C 
ENDBRANCH  23  24
ENDBRANCH   8  23
TORSDOF 9
ENDMDL
MODEL 9
REMARK VINA RESULT:      -6.4      2.759      7.676
REMARK  Name = 
REMARK  11 active torsions:
REMARK  status: ('A' for Active; 'I' for Inactive)
REMARK    1  A    between atoms: C_1  and  O_2
REMARK    2  A    between atoms: O_2  and  C_3
REMARK    3  A    between atoms: C_5  and  N_6
REMARK    4  A    between atoms: N_6  and  C_7
REMARK    5  A    between atoms: C_7  and  C_8
REMARK    6  A    between atoms: C_7  and  C_9
REMARK    7  A    between atoms: C_9  and  C_10
REMARK    8  A    between atoms: C_10  and  C_11
REMARK    9  A    between atoms: C_11  and  N_12
REMARK   10  A    between atoms: C_17  and  C_18
REMARK   11  A    between atoms: C_18  and  C_19
REMARK                            x       y       z     vdW  Elec       q    Type
REMARK                         _______ _______ _______ _____ _____    ______ ____
ROOT
ATOM      1  C   UNL     1       2.303   4.745  20.762  0.00  0.00    +0.000 A 
ATOM      2  C   UNL     1       2.736   4.239  19.550  0.00  0.00    +0.000 A 
ATOM      3  C   UNL     1       3.037   5.108  18.501  0.00  0.00    +0.000 A 
ATOM      4  C   UNL     1       2.686   6.506  18.608  0.00  0.00    +0.000 A 
ATOM      5  N   UNL     1       2.905   7.259  17.519  0.00  0.00    +0.000 NA
ATOM      6  C   UNL     1       2.533   8.558  17.530  0.00  0.00    +0.000 A 
ATOM      7  C   UNL     1       1.900   9.212  18.577  0.00  0.00    +0.000 A 
ATOM      8  C   UNL     1       1.592   8.516  19.756  0.00  0.00    +0.000 A 
ATOM      9  C   UNL     1       2.102   7.084  19.815  0.00  0.00    +0.000 A 
ATOM     10  C   UNL     1       2.098   6.146  20.911  0.00  0.00    +0.000 A 
ENDROOT
BRANCH   1  12
ATOM     11  C   UNL     1       1.553   2.586  21.523  0.00  0.00    +0.000 C 
ATOM     12  O   UNL     1       2.054   3.907  21.825  0.00  0.00    +0.000 OA
ENDBRANCH   1  12
BRANCH   3  13
ATOM     13  N   UNL     1       3.543   4.498  17.298  0.00  0.00    +0.000 N 
ATOM     14  H   UNL     1       3.015   4.854  16.500  0.00  0.00    +0.000 HD
BRANCH  13  15
ATOM     15  C   UNL     1       5.023   4.399  17.101  0.00  0.00    +0.000 C 
ATOM     16  C   UNL     1       5.487   5.274  15.932  0.00  0.00    +0.000 C 
BRANCH  15  17
ATOM     17  C   UNL     1       5.809   4.734  18.376  0.00  0.00    +0.000 C 
BRANCH  17  18
ATOM     18  C   UNL     1       7.268   5.033  18.025  0.00  0.00    +0.000 C 
BRANCH  18  19
ATOM     19  C   UNL     1       7.897   6.036  18.979  0.00  0.00    +0.000 C 
BRANCH  19  20
ATOM     20  N   UNL     1       7.949   5.449  20.313  0.00  0.00    +0.000 NA
ATOM     21  H   UNL     1       8.872   5.042  20.468  0.00  0.00    +0.000 HD
ATOM     22  H   UNL     1       7.283   4.682  20.376  0.00  0.00    +0.000 HD
ENDBRANCH  19  20
ENDBRANCH  18  19
ENDBRANCH  17  18
ENDBRANCH  15  17
ENDBRANCH  13  15
ENDBRANCH   3  13
BRANCH   8  23
ATOM     23  C   UNL     1       0.402   9.247  20.560  0.00  0.00    +0.000 C 
BRANCH  23  24
ATOM     24  C   UNL     1       0.172  10.649  21.258  0.00  0.00    +0.000 C 
ATOM     25  C   UNL     1       1.165  11.784  20.780  0.00  0.00    +0.000 C 
ATOM     26  C   UNL     1       0.895  12.466  19.431  0.00  0.00    +0.000 C 
ATOM     27  C   UNL     1      -0.543  12.476  18.929  0.00  0.00    +0.000 C 
ATOM     28  C   UNL     1      -1.608  11.779  19.778  0.00  0.00    +0.000 C 
ATOM     29  C   UNL     1      -1.212  11.272  21.159  0.00  0.00    +0.000 C 
ENDBRANCH  23  24
ENDBRANCH   8  23
TORSDOF 9
ENDMDL
