MODEL 1
REMARK VINA RESULT:      -5.3      0.000      0.000
REMARK  Name = 
REMARK  2 active torsions:
REMARK  status: ('A' for Active; 'I' for Inactive)
REMARK    1  A    between atoms: C_6  and  N_7
REMARK    2  A    between atoms: C_8  and  N_9
REMARK                            x       y       z     vdW  Elec       q    Type
REMARK                         _______ _______ _______ _____ _____    ______ ____
ROOT
ATOM      1  N   UNL     1       1.806   6.797  20.814  0.00  0.00    +0.000 N 
ATOM      2  C   UNL     1       2.302   5.628  20.246  0.00  0.00    +0.000 A 
ATOM      3  N   UNL     1       1.131   4.221  19.898  0.00  0.00    +0.000 NA
ATOM      4  C   UNL     1       1.732   2.648  19.091  0.00  0.00    +0.000 A 
ATOM      5  N   UNL     1       0.871   1.616  18.731  0.00  0.00    +0.000 N 
ATOM      6  C   UNL     1       3.591   2.486  18.802  0.00  0.00    +0.000 A 
ATOM      7  C   UNL     1       4.710   3.998  18.951  0.00  0.00    +0.000 A 
ATOM      8  N   UNL     1       4.043   5.641  19.559  0.00  0.00    +0.000 NA
ATOM      9  H   UNL     1       0.816   6.865  20.596  0.00  0.00    +0.000 HD
ATOM     10  H   UNL     1       2.348   7.589  20.483  0.00  0.00    +0.000 HD
ATOM     11  H   UNL     1      -0.063   1.776  19.097  0.00  0.00    +0.000 HD
ATOM     12  H   UNL     1       1.252   0.713  18.989  0.00  0.00    +0.000 HD
ENDROOT
BRANCH   6  13
ATOM     13  N   UNL     1       4.104   1.325  18.147  0.00  0.00    +0.000 N 
ATOM     14  H   UNL     1       3.357   0.694  17.886  0.00  0.00    +0.000 HD
ATOM     15  H   UNL     1       4.805   0.886  18.738  0.00  0.00    +0.000 HD
ENDBRANCH   6  13
BRANCH   7  16
ATOM     16  N   UNL     1       6.076   3.846  18.661  0.00  0.00    +0.000 N 
ATOM     17  H   UNL     1       6.615   4.579  19.113  0.00  0.00    +0.000 HD
ATOM     18  H   UNL     1       6.399   2.911  18.890  0.00  0.00    +0.000 HD
ENDBRANCH   7  16
TORSDOF 2
ENDMDL
MODEL 2
REMARK VINA RESULT:      -5.2      3.025      5.385
REMARK  Name = 
REMARK  2 active torsions:
REMARK  status: ('A' for Active; 'I' for Inactive)
REMARK    1  A    between atoms: C_6  and  N_7
REMARK    2  A    between atoms: C_8  and  N_9
REMARK                            x       y       z     vdW  Elec       q    Type
REMARK                         _______ _______ _______ _____ _____    ______ ____
ROOT
ATOM      1  N   UNL     1       3.558   2.597  18.440  0.00  0.00    +0.000 N 
ATOM      2  C   UNL     1       4.416   3.660  18.182  0.00  0.00    +0.000 A 
ATOM      3  N   UNL     1       5.794   4.028  19.382  0.00  0.00    +0.000 NA
ATOM      4  C   UNL     1       7.005   5.411  19.059  0.00  0.00    +0.000 A 
ATOM      5  N   UNL     1       8.100   5.653  19.884  0.00  0.00    +0.000 N 
ATOM      6  C   UNL     1       6.672   6.514  17.564  0.00  0.00    +0.000 A 
ATOM      7  C   UNL     1       5.420   5.987  16.255  0.00  0.00    +0.000 A 
ATOM      8  N   UNL     1       4.356   4.463  16.492  0.00  0.00    +0.000 NA
ATOM      9  H   UNL     1       4.041   1.932  19.039  0.00  0.00    +0.000 HD
ATOM     10  H   UNL     1       3.243   2.196  17.563  0.00  0.00    +0.000 HD
ATOM     11  H   UNL     1       8.053   5.090  20.727  0.00  0.00    +0.000 HD
ATOM     12  H   UNL     1       8.208   6.644  20.069  0.00  0.00    +0.000 HD
ENDROOT
BRANCH   6  13
ATOM     13  N   UNL     1       7.590   7.560  17.241  0.00  0.00    +0.000 N 
ATOM     14  H   UNL     1       8.340   7.218  16.653  0.00  0.00    +0.000 HD
ATOM     15  H   UNL     1       7.924   7.993  18.098  0.00  0.00    +0.000 HD
ENDBRANCH   6  13
BRANCH   7  16
ATOM     16  N   UNL     1       5.254   6.806  15.126  0.00  0.00    +0.000 N 
ATOM     17  H   UNL     1       6.020   7.471  15.057  0.00  0.00    +0.000 HD
ATOM     18  H   UNL     1       5.128   6.251  14.285  0.00  0.00    +0.000 HD
ENDBRANCH   7  16
TORSDOF 2
ENDMDL
MODEL 3
REMARK VINA RESULT:      -5.2      0.204      3.273
REMARK  Name = 
REMARK  2 active torsions:
REMARK  status: ('A' for Active; 'I' for Inactive)
REMARK    1  A    between atoms: C_6  and  N_7
REMARK    2  A    between atoms: C_8  and  N_9
REMARK                            x       y       z     vdW  Elec       q    Type
REMARK                         _______ _______ _______ _____ _____    ______ ____
ROOT
ATOM      1  N   UNL     1       1.815   6.894  20.711  0.00  0.00    +0.000 N 
ATOM      2  C   UNL     1       2.288   5.734  20.107  0.00  0.00    +0.000 A 
ATOM      3  N   UNL     1       4.092   5.617  19.656  0.00  0.00    +0.000 NA
ATOM      4  C   UNL     1       4.792   4.066  18.890  0.00  0.00    +0.000 A 
ATOM      5  N   UNL     1       6.150   3.908  18.628  0.00  0.00    +0.000 N 
ATOM      6  C   UNL     1       3.568   2.700  18.442  0.00  0.00    +0.000 A 
ATOM      7  C   UNL     1       1.805   2.750  19.110  0.00  0.00    +0.000 A 
ATOM      8  N   UNL     1       1.175   4.230  20.073  0.00  0.00    +0.000 NA
ATOM      9  H   UNL     1       2.592   7.355  21.176  0.00  0.00    +0.000 HD
ATOM     10  H   UNL     1       1.050   6.661  21.336  0.00  0.00    +0.000 HD
ATOM     11  H   UNL     1       6.652   4.780  18.767  0.00  0.00    +0.000 HD
ATOM     12  H   UNL     1       6.302   3.500  17.712  0.00  0.00    +0.000 HD
ENDROOT
BRANCH   6  13
ATOM     13  N   UNL     1       4.051   1.472  17.895  0.00  0.00    +0.000 N 
ATOM     14  H   UNL     1       3.893   0.702  18.534  0.00  0.00    +0.000 HD
ATOM     15  H   UNL     1       5.028   1.578  17.635  0.00  0.00    +0.000 HD
ENDBRANCH   6  13
BRANCH   7  16
ATOM     16  N   UNL     1       0.948   1.678  18.807  0.00  0.00    +0.000 N 
ATOM     17  H   UNL     1       0.034   1.831  19.225  0.00  0.00    +0.000 HD
ATOM     18  H   UNL     1       0.909   1.510  17.807  0.00  0.00    +0.000 HD
ENDBRANCH   7  16
TORSDOF 2
ENDMDL
MODEL 4
REMARK VINA RESULT:      -5.1      1.790      3.408
REMARK  Name = 
REMARK  2 active torsions:
REMARK  status: ('A' for Active; 'I' for Inactive)
REMARK    1  A    between atoms: C_6  and  N_7
REMARK    2  A    between atoms: C_8  and  N_9
REMARK                            x       y       z     vdW  Elec       q    Type
REMARK                         _______ _______ _______ _____ _____    ______ ____
ROOT
ATOM      1  N   UNL     1       2.124   7.562  19.284  0.00  0.00    +0.000 N 
ATOM      2  C   UNL     1       2.720   6.318  19.459  0.00  0.00    +0.000 A 
ATOM      3  N   UNL     1       4.303   5.934  18.553  0.00  0.00    +0.000 NA
ATOM      4  C   UNL     1       5.173   4.300  18.789  0.00  0.00    +0.000 A 
ATOM      5  N   UNL     1       6.404   4.016  18.204  0.00  0.00    +0.000 N 
ATOM      6  C   UNL     1       4.296   3.003  19.845  0.00  0.00    +0.000 A 
ATOM      7  C   UNL     1       2.826   3.493  20.921  0.00  0.00    +0.000 A 
ATOM      8  N   UNL     1       2.093   5.216  20.835  0.00  0.00    +0.000 NA
ATOM      9  H   UNL     1       2.840   8.224  18.997  0.00  0.00    +0.000 HD
ATOM     10  H   UNL     1       1.645   7.830  20.137  0.00  0.00    +0.000 HD
ATOM     11  H   UNL     1       6.666   4.738  17.539  0.00  0.00    +0.000 HD
ATOM     12  H   UNL     1       6.415   3.083  17.807  0.00  0.00    +0.000 HD
ENDROOT
BRANCH   6  13
ATOM     13  N   UNL     1       4.934   1.751  20.098  0.00  0.00    +0.000 N 
ATOM     14  H   UNL     1       4.913   1.525  21.085  0.00  0.00    +0.000 HD
ATOM     15  H   UNL     1       5.875   1.767  19.715  0.00  0.00    +0.000 HD
ENDBRANCH   6  13
BRANCH   7  16
ATOM     16  N   UNL     1       2.247   2.511  21.742  0.00  0.00    +0.000 N 
ATOM     17  H   UNL     1       2.463   1.583  21.387  0.00  0.00    +0.000 HD
ATOM     18  H   UNL     1       2.511   2.641  22.714  0.00  0.00    +0.000 HD
ENDBRANCH   7  16
TORSDOF 2
ENDMDL
MODEL 5
REMARK VINA RESULT:      -5.1      3.034      4.950
REMARK  Name = 
REMARK  2 active torsions:
REMARK  status: ('A' for Active; 'I' for Inactive)
REMARK    1  A    between atoms: C_6  and  N_7
REMARK    2  A    between atoms: C_8  and  N_9
REMARK                            x       y       z     vdW  Elec       q    Type
REMARK                         _______ _______ _______ _____ _____    ______ ____
ROOT
ATOM      1  N   UNL     1       3.495   2.707  18.656  0.00  0.00    +0.000 N 
ATOM      2  C   UNL     1       4.420   3.686  18.312  0.00  0.00    +0.000 A 
ATOM      3  N   UNL     1       4.161   4.672  16.752  0.00  0.00    +0.000 NA
ATOM      4  C   UNL     1       5.345   6.032  16.268  0.00  0.00    +0.000 A 
ATOM      5  N   UNL     1       5.132   6.850  15.162  0.00  0.00    +0.000 N 
ATOM      6  C   UNL     1       6.890   6.246  17.331  0.00  0.00    +0.000 A 
ATOM      7  C   UNL     1       7.010   5.400  19.012  0.00  0.00    +0.000 A 
ATOM      8  N   UNL     1       5.695   4.193  19.585  0.00  0.00    +0.000 NA
ATOM      9  H   UNL     1       2.607   2.936  18.218  0.00  0.00    +0.000 HD
ATOM     10  H   UNL     1       3.440   2.635  19.667  0.00  0.00    +0.000 HD
ATOM     11  H   UNL     1       4.356   6.510  14.601  0.00  0.00    +0.000 HD
ATOM     12  H   UNL     1       5.985   6.977  14.630  0.00  0.00    +0.000 HD
ENDROOT
BRANCH   6  13
ATOM     13  N   UNL     1       7.809   7.300  17.036  0.00  0.00    +0.000 N 
ATOM     14  H   UNL     1       8.707   7.133  17.473  0.00  0.00    +0.000 HD
ATOM     15  H   UNL     1       7.397   8.191  17.301  0.00  0.00    +0.000 HD
ENDBRANCH   6  13
BRANCH   7  16
ATOM     16  N   UNL     1       8.149   5.641  19.799  0.00  0.00    +0.000 N 
ATOM     17  H   UNL     1       8.536   4.764  20.136  0.00  0.00    +0.000 HD
ATOM     18  H   UNL     1       8.824   6.214  19.302  0.00  0.00    +0.000 HD
ENDBRANCH   7  16
TORSDOF 2
ENDMDL
MODEL 6
REMARK VINA RESULT:      -5.0      2.180      3.541
REMARK  Name = 
REMARK  2 active torsions:
REMARK  status: ('A' for Active; 'I' for Inactive)
REMARK    1  A    between atoms: C_6  and  N_7
REMARK    2  A    between atoms: C_8  and  N_9
REMARK                            x       y       z     vdW  Elec       q    Type
REMARK                         _______ _______ _______ _____ _____    ______ ____
ROOT
ATOM      1  N   UNL     1       2.154   7.170  20.195  0.00  0.00    +0.000 N 
ATOM      2  C   UNL     1       2.956   6.368  19.390  0.00  0.00    +0.000 A 
ATOM      3  N   UNL     1       3.598   7.053  17.780  0.00  0.00    +0.000 NA
ATOM      4  C   UNL     1       4.720   6.040  16.685  0.00  0.00    +0.000 A 
ATOM      5  N   UNL     1       5.294   6.552  15.524  0.00  0.00    +0.000 N 
ATOM      6  C   UNL     1       5.033   4.250  17.195  0.00  0.00    +0.000 A 
ATOM      7  C   UNL     1       4.564   3.660  18.924  0.00  0.00    +0.000 A 
ATOM      8  N   UNL     1       3.622   4.771  20.104  0.00  0.00    +0.000 NA
ATOM      9  H   UNL     1       2.354   8.143  19.981  0.00  0.00    +0.000 HD
ATOM     10  H   UNL     1       2.307   6.930  21.169  0.00  0.00    +0.000 HD
ATOM     11  H   UNL     1       4.905   7.462  15.296  0.00  0.00    +0.000 HD
ATOM     12  H   UNL     1       5.233   5.888  14.761  0.00  0.00    +0.000 HD
ENDROOT
BRANCH   6  13
ATOM     13  N   UNL     1       5.919   3.440  16.421  0.00  0.00    +0.000 N 
ATOM     14  H   UNL     1       6.746   3.959  16.152  0.00  0.00    +0.000 HD
ATOM     15  H   UNL     1       5.417   3.055  15.625  0.00  0.00    +0.000 HD
ENDBRANCH   6  13
BRANCH   7  16
ATOM     16  N   UNL     1       4.876   2.339  19.285  0.00  0.00    +0.000 N 
ATOM     17  H   UNL     1       5.024   2.274  20.289  0.00  0.00    +0.000 HD
ATOM     18  H   UNL     1       4.178   1.688  18.939  0.00  0.00    +0.000 HD
ENDBRANCH   7  16
TORSDOF 2
ENDMDL
MODEL 7
REMARK VINA RESULT:      -5.0      1.633      1.667
REMARK  Name = 
REMARK  2 active torsions:
REMARK  status: ('A' for Active; 'I' for Inactive)
REMARK    1  A    between atoms: C_6  and  N_7
REMARK    2  A    between atoms: C_8  and  N_9
REMARK                            x       y       z     vdW  Elec       q    Type
REMARK                         _______ _______ _______ _____ _____    ______ ____
ROOT
ATOM      1  N   UNL     1       2.259   7.732  19.105  0.00  0.00    +0.000 N 
ATOM      2  C   UNL     1       2.829   6.477  19.288  0.00  0.00    +0.000 A 
ATOM      3  N   UNL     1       1.905   5.195  20.276  0.00  0.00    +0.000 NA
ATOM      4  C   UNL     1       2.599   3.478  20.510  0.00  0.00    +0.000 A 
ATOM      5  N   UNL     1       1.895   2.469  21.161  0.00  0.00    +0.000 N 
ATOM      6  C   UNL     1       4.338   3.156  19.850  0.00  0.00    +0.000 A 
ATOM      7  C   UNL     1       5.147   4.384  18.668  0.00  0.00    +0.000 A 
ATOM      8  N   UNL     1       4.331   6.023  18.267  0.00  0.00    +0.000 NA
ATOM      9  H   UNL     1       1.251   7.645  19.203  0.00  0.00    +0.000 HD
ATOM     10  H   UNL     1       2.548   8.106  18.207  0.00  0.00    +0.000 HD
ATOM     11  H   UNL     1       1.057   2.836  21.601  0.00  0.00    +0.000 HD
ATOM     12  H   UNL     1       2.493   1.959  21.802  0.00  0.00    +0.000 HD
ENDROOT
BRANCH   6  13
ATOM     13  N   UNL     1       4.904   1.849  19.959  0.00  0.00    +0.000 N 
ATOM     14  H   UNL     1       4.243   1.200  20.369  0.00  0.00    +0.000 HD
ATOM     15  H   UNL     1       5.779   1.902  20.473  0.00  0.00    +0.000 HD
ENDBRANCH   6  13
BRANCH   7  16
ATOM     16  N   UNL     1       6.414   4.072  18.148  0.00  0.00    +0.000 N 
ATOM     17  H   UNL     1       6.525   4.481  17.224  0.00  0.00    +0.000 HD
ATOM     18  H   UNL     1       7.152   4.333  18.794  0.00  0.00    +0.000 HD
ENDBRANCH   7  16
TORSDOF 2
ENDMDL
MODEL 8
REMARK VINA RESULT:      -5.0      1.970      3.087
REMARK  Name = 
REMARK  2 active torsions:
REMARK  status: ('A' for Active; 'I' for Inactive)
REMARK    1  A    between atoms: C_6  and  N_7
REMARK    2  A    between atoms: C_8  and  N_9
REMARK                            x       y       z     vdW  Elec       q    Type
REMARK                         _______ _______ _______ _____ _____    ______ ____
ROOT
ATOM      1  N   UNL     1      -0.016   3.359  19.732  0.00  0.00    +0.000 N 
ATOM      2  C   UNL     1       1.343   3.513  19.486  0.00  0.00    +0.000 A 
ATOM      3  N   UNL     1       2.542   2.285  20.213  0.00  0.00    +0.000 NA
ATOM      4  C   UNL     1       4.373   2.414  19.874  0.00  0.00    +0.000 A 
ATOM      5  N   UNL     1       5.286   1.462  20.322  0.00  0.00    +0.000 N 
ATOM      6  C   UNL     1       4.965   3.926  18.912  0.00  0.00    +0.000 A 
ATOM      7  C   UNL     1       3.724   5.018  18.003  0.00  0.00    +0.000 A 
ATOM      8  N   UNL     1       1.879   4.741  18.179  0.00  0.00    +0.000 NA
ATOM      9  H   UNL     1      -0.196   2.382  19.945  0.00  0.00    +0.000 HD
ATOM     10  H   UNL     1      -0.544   3.704  18.937  0.00  0.00    +0.000 HD
ATOM     11  H   UNL     1       4.844   0.806  20.959  0.00  0.00    +0.000 HD
ATOM     12  H   UNL     1       6.113   1.901  20.709  0.00  0.00    +0.000 HD
ENDROOT
BRANCH   6  13
ATOM     13  N   UNL     1       6.349   4.055  18.583  0.00  0.00    +0.000 N 
ATOM     14  H   UNL     1       6.609   5.029  18.479  0.00  0.00    +0.000 HD
ATOM     15  H   UNL     1       6.554   3.500  17.757  0.00  0.00    +0.000 HD
ENDBRANCH   6  13
BRANCH   7  16
ATOM     16  N   UNL     1       4.215   6.093  17.244  0.00  0.00    +0.000 N 
ATOM     17  H   UNL     1       3.479   6.776  17.084  0.00  0.00    +0.000 HD
ATOM     18  H   UNL     1       5.048   6.492  17.666  0.00  0.00    +0.000 HD
ENDBRANCH   7  16
TORSDOF 2
ENDMDL
MODEL 9
REMARK VINA RESULT:      -5.0      2.195      2.736
REMARK  Name = 
REMARK  2 active torsions:
REMARK  status: ('A' for Active; 'I' for Inactive)
REMARK    1  A    between atoms: C_6  and  N_7
REMARK    2  A    between atoms: C_8  and  N_9
REMARK                            x       y       z     vdW  Elec       q    Type
REMARK                         _______ _______ _______ _____ _____    ______ ____
ROOT
ATOM      1  N   UNL     1       2.252   6.826  20.272  0.00  0.00    +0.000 N 
ATOM      2  C   UNL     1       3.017   6.101  19.365  0.00  0.00    +0.000 A 
ATOM      3  N   UNL     1       3.150   4.253  19.562  0.00  0.00    +0.000 NA
ATOM      4  C   UNL     1       4.123   3.225  18.345  0.00  0.00    +0.000 A 
ATOM      5  N   UNL     1       4.166   1.835  18.406  0.00  0.00    +0.000 N 
ATOM      6  C   UNL     1       5.093   4.152  17.018  0.00  0.00    +0.000 A 
ATOM      7  C   UNL     1       4.762   5.983  16.705  0.00  0.00    +0.000 A 
ATOM      8  N   UNL     1       3.606   6.960  17.809  0.00  0.00    +0.000 NA
ATOM      9  H   UNL     1       1.559   6.203  20.678  0.00  0.00    +0.000 HD
ATOM     10  H   UNL     1       1.848   7.631  19.805  0.00  0.00    +0.000 HD
ATOM     11  H   UNL     1       3.737   1.494  19.262  0.00  0.00    +0.000 HD
ATOM     12  H   UNL     1       5.109   1.490  18.268  0.00  0.00    +0.000 HD
ENDROOT
BRANCH   6  13
ATOM     13  N   UNL     1       5.819   3.417  16.031  0.00  0.00    +0.000 N 
ATOM     14  H   UNL     1       5.476   2.467  15.960  0.00  0.00    +0.000 HD
ATOM     15  H   UNL     1       6.814   3.465  16.238  0.00  0.00    +0.000 HD
ENDBRANCH   6  13
BRANCH   7  16
ATOM     16  N   UNL     1       5.458   6.616  15.662  0.00  0.00    +0.000 N 
ATOM     17  H   UNL     1       5.029   7.512  15.446  0.00  0.00    +0.000 HD
ATOM     18  H   UNL     1       6.449   6.687  15.871  0.00  0.00    +0.000 HD
ENDBRANCH   7  16
TORSDOF 2
ENDMDL
