MODEL 1
REMARK VINA RESULT:      -7.6      0.000      0.000
REMARK  Name = 
REMARK  14 active torsions:
REMARK  status: ('A' for Active; 'I' for Inactive)
REMARK    1  A    between atoms: C_1  and  O_2
REMARK    2  A    between atoms: O_2  and  C_3
REMARK    3  A    between atoms: C_5  and  O_6
REMARK    4  A    between atoms: O_6  and  C_7
REMARK    5  A    between atoms: C_8  and  O_9
REMARK    6  A    between atoms: C_10  and  C_11
REMARK    7  A    between atoms: C_11  and  C_12
REMARK    8  A    between atoms: C_11  and  N_18
REMARK    9  A    between atoms: C_21  and  N_22
REMARK   10  A    between atoms: C_23  and  O_25
REMARK   11  A    between atoms: O_25  and  C_26
REMARK   12  A    between atoms: C_26  and  C_27
REMARK   13  A    between atoms: C_26  and  C_28
REMARK   14  A    between atoms: C_26  and  C_29
REMARK                            x       y       z     vdW  Elec       q    Type
REMARK                         _______ _______ _______ _____ _____    ______ ____
ROOT
ATOM      1  C   UNL     1       6.347   4.560  16.519  0.00  0.00    +0.000 C 
ENDROOT
BRANCH   1   6
ATOM      2  C   UNL     1       3.368   6.828  17.461  0.00  0.00    +0.000 A 
ATOM      3  C   UNL     1       2.425   5.891  17.867  0.00  0.00    +0.000 A 
ATOM      4  C   UNL     1       2.721   4.527  17.838  0.00  0.00    +0.000 A 
ATOM      5  C   UNL     1       4.008   4.114  17.461  0.00  0.00    +0.000 A 
ATOM      6  C   UNL     1       4.983   5.040  17.035  0.00  0.00    +0.000 A 
ATOM      7  C   UNL     1       4.603   6.392  16.987  0.00  0.00    +0.000 A 
BRANCH   2   9
ATOM      8  C   UNL     1       1.931   8.418  18.437  0.00  0.00    +0.000 C 
ATOM      9  O   UNL     1       2.985   8.141  17.514  0.00  0.00    +0.000 OA
ENDBRANCH   2   9
BRANCH   4  10
ATOM     10  O   UNL     1       1.698   3.725  18.270  0.00  0.00    +0.000 OA
ATOM     11  C   UNL     1       1.426   3.743  19.665  0.00  0.00    +0.000 C 
ENDBRANCH   4  10
BRANCH   5  12
ATOM     12  O   UNL     1       4.360   2.792  17.512  0.00  0.00    +0.000 OA
ATOM     13  H   UNL     1       3.549   2.286  17.337  0.00  0.00    +0.000 HD
ENDBRANCH   5  12
ENDBRANCH   1   6
BRANCH   1  14
ATOM     14  C   UNL     1       6.396   4.428  14.989  0.00  0.00    +0.000 A 
ATOM     15  C   UNL     1       5.470   3.677  14.251  0.00  0.00    +0.000 A 
ATOM     16  C   UNL     1       5.618   3.581  12.875  0.00  0.00    +0.000 A 
ATOM     17  N   UNL     1       6.607   4.176  12.181  0.00  0.00    +0.000 NA
ATOM     18  C   UNL     1       7.478   4.918  12.897  0.00  0.00    +0.000 A 
ATOM     19  C   UNL     1       7.413   5.076  14.274  0.00  0.00    +0.000 A 
ENDBRANCH   1  14
BRANCH   1  20
ATOM     20  N   UNL     1       7.578   5.167  17.067  0.00  0.00    +0.000 NA
ATOM     21  C   UNL     1       8.048   4.660  18.352  0.00  0.00    +0.000 C 
ATOM     22  C   UNL     1       7.711   5.726  19.382  0.00  0.00    +0.000 C 
ATOM     23  C   UNL     1       7.689   7.032  18.598  0.00  0.00    +0.000 C 
ATOM     24  C   UNL     1       7.717   6.616  17.107  0.00  0.00    +0.000 C 
BRANCH  23  25
ATOM     25  N   UNL     1       8.728   7.973  18.953  0.00  0.00    +0.000 N 
ATOM     26  C   UNL     1       8.601   9.268  18.530  0.00  0.00    +0.000 C 
ATOM     27  O   UNL     1       7.669   9.637  17.826  0.00  0.00    +0.000 OA
ATOM     28  H   UNL     1       9.481   7.753  19.590  0.00  0.00    +0.000 HD
BRANCH  26  29
ATOM     29  O   UNL     1       9.622  10.037  18.967  0.00  0.00    +0.000 OA
BRANCH  29  30
ATOM     30  C   UNL     1       9.671  11.414  18.501  0.00  0.00    +0.000 C 
ATOM     31  C   UNL     1       8.392  11.812  17.746  0.00  0.00    +0.000 C 
ATOM     32  C   UNL     1       9.767  12.296  19.756  0.00  0.00    +0.000 C 
ATOM     33  C   UNL     1      10.942  11.637  17.668  0.00  0.00    +0.000 C 
ENDBRANCH  29  30
ENDBRANCH  26  29
ENDBRANCH  23  25
ENDBRANCH   1  20
TORSDOF 9
ENDMDL
MODEL 2
REMARK VINA RESULT:      -7.6      0.835      1.168
REMARK  Name = 
REMARK  14 active torsions:
REMARK  status: ('A' for Active; 'I' for Inactive)
REMARK    1  A    between atoms: C_1  and  O_2
REMARK    2  A    between atoms: O_2  and  C_3
REMARK    3  A    between atoms: C_5  and  O_6
REMARK    4  A    between atoms: O_6  and  C_7
REMARK    5  A    between atoms: C_8  and  O_9
REMARK    6  A    between atoms: C_10  and  C_11
REMARK    7  A    between atoms: C_11  and  C_12
REMARK    8  A    between atoms: C_11  and  N_18
REMARK    9  A    between atoms: C_21  and  N_22
REMARK   10  A    between atoms: C_23  and  O_25
REMARK   11  A    between atoms: O_25  and  C_26
REMARK   12  A    between atoms: C_26  and  C_27
REMARK   13  A    between atoms: C_26  and  C_28
REMARK   14  A    between atoms: C_26  and  C_29
REMARK                            x       y       z     vdW  Elec       q    Type
REMARK                         _______ _______ _______ _____ _____    ______ ____
ROOT
ATOM      1  C   UNL     1       6.281   4.760  16.780  0.00  0.00    +0.000 C 
ENDROOT
BRANCH   1   6
ATOM      2  C   UNL     1       3.328   7.137  17.513  0.00  0.00    +0.000 A 
ATOM      3  C   UNL     1       2.508   6.326  18.291  0.00  0.00    +0.000 A 
ATOM      4  C   UNL     1       2.880   5.013  18.585  0.00  0.00    +0.000 A 
ATOM      5  C   UNL     1       4.126   4.540  18.144  0.00  0.00    +0.000 A 
ATOM      6  C   UNL     1       4.975   5.335  17.346  0.00  0.00    +0.000 A 
ATOM      7  C   UNL     1       4.510   6.614  16.994  0.00  0.00    +0.000 A 
BRANCH   2   9
ATOM      8  C   UNL     1       1.882   8.870  18.182  0.00  0.00    +0.000 C 
ATOM      9  O   UNL     1       2.876   8.405  17.269  0.00  0.00    +0.000 OA
ENDBRANCH   2   9
BRANCH   4  10
ATOM     10  O   UNL     1       1.977   4.339  19.363  0.00  0.00    +0.000 OA
ATOM     11  C   UNL     1       1.557   4.992  20.553  0.00  0.00    +0.000 C 
ENDBRANCH   4  10
BRANCH   5  12
ATOM     12  O   UNL     1       4.562   3.291  18.495  0.00  0.00    +0.000 OA
ATOM     13  H   UNL     1       3.806   2.845  18.913  0.00  0.00    +0.000 HD
ENDBRANCH   5  12
ENDBRANCH   1   6
BRANCH   1  14
ATOM     14  C   UNL     1       6.223   4.521  15.263  0.00  0.00    +0.000 A 
ATOM     15  C   UNL     1       5.143   3.897  14.624  0.00  0.00    +0.000 A 
ATOM     16  C   UNL     1       5.197   3.685  13.254  0.00  0.00    +0.000 A 
ATOM     17  N   UNL     1       6.235   4.049  12.477  0.00  0.00    +0.000 NA
ATOM     18  C   UNL     1       7.259   4.672  13.097  0.00  0.00    +0.000 A 
ATOM     19  C   UNL     1       7.297   4.930  14.460  0.00  0.00    +0.000 A 
ENDBRANCH   1  14
BRANCH   1  20
ATOM     20  N   UNL     1       7.570   5.350  17.203  0.00  0.00    +0.000 NA
ATOM     21  C   UNL     1       8.112   4.900  18.481  0.00  0.00    +0.000 C 
ATOM     22  C   UNL     1       7.887   6.037  19.465  0.00  0.00    +0.000 C 
ATOM     23  C   UNL     1       7.855   7.295  18.607  0.00  0.00    +0.000 C 
ATOM     24  C   UNL     1       7.761   6.793  17.145  0.00  0.00    +0.000 C 
BRANCH  23  25
ATOM     25  N   UNL     1       8.949   8.214  18.831  0.00  0.00    +0.000 N 
ATOM     26  C   UNL     1       8.776   9.524  18.480  0.00  0.00    +0.000 C 
ATOM     27  O   UNL     1       7.752   9.927  17.942  0.00  0.00    +0.000 OA
ATOM     28  H   UNL     1       9.788   7.964  19.336  0.00  0.00    +0.000 HD
BRANCH  26  29
ATOM     29  O   UNL     1       9.862  10.269  18.782  0.00  0.00    +0.000 OA
BRANCH  29  30
ATOM     30  C   UNL     1       9.709  11.294  19.803  0.00  0.00    +0.000 C 
ATOM     31  C   UNL     1      11.064  11.863  20.254  0.00  0.00    +0.000 C 
ATOM     32  C   UNL     1       8.913  12.438  19.155  0.00  0.00    +0.000 C 
ATOM     33  C   UNL     1       8.880  10.745  20.973  0.00  0.00    +0.000 C 
ENDBRANCH  29  30
ENDBRANCH  26  29
ENDBRANCH  23  25
ENDBRANCH   1  20
TORSDOF 9
ENDMDL
MODEL 3
REMARK VINA RESULT:      -7.4      3.728      7.108
REMARK  Name = 
REMARK  14 active torsions:
REMARK  status: ('A' for Active; 'I' for Inactive)
REMARK    1  A    between atoms: C_1  and  O_2
REMARK    2  A    between atoms: O_2  and  C_3
REMARK    3  A    between atoms: C_5  and  O_6
REMARK    4  A    between atoms: O_6  and  C_7
REMARK    5  A    between atoms: C_8  and  O_9
REMARK    6  A    between atoms: C_10  and  C_11
REMARK    7  A    between atoms: C_11  and  C_12
REMARK    8  A    between atoms: C_11  and  N_18
REMARK    9  A    between atoms: C_21  and  N_22
REMARK   10  A    between atoms: C_23  and  O_25
REMARK   11  A    between atoms: O_25  and  C_26
REMARK   12  A    between atoms: C_26  and  C_27
REMARK   13  A    between atoms: C_26  and  C_28
REMARK   14  A    between atoms: C_26  and  C_29
REMARK                            x       y       z     vdW  Elec       q    Type
REMARK                         _______ _______ _______ _____ _____    ______ ____
ROOT
ATOM      1  C   UNL     1       3.164   5.708  18.025  0.00  0.00    +0.000 C 
ENDROOT
BRANCH   1   6
ATOM      2  C   UNL     1       5.888   4.268  15.697  0.00  0.00    +0.000 A 
ATOM      3  C   UNL     1       6.996   4.268  16.536  0.00  0.00    +0.000 A 
ATOM      4  C   UNL     1       6.894   4.733  17.849  0.00  0.00    +0.000 A 
ATOM      5  C   UNL     1       5.641   5.137  18.336  0.00  0.00    +0.000 A 
ATOM      6  C   UNL     1       4.500   5.156  17.506  0.00  0.00    +0.000 A 
ATOM      7  C   UNL     1       4.677   4.774  16.166  0.00  0.00    +0.000 A 
BRANCH   2   9
ATOM      8  C   UNL     1       6.911   4.636  13.609  0.00  0.00    +0.000 C 
ATOM      9  O   UNL     1       6.086   3.804  14.425  0.00  0.00    +0.000 OA
ENDBRANCH   2   9
BRANCH   4  10
ATOM     10  O   UNL     1       8.065   4.668  18.556  0.00  0.00    +0.000 OA
ATOM     11  C   UNL     1       8.342   5.761  19.421  0.00  0.00    +0.000 C 
ENDBRANCH   4  10
BRANCH   5  12
ATOM     12  O   UNL     1       5.487   5.508  19.644  0.00  0.00    +0.000 OA
ATOM     13  H   UNL     1       4.740   6.128  19.666  0.00  0.00    +0.000 HD
ENDBRANCH   5  12
ENDBRANCH   1   6
BRANCH   1  14
ATOM     14  C   UNL     1       2.334   4.657  18.778  0.00  0.00    +0.000 A 
ATOM     15  C   UNL     1       2.432   4.445  20.160  0.00  0.00    +0.000 A 
ATOM     16  C   UNL     1       1.673   3.443  20.749  0.00  0.00    +0.000 A 
ATOM     17  N   UNL     1       0.824   2.647  20.070  0.00  0.00    +0.000 NA
ATOM     18  C   UNL     1       0.716   2.877  18.745  0.00  0.00    +0.000 A 
ATOM     19  C   UNL     1       1.431   3.853  18.067  0.00  0.00    +0.000 A 
ENDBRANCH   1  14
BRANCH   1  20
ATOM     20  N   UNL     1       3.142   7.024  18.698  0.00  0.00    +0.000 NA
ATOM     21  C   UNL     1       2.336   7.133  19.910  0.00  0.00    +0.000 C 
ATOM     22  C   UNL     1       1.089   7.913  19.526  0.00  0.00    +0.000 C 
ATOM     23  C   UNL     1       1.517   8.777  18.348  0.00  0.00    +0.000 C 
ATOM     24  C   UNL     1       2.902   8.232  17.920  0.00  0.00    +0.000 C 
BRANCH  23  25
ATOM     25  N   UNL     1       1.513  10.201  18.603  0.00  0.00    +0.000 N 
ATOM     26  C   UNL     1       0.324  10.872  18.514  0.00  0.00    +0.000 C 
ATOM     27  O   UNL     1      -0.716  10.317  18.180  0.00  0.00    +0.000 OA
ATOM     28  H   UNL     1       2.317  10.703  18.954  0.00  0.00    +0.000 HD
BRANCH  26  29
ATOM     29  O   UNL     1       0.467  12.181  18.816  0.00  0.00    +0.000 OA
BRANCH  29  30
ATOM     30  C   UNL     1      -0.031  12.629  20.107  0.00  0.00    +0.000 C 
ATOM     31  C   UNL     1      -0.210  11.463  21.092  0.00  0.00    +0.000 C 
ATOM     32  C   UNL     1       1.041  13.568  20.684  0.00  0.00    +0.000 C 
ATOM     33  C   UNL     1      -1.319  13.443  19.915  0.00  0.00    +0.000 C 
ENDBRANCH  29  30
ENDBRANCH  26  29
ENDBRANCH  23  25
ENDBRANCH   1  20
TORSDOF 9
ENDMDL
MODEL 4
REMARK VINA RESULT:      -7.4      5.354      9.760
REMARK  Name = 
REMARK  14 active torsions:
REMARK  status: ('A' for Active; 'I' for Inactive)
REMARK    1  A    between atoms: C_1  and  O_2
REMARK    2  A    between atoms: O_2  and  C_3
REMARK    3  A    between atoms: C_5  and  O_6
REMARK    4  A    between atoms: O_6  and  C_7
REMARK    5  A    between atoms: C_8  and  O_9
REMARK    6  A    between atoms: C_10  and  C_11
REMARK    7  A    between atoms: C_11  and  C_12
REMARK    8  A    between atoms: C_11  and  N_18
REMARK    9  A    between atoms: C_21  and  N_22
REMARK   10  A    between atoms: C_23  and  O_25
REMARK   11  A    between atoms: O_25  and  C_26
REMARK   12  A    between atoms: C_26  and  C_27
REMARK   13  A    between atoms: C_26  and  C_28
REMARK   14  A    between atoms: C_26  and  C_29
REMARK                            x       y       z     vdW  Elec       q    Type
REMARK                         _______ _______ _______ _____ _____    ______ ____
ROOT
ATOM      1  C   UNL     1      -0.824  10.822  20.178  0.00  0.00    +0.000 C 
ENDROOT
BRANCH   1   6
ATOM      2  C   UNL     1       2.160  12.997  19.049  0.00  0.00    +0.000 A 
ATOM      3  C   UNL     1       2.309  13.849  20.138  0.00  0.00    +0.000 A 
ATOM      4  C   UNL     1       1.459  13.747  21.241  0.00  0.00    +0.000 A 
ATOM      5  C   UNL     1       0.493  12.729  21.269  0.00  0.00    +0.000 A 
ATOM      6  C   UNL     1       0.312  11.856  20.175  0.00  0.00    +0.000 A 
ATOM      7  C   UNL     1       1.126  12.063  19.049  0.00  0.00    +0.000 A 
BRANCH   2   9
ATOM      8  C   UNL     1       3.899  14.305  18.149  0.00  0.00    +0.000 C 
ATOM      9  O   UNL     1       3.033  13.178  18.010  0.00  0.00    +0.000 OA
ENDBRANCH   2   9
BRANCH   4  10
ATOM     10  O   UNL     1       1.728  14.647  22.237  0.00  0.00    +0.000 OA
ATOM     11  C   UNL     1       2.900  15.434  22.078  0.00  0.00    +0.000 C 
ENDBRANCH   4  10
BRANCH   5  12
ATOM     12  O   UNL     1      -0.293  12.542  22.373  0.00  0.00    +0.000 OA
ATOM     13  H   UNL     1      -1.212  12.649  22.076  0.00  0.00    +0.000 HD
ENDBRANCH   5  12
ENDBRANCH   1   6
BRANCH   1  14
ATOM     14  C   UNL     1      -1.708  10.899  18.924  0.00  0.00    +0.000 A 
ATOM     15  C   UNL     1      -1.446  10.175  17.753  0.00  0.00    +0.000 A 
ATOM     16  C   UNL     1      -2.276  10.340  16.653  0.00  0.00    +0.000 A 
ATOM     17  N   UNL     1      -3.344  11.161  16.634  0.00  0.00    +0.000 NA
ATOM     18  C   UNL     1      -3.604  11.833  17.775  0.00  0.00    +0.000 A 
ATOM     19  C   UNL     1      -2.834  11.735  18.925  0.00  0.00    +0.000 A 
ENDBRANCH   1  14
BRANCH   1  20
ATOM     20  N   UNL     1      -0.526   9.428  20.567  0.00  0.00    +0.000 NA
ATOM     21  C   UNL     1      -0.238   9.182  21.977  0.00  0.00    +0.000 C 
ATOM     22  C   UNL     1       1.262   8.960  22.075  0.00  0.00    +0.000 C 
ATOM     23  C   UNL     1       1.668   8.424  20.708  0.00  0.00    +0.000 C 
ATOM     24  C   UNL     1       0.436   8.650  19.797  0.00  0.00    +0.000 C 
BRANCH  23  25
ATOM     25  N   UNL     1       2.144   7.058  20.705  0.00  0.00    +0.000 N 
ATOM     26  C   UNL     1       2.747   6.585  19.572  0.00  0.00    +0.000 C 
ATOM     27  O   UNL     1       2.849   7.261  18.556  0.00  0.00    +0.000 OA
ATOM     28  H   UNL     1       2.157   6.475  21.530  0.00  0.00    +0.000 HD
BRANCH  26  29
ATOM     29  O   UNL     1       3.173   5.313  19.729  0.00  0.00    +0.000 OA
BRANCH  29  30
ATOM     30  C   UNL     1       2.251   4.248  19.367  0.00  0.00    +0.000 C 
ATOM     31  C   UNL     1       1.804   4.347  17.900  0.00  0.00    +0.000 C 
ATOM     32  C   UNL     1       3.023   2.929  19.533  0.00  0.00    +0.000 C 
ATOM     33  C   UNL     1       1.067   4.229  20.345  0.00  0.00    +0.000 C 
ENDBRANCH  29  30
ENDBRANCH  26  29
ENDBRANCH  23  25
ENDBRANCH   1  20
TORSDOF 9
ENDMDL
MODEL 5
REMARK VINA RESULT:      -7.3      3.540      7.249
REMARK  Name = 
REMARK  14 active torsions:
REMARK  status: ('A' for Active; 'I' for Inactive)
REMARK    1  A    between atoms: C_1  and  O_2
REMARK    2  A    between atoms: O_2  and  C_3
REMARK    3  A    between atoms: C_5  and  O_6
REMARK    4  A    between atoms: O_6  and  C_7
REMARK    5  A    between atoms: C_8  and  O_9
REMARK    6  A    between atoms: C_10  and  C_11
REMARK    7  A    between atoms: C_11  and  C_12
REMARK    8  A    between atoms: C_11  and  N_18
REMARK    9  A    between atoms: C_21  and  N_22
REMARK   10  A    between atoms: C_23  and  O_25
REMARK   11  A    between atoms: O_25  and  C_26
REMARK   12  A    between atoms: C_26  and  C_27
REMARK   13  A    between atoms: C_26  and  C_28
REMARK   14  A    between atoms: C_26  and  C_29
REMARK                            x       y       z     vdW  Elec       q    Type
REMARK                         _______ _______ _______ _____ _____    ______ ____
ROOT
ATOM      1  C   UNL     1       3.203   6.108  18.030  0.00  0.00    +0.000 C 
ENDROOT
BRANCH   1   6
ATOM      2  C   UNL     1       6.831   6.436  16.748  0.00  0.00    +0.000 A 
ATOM      3  C   UNL     1       6.933   5.323  15.922  0.00  0.00    +0.000 A 
ATOM      4  C   UNL     1       5.854   4.450  15.768  0.00  0.00    +0.000 A 
ATOM      5  C   UNL     1       4.638   4.747  16.403  0.00  0.00    +0.000 A 
ATOM      6  C   UNL     1       4.506   5.864  17.255  0.00  0.00    +0.000 A 
ATOM      7  C   UNL     1       5.651   6.654  17.456  0.00  0.00    +0.000 A 
BRANCH   2   9
ATOM      8  C   UNL     1       7.809   8.338  17.734  0.00  0.00    +0.000 C 
ATOM      9  O   UNL     1       7.943   7.227  16.846  0.00  0.00    +0.000 OA
ENDBRANCH   2   9
BRANCH   4  10
ATOM     10  O   UNL     1       6.100   3.403  14.920  0.00  0.00    +0.000 OA
ATOM     11  C   UNL     1       6.172   3.714  13.536  0.00  0.00    +0.000 C 
ENDBRANCH   4  10
BRANCH   5  12
ATOM     12  O   UNL     1       3.534   3.966  16.197  0.00  0.00    +0.000 OA
ATOM     13  H   UNL     1       3.413   3.445  17.009  0.00  0.00    +0.000 HD
ENDBRANCH   5  12
ENDBRANCH   1   6
BRANCH   1  14
ATOM     14  C   UNL     1       2.775   4.901  18.878  0.00  0.00    +0.000 A 
ATOM     15  C   UNL     1       3.613   4.284  19.817  0.00  0.00    +0.000 A 
ATOM     16  C   UNL     1       3.154   3.172  20.508  0.00  0.00    +0.000 A 
ATOM     17  N   UNL     1       1.931   2.634  20.340  0.00  0.00    +0.000 NA
ATOM     18  C   UNL     1       1.122   3.250  19.453  0.00  0.00    +0.000 A 
ATOM     19  C   UNL     1       1.488   4.367  18.716  0.00  0.00    +0.000 A 
ENDBRANCH   1  14
BRANCH   1  20
ATOM     20  N   UNL     1       3.022   7.388  18.748  0.00  0.00    +0.000 NA
ATOM     21  C   UNL     1       2.274   7.342  20.000  0.00  0.00    +0.000 C 
ATOM     22  C   UNL     1       0.907   7.936  19.704  0.00  0.00    +0.000 C 
ATOM     23  C   UNL     1       1.139   8.887  18.537  0.00  0.00    +0.000 C 
ATOM     24  C   UNL     1       2.565   8.567  18.024  0.00  0.00    +0.000 C 
BRANCH  23  25
ATOM     25  N   UNL     1       0.937  10.287  18.841  0.00  0.00    +0.000 N 
ATOM     26  C   UNL     1      -0.308  10.818  18.650  0.00  0.00    +0.000 C 
ATOM     27  O   UNL     1      -1.235  10.163  18.188  0.00  0.00    +0.000 OA
ATOM     28  H   UNL     1       1.635  10.861  19.293  0.00  0.00    +0.000 HD
BRANCH  26  29
ATOM     29  O   UNL     1      -0.356  12.118  19.011  0.00  0.00    +0.000 OA
BRANCH  29  30
ATOM     30  C   UNL     1      -1.037  12.444  20.255  0.00  0.00    +0.000 C 
ATOM     31  C   UNL     1      -0.772  11.397  21.348  0.00  0.00    +0.000 C 
ATOM     32  C   UNL     1      -0.450  13.781  20.736  0.00  0.00    +0.000 C 
ATOM     33  C   UNL     1      -2.535  12.654  19.988  0.00  0.00    +0.000 C 
ENDBRANCH  29  30
ENDBRANCH  26  29
ENDBRANCH  23  25
ENDBRANCH   1  20
TORSDOF 9
ENDMDL
MODEL 6
REMARK VINA RESULT:      -7.2      8.092      9.641
REMARK  Name = 
REMARK  14 active torsions:
REMARK  status: ('A' for Active; 'I' for Inactive)
REMARK    1  A    between atoms: C_1  and  O_2
REMARK    2  A    between atoms: O_2  and  C_3
REMARK    3  A    between atoms: C_5  and  O_6
REMARK    4  A    between atoms: O_6  and  C_7
REMARK    5  A    between atoms: C_8  and  O_9
REMARK    6  A    between atoms: C_10  and  C_11
REMARK    7  A    between atoms: C_11  and  C_12
REMARK    8  A    between atoms: C_11  and  N_18
REMARK    9  A    between atoms: C_21  and  N_22
REMARK   10  A    between atoms: C_23  and  O_25
REMARK   11  A    between atoms: O_25  and  C_26
REMARK   12  A    between atoms: C_26  and  C_27
REMARK   13  A    between atoms: C_26  and  C_28
REMARK   14  A    between atoms: C_26  and  C_29
REMARK                            x       y       z     vdW  Elec       q    Type
REMARK                         _______ _______ _______ _____ _____    ______ ____
ROOT
ATOM      1  C   UNL     1      -0.888  11.874  19.639  0.00  0.00    +0.000 C 
ENDROOT
BRANCH   1   6
ATOM      2  C   UNL     1      -4.391  11.624  18.034  0.00  0.00    +0.000 A 
ATOM      3  C   UNL     1      -4.127  10.842  16.916  0.00  0.00    +0.000 A 
ATOM      4  C   UNL     1      -2.831  10.391  16.654  0.00  0.00    +0.000 A 
ATOM      5  C   UNL     1      -1.808  10.678  17.570  0.00  0.00    +0.000 A 
ATOM      6  C   UNL     1      -2.043  11.477  18.709  0.00  0.00    +0.000 A 
ATOM      7  C   UNL     1      -3.342  11.990  18.875  0.00  0.00    +0.000 A 
BRANCH   2   9
ATOM      8  C   UNL     1      -5.970  12.606  19.478  0.00  0.00    +0.000 C 
ATOM      9  O   UNL     1      -5.687  12.028  18.203  0.00  0.00    +0.000 OA
ENDBRANCH   2   9
BRANCH   4  10
ATOM     10  O   UNL     1      -2.725   9.628  15.522  0.00  0.00    +0.000 OA
ATOM     11  C   UNL     1      -3.229  10.201  14.324  0.00  0.00    +0.000 C 
ENDBRANCH   4  10
BRANCH   5  12
ATOM     12  O   UNL     1      -0.549  10.172  17.393  0.00  0.00    +0.000 OA
ATOM     13  H   UNL     1      -0.522   9.330  17.877  0.00  0.00    +0.000 HD
ENDBRANCH   5  12
ENDBRANCH   1   6
BRANCH   1  14
ATOM     14  C   UNL     1      -0.749  10.943  20.854  0.00  0.00    +0.000 A 
ATOM     15  C   UNL     1      -0.339   9.606  20.755  0.00  0.00    +0.000 A 
ATOM     16  C   UNL     1      -0.283   8.828  21.902  0.00  0.00    +0.000 A 
ATOM     17  N   UNL     1      -0.595   9.278  23.132  0.00  0.00    +0.000 NA
ATOM     18  C   UNL     1      -0.962  10.574  23.221  0.00  0.00    +0.000 A 
ATOM     19  C   UNL     1      -1.048  11.431  22.134  0.00  0.00    +0.000 A 
ENDBRANCH   1  14
BRANCH   1  20
ATOM     20  N   UNL     1       0.422  12.224  19.050  0.00  0.00    +0.000 NA
ATOM     21  C   UNL     1       1.610  11.818  19.795  0.00  0.00    +0.000 C 
ATOM     22  C   UNL     1       2.167  13.081  20.432  0.00  0.00    +0.000 C 
ATOM     23  C   UNL     1       1.712  14.212  19.519  0.00  0.00    +0.000 C 
ATOM     24  C   UNL     1       0.664  13.578  18.571  0.00  0.00    +0.000 C 
BRANCH  23  25
ATOM     25  N   UNL     1       2.777  14.900  18.822  0.00  0.00    +0.000 N 
ATOM     26  C   UNL     1       3.346  15.989  19.422  0.00  0.00    +0.000 C 
ATOM     27  O   UNL     1       2.952  16.423  20.498  0.00  0.00    +0.000 OA
ATOM     28  H   UNL     1       3.197  14.551  17.972  0.00  0.00    +0.000 HD
BRANCH  26  29
ATOM     29  O   UNL     1       4.348  16.502  18.676  0.00  0.00    +0.000 OA
BRANCH  29  30
ATOM     30  C   UNL     1       5.686  15.972  18.894  0.00  0.00    +0.000 C 
ATOM     31  C   UNL     1       6.079  14.944  17.822  0.00  0.00    +0.000 C 
ATOM     32  C   UNL     1       6.650  17.163  18.777  0.00  0.00    +0.000 C 
ATOM     33  C   UNL     1       5.798  15.412  20.319  0.00  0.00    +0.000 C 
ENDBRANCH  29  30
ENDBRANCH  26  29
ENDBRANCH  23  25
ENDBRANCH   1  20
TORSDOF 9
ENDMDL
MODEL 7
REMARK VINA RESULT:      -7.2      5.340      9.580
REMARK  Name = 
REMARK  14 active torsions:
REMARK  status: ('A' for Active; 'I' for Inactive)
REMARK    1  A    between atoms: C_1  and  O_2
REMARK    2  A    between atoms: O_2  and  C_3
REMARK    3  A    between atoms: C_5  and  O_6
REMARK    4  A    between atoms: O_6  and  C_7
REMARK    5  A    between atoms: C_8  and  O_9
REMARK    6  A    between atoms: C_10  and  C_11
REMARK    7  A    between atoms: C_11  and  C_12
REMARK    8  A    between atoms: C_11  and  N_18
REMARK    9  A    between atoms: C_21  and  N_22
REMARK   10  A    between atoms: C_23  and  O_25
REMARK   11  A    between atoms: O_25  and  C_26
REMARK   12  A    between atoms: C_26  and  C_27
REMARK   13  A    between atoms: C_26  and  C_28
REMARK   14  A    between atoms: C_26  and  C_29
REMARK                            x       y       z     vdW  Elec       q    Type
REMARK                         _______ _______ _______ _____ _____    ______ ____
ROOT
ATOM      1  C   UNL     1      -0.801  10.812  20.135  0.00  0.00    +0.000 C 
ENDROOT
BRANCH   1   6
ATOM      2  C   UNL     1       2.158  13.046  19.056  0.00  0.00    +0.000 A 
ATOM      3  C   UNL     1       2.298  13.873  20.164  0.00  0.00    +0.000 A 
ATOM      4  C   UNL     1       1.449  13.736  21.265  0.00  0.00    +0.000 A 
ATOM      5  C   UNL     1       0.495  12.707  21.269  0.00  0.00    +0.000 A 
ATOM      6  C   UNL     1       0.323  11.858  20.156  0.00  0.00    +0.000 A 
ATOM      7  C   UNL     1       1.134  12.100  19.034  0.00  0.00    +0.000 A 
BRANCH   2   9
ATOM      8  C   UNL     1       3.970  14.310  18.243  0.00  0.00    +0.000 C 
ATOM      9  O   UNL     1       3.027  13.260  18.021  0.00  0.00    +0.000 OA
ENDBRANCH   2   9
BRANCH   4  10
ATOM     10  O   UNL     1       1.709  14.616  22.282  0.00  0.00    +0.000 OA
ATOM     11  C   UNL     1       2.587  15.691  21.979  0.00  0.00    +0.000 C 
ENDBRANCH   4  10
BRANCH   5  12
ATOM     12  O   UNL     1      -0.288  12.486  22.370  0.00  0.00    +0.000 OA
ATOM     13  H   UNL     1      -1.188  12.331  22.038  0.00  0.00    +0.000 HD
ENDBRANCH   5  12
ENDBRANCH   1   6
BRANCH   1  14
ATOM     14  C   UNL     1      -1.711  10.933  18.904  0.00  0.00    +0.000 A 
ATOM     15  C   UNL     1      -2.837  11.767  18.858  0.00  0.00    +0.000 A 
ATOM     16  C   UNL     1      -3.626  11.781  17.717  0.00  0.00    +0.000 A 
ATOM     17  N   UNL     1      -3.376  11.037  16.622  0.00  0.00    +0.000 NA
ATOM     18  C   UNL     1      -2.275  10.258  16.664  0.00  0.00    +0.000 A 
ATOM     19  C   UNL     1      -1.425  10.176  17.758  0.00  0.00    +0.000 A 
ENDBRANCH   1  14
BRANCH   1  20
ATOM     20  N   UNL     1      -0.480   9.404  20.455  0.00  0.00    +0.000 NA
ATOM     21  C   UNL     1      -0.220   9.089  21.856  0.00  0.00    +0.000 C 
ATOM     22  C   UNL     1       1.282   8.894  21.980  0.00  0.00    +0.000 C 
ATOM     23  C   UNL     1       1.732   8.443  20.597  0.00  0.00    +0.000 C 
ATOM     24  C   UNL     1       0.518   8.691  19.669  0.00  0.00    +0.000 C 
BRANCH  23  25
ATOM     25  N   UNL     1       2.240   7.091  20.532  0.00  0.00    +0.000 N 
ATOM     26  C   UNL     1       2.895   6.699  19.397  0.00  0.00    +0.000 C 
ATOM     27  O   UNL     1       3.018   7.435  18.426  0.00  0.00    +0.000 OA
ATOM     28  H   UNL     1       2.238   6.460  21.321  0.00  0.00    +0.000 HD
BRANCH  26  29
ATOM     29  O   UNL     1       3.345   5.429  19.495  0.00  0.00    +0.000 OA
BRANCH  29  30
ATOM     30  C   UNL     1       3.215   4.579  18.321  0.00  0.00    +0.000 C 
ATOM     31  C   UNL     1       4.204   4.974  17.212  0.00  0.00    +0.000 C 
ATOM     32  C   UNL     1       3.566   3.153  18.774  0.00  0.00    +0.000 C 
ATOM     33  C   UNL     1       1.757   4.577  17.839  0.00  0.00    +0.000 C 
ENDBRANCH  29  30
ENDBRANCH  26  29
ENDBRANCH  23  25
ENDBRANCH   1  20
TORSDOF 9
ENDMDL
MODEL 8
REMARK VINA RESULT:      -7.1      3.393      6.657
REMARK  Name = 
REMARK  14 active torsions:
REMARK  status: ('A' for Active; 'I' for Inactive)
REMARK    1  A    between atoms: C_1  and  O_2
REMARK    2  A    between atoms: O_2  and  C_3
REMARK    3  A    between atoms: C_5  and  O_6
REMARK    4  A    between atoms: O_6  and  C_7
REMARK    5  A    between atoms: C_8  and  O_9
REMARK    6  A    between atoms: C_10  and  C_11
REMARK    7  A    between atoms: C_11  and  C_12
REMARK    8  A    between atoms: C_11  and  N_18
REMARK    9  A    between atoms: C_21  and  N_22
REMARK   10  A    between atoms: C_23  and  O_25
REMARK   11  A    between atoms: O_25  and  C_26
REMARK   12  A    between atoms: C_26  and  C_27
REMARK   13  A    between atoms: C_26  and  C_28
REMARK   14  A    between atoms: C_26  and  C_29
REMARK                            x       y       z     vdW  Elec       q    Type
REMARK                         _______ _______ _______ _____ _____    ______ ____
ROOT
ATOM      1  C   UNL     1       3.219   5.855  18.135  0.00  0.00    +0.000 C 
ENDROOT
BRANCH   1   6
ATOM      2  C   UNL     1       6.779   6.348  16.723  0.00  0.00    +0.000 A 
ATOM      3  C   UNL     1       6.880   5.274  15.846  0.00  0.00    +0.000 A 
ATOM      4  C   UNL     1       5.821   4.376  15.699  0.00  0.00    +0.000 A 
ATOM      5  C   UNL     1       4.625   4.608  16.395  0.00  0.00    +0.000 A 
ATOM      6  C   UNL     1       4.496   5.684  17.299  0.00  0.00    +0.000 A 
ATOM      7  C   UNL     1       5.624   6.501  17.486  0.00  0.00    +0.000 A 
BRANCH   2   9
ATOM      8  C   UNL     1       7.728   8.257  17.723  0.00  0.00    +0.000 C 
ATOM      9  O   UNL     1       7.871   7.169  16.808  0.00  0.00    +0.000 OA
ENDBRANCH   2   9
BRANCH   4  10
ATOM     10  O   UNL     1       6.062   3.373  14.798  0.00  0.00    +0.000 OA
ATOM     11  C   UNL     1       6.134   3.754  13.432  0.00  0.00    +0.000 C 
ENDBRANCH   4  10
BRANCH   5  12
ATOM     12  O   UNL     1       3.536   3.801  16.201  0.00  0.00    +0.000 OA
ATOM     13  H   UNL     1       2.759   4.325  16.458  0.00  0.00    +0.000 HD
ENDBRANCH   5  12
ENDBRANCH   1   6
BRANCH   1  14
ATOM     14  C   UNL     1       2.756   4.548  18.796  0.00  0.00    +0.000 A 
ATOM     15  C   UNL     1       1.474   4.009  18.619  0.00  0.00    +0.000 A 
ATOM     16  C   UNL     1       1.129   2.844  19.290  0.00  0.00    +0.000 A 
ATOM     17  N   UNL     1       1.960   2.177  20.113  0.00  0.00    +0.000 NA
ATOM     18  C   UNL     1       3.201   2.688  20.255  0.00  0.00    +0.000 A 
ATOM     19  C   UNL     1       3.639   3.845  19.627  0.00  0.00    +0.000 A 
ENDBRANCH   1  14
BRANCH   1  20
ATOM     20  N   UNL     1       3.108   7.012  19.048  0.00  0.00    +0.000 NA
ATOM     21  C   UNL     1       2.581   6.751  20.384  0.00  0.00    +0.000 C 
ATOM     22  C   UNL     1       1.160   7.291  20.397  0.00  0.00    +0.000 C 
ATOM     23  C   UNL     1       1.156   8.402  19.356  0.00  0.00    +0.000 C 
ATOM     24  C   UNL     1       2.488   8.246  18.583  0.00  0.00    +0.000 C 
BRANCH  23  25
ATOM     25  N   UNL     1       0.950   9.733  19.885  0.00  0.00    +0.000 N 
ATOM     26  C   UNL     1       0.099  10.570  19.218  0.00  0.00    +0.000 C 
ATOM     27  O   UNL     1      -0.449  10.248  18.171  0.00  0.00    +0.000 OA
ATOM     28  H   UNL     1       1.311  10.035  20.779  0.00  0.00    +0.000 HD
BRANCH  26  29
ATOM     29  O   UNL     1      -0.025  11.759  19.847  0.00  0.00    +0.000 OA
BRANCH  29  30
ATOM     30  C   UNL     1       0.666  12.901  19.266  0.00  0.00    +0.000 C 
ATOM     31  C   UNL     1      -0.262  13.741  18.373  0.00  0.00    +0.000 C 
ATOM     32  C   UNL     1       1.112  13.785  20.441  0.00  0.00    +0.000 C 
ATOM     33  C   UNL     1       1.926  12.426  18.527  0.00  0.00    +0.000 C 
ENDBRANCH  29  30
ENDBRANCH  26  29
ENDBRANCH  23  25
ENDBRANCH   1  20
TORSDOF 9
ENDMDL
MODEL 9
REMARK VINA RESULT:      -7.1      5.884     10.452
REMARK  Name = 
REMARK  14 active torsions:
REMARK  status: ('A' for Active; 'I' for Inactive)
REMARK    1  A    between atoms: C_1  and  O_2
REMARK    2  A    between atoms: O_2  and  C_3
REMARK    3  A    between atoms: C_5  and  O_6
REMARK    4  A    between atoms: O_6  and  C_7
REMARK    5  A    between atoms: C_8  and  O_9
REMARK    6  A    between atoms: C_10  and  C_11
REMARK    7  A    between atoms: C_11  and  C_12
REMARK    8  A    between atoms: C_11  and  N_18
REMARK    9  A    between atoms: C_21  and  N_22
REMARK   10  A    between atoms: C_23  and  O_25
REMARK   11  A    between atoms: O_25  and  C_26
REMARK   12  A    between atoms: C_26  and  C_27
REMARK   13  A    between atoms: C_26  and  C_28
REMARK   14  A    between atoms: C_26  and  C_29
REMARK                            x       y       z     vdW  Elec       q    Type
REMARK                         _______ _______ _______ _____ _____    ______ ____
ROOT
ATOM      1  C   UNL     1      -0.796  11.098  20.180  0.00  0.00    +0.000 C 
ENDROOT
BRANCH   1   6
ATOM      2  C   UNL     1      -4.214  11.970  18.609  0.00  0.00    +0.000 A 
ATOM      3  C   UNL     1      -3.980  11.694  17.267  0.00  0.00    +0.000 A 
ATOM      4  C   UNL     1      -2.731  11.234  16.844  0.00  0.00    +0.000 A 
ATOM      5  C   UNL     1      -1.733  10.988  17.799  0.00  0.00    +0.000 A 
ATOM      6  C   UNL     1      -1.938  11.268  19.167  0.00  0.00    +0.000 A 
ATOM      7  C   UNL     1      -3.177  11.822  19.528  0.00  0.00    +0.000 A 
BRANCH   2   9
ATOM      8  C   UNL     1      -6.155  11.639  19.900  0.00  0.00    +0.000 C 
ATOM      9  O   UNL     1      -5.465  12.425  18.928  0.00  0.00    +0.000 OA
ENDBRANCH   2   9
BRANCH   4  10
ATOM     10  O   UNL     1      -2.650  11.000  15.497  0.00  0.00    +0.000 OA
ATOM     11  C   UNL     1      -3.135   9.744  15.043  0.00  0.00    +0.000 C 
ENDBRANCH   4  10
BRANCH   5  12
ATOM     12  O   UNL     1      -0.531  10.449  17.429  0.00  0.00    +0.000 OA
ATOM     13  H   UNL     1       0.065  11.198  17.260  0.00  0.00    +0.000 HD
ENDBRANCH   5  12
ENDBRANCH   1   6
BRANCH   1  14
ATOM     14  C   UNL     1      -0.775  12.201  21.249  0.00  0.00    +0.000 A 
ATOM     15  C   UNL     1       0.104  13.292  21.212  0.00  0.00    +0.000 A 
ATOM     16  C   UNL     1       0.080  14.219  22.245  0.00  0.00    +0.000 A 
ATOM     17  N   UNL     1      -0.752  14.145  23.301  0.00  0.00    +0.000 NA
ATOM     18  C   UNL     1      -1.614  13.106  23.315  0.00  0.00    +0.000 A 
ATOM     19  C   UNL     1      -1.666  12.130  22.330  0.00  0.00    +0.000 A 
ENDBRANCH   1  14
BRANCH   1  20
ATOM     20  N   UNL     1      -0.535   9.761  20.752  0.00  0.00    +0.000 NA
ATOM     21  C   UNL     1       0.030   9.717  22.097  0.00  0.00    +0.000 C 
ATOM     22  C   UNL     1       1.493   9.338  21.934  0.00  0.00    +0.000 C 
ATOM     23  C   UNL     1       1.548   8.543  20.637  0.00  0.00    +0.000 C 
ATOM     24  C   UNL     1       0.171   8.760  19.963  0.00  0.00    +0.000 C 
BRANCH  23  25
ATOM     25  N   UNL     1       1.900   7.148  20.791  0.00  0.00    +0.000 N 
ATOM     26  C   UNL     1       2.584   6.537  19.776  0.00  0.00    +0.000 C 
ATOM     27  O   UNL     1       2.860   7.116  18.732  0.00  0.00    +0.000 OA
ATOM     28  H   UNL     1       1.769   6.636  21.652  0.00  0.00    +0.000 HD
BRANCH  26  29
ATOM     29  O   UNL     1       2.877   5.253  20.076  0.00  0.00    +0.000 OA
BRANCH  29  30
ATOM     30  C   UNL     1       2.097   4.216  19.418  0.00  0.00    +0.000 C 
ATOM     31  C   UNL     1       1.745   4.592  17.970  0.00  0.00    +0.000 C 
ATOM     32  C   UNL     1       2.986   2.963  19.373  0.00  0.00    +0.000 C 
ATOM     33  C   UNL     1       0.856   3.885  20.260  0.00  0.00    +0.000 C 
ENDBRANCH  29  30
ENDBRANCH  26  29
ENDBRANCH  23  25
ENDBRANCH   1  20
TORSDOF 9
ENDMDL
