MODEL 1
REMARK VINA RESULT:      -4.8      0.000      0.000
REMARK  Name = 
REMARK  4 active torsions:
REMARK  status: ('A' for Active; 'I' for Inactive)
REMARK    1  A    between atoms: C_1  and  P_2
REMARK    2  A    between atoms: P_2  and  O_4
REMARK    3  A    between atoms: P_2  and  C_5
REMARK    4  A    between atoms: C_7  and  N_8
REMARK                            x       y       z     vdW  Elec       q    Type
REMARK                         _______ _______ _______ _____ _____    ______ ____
ROOT
ATOM      1  C   UNL     1       5.730   4.815  16.769  0.00  0.00    +0.000 C 
ATOM      2  C   UNL     1       5.466   5.897  15.699  0.00  0.00    +0.000 C 
ATOM      3  C   UNL     1       6.019   4.949  14.621  0.00  0.00    +0.000 C 
ATOM      4  C   UNL     1       5.910   3.789  15.627  0.00  0.00    +0.000 C 
ENDROOT
BRANCH   1   6
ATOM      5  C   UNL     1       7.495   6.814  17.959  0.00  0.00    +0.000 C 
ATOM      6  P   UNL     1       7.123   5.089  17.890  0.00  0.00    +0.000 P 
ATOM      7  O   UNL     1       8.240   4.194  17.454  0.00  0.00    +0.000 OA
BRANCH   6   8
ATOM      8  O   UNL     1       6.565   4.714  19.349  0.00  0.00    +0.000 OA
ATOM      9  H   UNL     1       7.201   4.215  19.900  0.00  0.00    +0.000 HD
ENDBRANCH   6   8
ENDBRANCH   1   6
BRANCH   3  10
ATOM     10  N   UNL     1       7.427   5.255  14.387  0.00  0.00    +0.000 NA
ATOM     11  H   UNL     1       7.956   4.517  13.897  0.00  0.00    +0.000 HD
ATOM     12  H   UNL     1       7.964   5.467  15.224  0.00  0.00    +0.000 HD
ENDBRANCH   3  10
TORSDOF 3
ENDMDL
MODEL 2
REMARK VINA RESULT:      -4.7      1.132      1.385
REMARK  Name = 
REMARK  4 active torsions:
REMARK  status: ('A' for Active; 'I' for Inactive)
REMARK    1  A    between atoms: C_1  and  P_2
REMARK    2  A    between atoms: P_2  and  O_4
REMARK    3  A    between atoms: P_2  and  C_5
REMARK    4  A    between atoms: C_7  and  N_8
REMARK                            x       y       z     vdW  Elec       q    Type
REMARK                         _______ _______ _______ _____ _____    ______ ____
ROOT
ATOM      1  C   UNL     1       5.852   4.719  16.520  0.00  0.00    +0.000 C 
ATOM      2  C   UNL     1       5.449   5.703  15.399  0.00  0.00    +0.000 C 
ATOM      3  C   UNL     1       6.192   4.825  14.378  0.00  0.00    +0.000 C 
ATOM      4  C   UNL     1       6.243   3.699  15.426  0.00  0.00    +0.000 C 
ENDROOT
BRANCH   1   6
ATOM      5  C   UNL     1       6.473   5.351  19.303  0.00  0.00    +0.000 C 
ATOM      6  P   UNL     1       7.138   5.265  17.669  0.00  0.00    +0.000 P 
ATOM      7  O   UNL     1       7.721   6.532  17.131  0.00  0.00    +0.000 OA
BRANCH   6   8
ATOM      8  O   UNL     1       8.203   4.062  17.705  0.00  0.00    +0.000 OA
ATOM      9  H   UNL     1       8.046   3.374  17.028  0.00  0.00    +0.000 HD
ENDBRANCH   6   8
ENDBRANCH   1   6
BRANCH   3  10
ATOM     10  N   UNL     1       7.536   5.356  14.173  0.00  0.00    +0.000 NA
ATOM     11  H   UNL     1       8.158   5.293  14.993  0.00  0.00    +0.000 HD
ATOM     12  H   UNL     1       7.572   6.328  13.876  0.00  0.00    +0.000 HD
ENDBRANCH   3  10
TORSDOF 3
ENDMDL
MODEL 3
REMARK VINA RESULT:      -4.7      2.574      3.082
REMARK  Name = 
REMARK  4 active torsions:
REMARK  status: ('A' for Active; 'I' for Inactive)
REMARK    1  A    between atoms: C_1  and  P_2
REMARK    2  A    between atoms: P_2  and  O_4
REMARK    3  A    between atoms: P_2  and  C_5
REMARK    4  A    between atoms: C_7  and  N_8
REMARK                            x       y       z     vdW  Elec       q    Type
REMARK                         _______ _______ _______ _____ _____    ______ ____
ROOT
ATOM      1  C   UNL     1       5.477   5.507  18.013  0.00  0.00    +0.000 C 
ATOM      2  C   UNL     1       4.933   4.195  17.407  0.00  0.00    +0.000 C 
ATOM      3  C   UNL     1       4.288   3.851  18.761  0.00  0.00    +0.000 C 
ATOM      4  C   UNL     1       4.513   5.308  19.205  0.00  0.00    +0.000 C 
ENDROOT
BRANCH   1   6
ATOM      5  C   UNL     1       7.840   7.222  18.098  0.00  0.00    +0.000 C 
ATOM      6  P   UNL     1       7.251   5.578  18.361  0.00  0.00    +0.000 P 
ATOM      7  O   UNL     1       7.915   4.507  17.556  0.00  0.00    +0.000 OA
BRANCH   6   8
ATOM      8  O   UNL     1       7.376   5.328  19.943  0.00  0.00    +0.000 OA
ATOM      9  H   UNL     1       6.621   5.676  20.460  0.00  0.00    +0.000 HD
ENDBRANCH   6   8
ENDBRANCH   1   6
BRANCH   3  10
ATOM     10  N   UNL     1       5.180   2.974  19.512  0.00  0.00    +0.000 NA
ATOM     11  H   UNL     1       5.084   3.031  20.537  0.00  0.00    +0.000 HD
ATOM     12  H   UNL     1       6.171   3.106  19.322  0.00  0.00    +0.000 HD
ENDBRANCH   3  10
TORSDOF 3
ENDMDL
MODEL 4
REMARK VINA RESULT:      -4.7      2.039      2.478
REMARK  Name = 
REMARK  4 active torsions:
REMARK  status: ('A' for Active; 'I' for Inactive)
REMARK    1  A    between atoms: C_1  and  P_2
REMARK    2  A    between atoms: P_2  and  O_4
REMARK    3  A    between atoms: P_2  and  C_5
REMARK    4  A    between atoms: C_7  and  N_8
REMARK                            x       y       z     vdW  Elec       q    Type
REMARK                         _______ _______ _______ _____ _____    ______ ____
ROOT
ATOM      1  C   UNL     1       5.171   5.060  17.273  0.00  0.00    +0.000 C 
ATOM      2  C   UNL     1       6.312   5.976  16.778  0.00  0.00    +0.000 C 
ATOM      3  C   UNL     1       6.987   4.761  16.121  0.00  0.00    +0.000 C 
ATOM      4  C   UNL     1       5.675   3.974  16.295  0.00  0.00    +0.000 C 
ENDROOT
BRANCH   1   6
ATOM      5  C   UNL     1       3.608   5.190  19.737  0.00  0.00    +0.000 C 
ATOM      6  P   UNL     1       5.142   4.664  19.038  0.00  0.00    +0.000 P 
ATOM      7  O   UNL     1       6.376   5.242  19.654  0.00  0.00    +0.000 OA
BRANCH   6   8
ATOM      8  O   UNL     1       5.113   3.059  19.104  0.00  0.00    +0.000 OA
ATOM      9  H   UNL     1       5.999   2.648  19.149  0.00  0.00    +0.000 HD
ENDBRANCH   6   8
ENDBRANCH   1   6
BRANCH   3  10
ATOM     10  N   UNL     1       7.997   4.222  17.027  0.00  0.00    +0.000 NA
ATOM     11  H   UNL     1       7.984   4.618  17.978  0.00  0.00    +0.000 HD
ATOM     12  H   UNL     1       8.957   4.317  16.704  0.00  0.00    +0.000 HD
ENDBRANCH   3  10
TORSDOF 3
ENDMDL
MODEL 5
REMARK VINA RESULT:      -4.7      2.608      3.492
REMARK  Name = 
REMARK  4 active torsions:
REMARK  status: ('A' for Active; 'I' for Inactive)
REMARK    1  A    between atoms: C_1  and  P_2
REMARK    2  A    between atoms: P_2  and  O_4
REMARK    3  A    between atoms: P_2  and  C_5
REMARK    4  A    between atoms: C_7  and  N_8
REMARK                            x       y       z     vdW  Elec       q    Type
REMARK                         _______ _______ _______ _____ _____    ______ ____
ROOT
ATOM      1  C   UNL     1       5.311   5.467  17.682  0.00  0.00    +0.000 C 
ATOM      2  C   UNL     1       4.181   4.420  17.574  0.00  0.00    +0.000 C 
ATOM      3  C   UNL     1       4.353   4.099  19.069  0.00  0.00    +0.000 C 
ATOM      4  C   UNL     1       5.183   5.386  19.221  0.00  0.00    +0.000 C 
ENDROOT
BRANCH   1   6
ATOM      5  C   UNL     1       6.636   4.096  15.470  0.00  0.00    +0.000 C 
ATOM      6  P   UNL     1       6.904   5.037  16.940  0.00  0.00    +0.000 P 
ATOM      7  O   UNL     1       7.735   4.381  17.996  0.00  0.00    +0.000 OA
BRANCH   6   8
ATOM      8  O   UNL     1       7.524   6.434  16.445  0.00  0.00    +0.000 OA
ATOM      9  H   UNL     1       7.454   6.579  15.480  0.00  0.00    +0.000 HD
ENDBRANCH   6   8
ENDBRANCH   1   6
BRANCH   3  10
ATOM     10  N   UNL     1       5.227   2.939  19.216  0.00  0.00    +0.000 NA
ATOM     11  H   UNL     1       6.235   3.143  19.138  0.00  0.00    +0.000 HD
ATOM     12  H   UNL     1       5.049   2.182  18.560  0.00  0.00    +0.000 HD
ENDBRANCH   3  10
TORSDOF 3
ENDMDL
MODEL 6
REMARK VINA RESULT:      -4.6      5.400      5.953
REMARK  Name = 
REMARK  4 active torsions:
REMARK  status: ('A' for Active; 'I' for Inactive)
REMARK    1  A    between atoms: C_1  and  P_2
REMARK    2  A    between atoms: P_2  and  O_4
REMARK    3  A    between atoms: P_2  and  C_5
REMARK    4  A    between atoms: C_7  and  N_8
REMARK                            x       y       z     vdW  Elec       q    Type
REMARK                         _______ _______ _______ _____ _____    ______ ____
ROOT
ATOM      1  C   UNL     1       2.976   2.961  19.597  0.00  0.00    +0.000 C 
ATOM      2  C   UNL     1       2.374   2.051  18.503  0.00  0.00    +0.000 C 
ATOM      3  C   UNL     1       2.548   3.186  17.480  0.00  0.00    +0.000 C 
ATOM      4  C   UNL     1       3.473   3.906  18.478  0.00  0.00    +0.000 C 
ENDROOT
BRANCH   1   6
ATOM      5  C   UNL     1       1.831   5.395  20.733  0.00  0.00    +0.000 C 
ATOM      6  P   UNL     1       1.834   3.632  20.828  0.00  0.00    +0.000 P 
ATOM      7  O   UNL     1       2.201   3.048  22.155  0.00  0.00    +0.000 OA
BRANCH   6   8
ATOM      8  O   UNL     1       0.374   3.176  20.336  0.00  0.00    +0.000 OA
ATOM      9  H   UNL     1      -0.035   2.485  20.895  0.00  0.00    +0.000 HD
ENDBRANCH   6   8
ENDBRANCH   1   6
BRANCH   3  10
ATOM     10  N   UNL     1       1.295   3.926  17.362  0.00  0.00    +0.000 NA
ATOM     11  H   UNL     1       0.489   3.368  17.043  0.00  0.00    +0.000 HD
ATOM     12  H   UNL     1       1.331   4.734  16.745  0.00  0.00    +0.000 HD
ENDBRANCH   3  10
TORSDOF 3
ENDMDL
MODEL 7
REMARK VINA RESULT:      -4.6      5.235      6.082
REMARK  Name = 
REMARK  4 active torsions:
REMARK  status: ('A' for Active; 'I' for Inactive)
REMARK    1  A    between atoms: C_1  and  P_2
REMARK    2  A    between atoms: P_2  and  O_4
REMARK    3  A    between atoms: P_2  and  C_5
REMARK    4  A    between atoms: C_7  and  N_8
REMARK                            x       y       z     vdW  Elec       q    Type
REMARK                         _______ _______ _______ _____ _____    ______ ____
ROOT
ATOM      1  C   UNL     1       2.916   4.231  19.376  0.00  0.00    +0.000 C 
ATOM      2  C   UNL     1       1.462   3.989  18.917  0.00  0.00    +0.000 C 
ATOM      3  C   UNL     1       0.983   4.196  20.364  0.00  0.00    +0.000 C 
ATOM      4  C   UNL     1       2.359   4.797  20.703  0.00  0.00    +0.000 C 
ENDROOT
BRANCH   1   6
ATOM      5  C   UNL     1       3.553   1.634  18.200  0.00  0.00    +0.000 C 
ATOM      6  P   UNL     1       4.002   2.787  19.461  0.00  0.00    +0.000 P 
ATOM      7  O   UNL     1       3.965   2.271  20.864  0.00  0.00    +0.000 OA
BRANCH   6   8
ATOM      8  O   UNL     1       5.455   3.332  19.042  0.00  0.00    +0.000 OA
ATOM      9  H   UNL     1       6.174   2.682  19.171  0.00  0.00    +0.000 HD
ENDBRANCH   6   8
ENDBRANCH   1   6
BRANCH   3  10
ATOM     10  N   UNL     1       0.848   2.898  21.018  0.00  0.00    +0.000 NA
ATOM     11  H   UNL     1      -0.019   2.775  21.564  0.00  0.00    +0.000 HD
ATOM     12  H   UNL     1       1.607   2.657  21.651  0.00  0.00    +0.000 HD
ENDBRANCH   3  10
TORSDOF 3
ENDMDL
MODEL 8
REMARK VINA RESULT:      -4.6      2.638      3.226
REMARK  Name = 
REMARK  4 active torsions:
REMARK  status: ('A' for Active; 'I' for Inactive)
REMARK    1  A    between atoms: C_1  and  P_2
REMARK    2  A    between atoms: P_2  and  O_4
REMARK    3  A    between atoms: P_2  and  C_5
REMARK    4  A    between atoms: C_7  and  N_8
REMARK                            x       y       z     vdW  Elec       q    Type
REMARK                         _______ _______ _______ _____ _____    ______ ____
ROOT
ATOM      1  C   UNL     1       5.321   5.541  17.713  0.00  0.00    +0.000 C 
ATOM      2  C   UNL     1       4.603   4.243  17.282  0.00  0.00    +0.000 C 
ATOM      3  C   UNL     1       4.292   3.940  18.757  0.00  0.00    +0.000 C 
ATOM      4  C   UNL     1       4.666   5.392  19.105  0.00  0.00    +0.000 C 
ENDROOT
BRANCH   1   6
ATOM      5  C   UNL     1       7.798   5.854  19.228  0.00  0.00    +0.000 C 
ATOM      6  P   UNL     1       7.128   5.549  17.623  0.00  0.00    +0.000 P 
ATOM      7  O   UNL     1       7.526   6.514  16.552  0.00  0.00    +0.000 OA
BRANCH   6   8
ATOM      8  O   UNL     1       7.535   4.035  17.272  0.00  0.00    +0.000 OA
ATOM      9  H   UNL     1       8.285   3.961  16.648  0.00  0.00    +0.000 HD
ENDBRANCH   6   8
ENDBRANCH   1   6
BRANCH   3  10
ATOM     10  N   UNL     1       5.309   3.038  19.289  0.00  0.00    +0.000 NA
ATOM     11  H   UNL     1       5.933   2.622  18.582  0.00  0.00    +0.000 HD
ATOM     12  H   UNL     1       4.947   2.256  19.830  0.00  0.00    +0.000 HD
ENDBRANCH   3  10
TORSDOF 3
ENDMDL
MODEL 9
REMARK VINA RESULT:      -4.5      5.255      6.013
REMARK  Name = 
REMARK  4 active torsions:
REMARK  status: ('A' for Active; 'I' for Inactive)
REMARK    1  A    between atoms: C_1  and  P_2
REMARK    2  A    between atoms: P_2  and  O_4
REMARK    3  A    between atoms: P_2  and  C_5
REMARK    4  A    between atoms: C_7  and  N_8
REMARK                            x       y       z     vdW  Elec       q    Type
REMARK                         _______ _______ _______ _____ _____    ______ ____
ROOT
ATOM      1  C   UNL     1       2.368   3.769  19.238  0.00  0.00    +0.000 C 
ATOM      2  C   UNL     1       1.277   2.964  19.978  0.00  0.00    +0.000 C 
ATOM      3  C   UNL     1       1.807   3.501  21.318  0.00  0.00    +0.000 C 
ATOM      4  C   UNL     1       2.610   4.561  20.543  0.00  0.00    +0.000 C 
ENDROOT
BRANCH   1   6
ATOM      5  C   UNL     1       4.373   3.664  17.116  0.00  0.00    +0.000 C 
ATOM      6  P   UNL     1       3.752   2.833  18.545  0.00  0.00    +0.000 P 
ATOM      7  O   UNL     1       3.291   1.426  18.336  0.00  0.00    +0.000 OA
BRANCH   6   8
ATOM      8  O   UNL     1       4.921   2.942  19.643  0.00  0.00    +0.000 OA
ATOM      9  H   UNL     1       5.046   3.845  19.999  0.00  0.00    +0.000 HD
ENDBRANCH   6   8
ENDBRANCH   1   6
BRANCH   3  10
ATOM     10  N   UNL     1       2.727   2.527  21.899  0.00  0.00    +0.000 NA
ATOM     11  H   UNL     1       2.369   1.561  21.937  0.00  0.00    +0.000 HD
ATOM     12  H   UNL     1       3.038   2.742  22.843  0.00  0.00    +0.000 HD
ENDBRANCH   3  10
TORSDOF 3
ENDMDL
