MODEL 1
REMARK VINA RESULT:      -7.5      0.000      0.000
REMARK  Name = 
REMARK  6 active torsions:
REMARK  status: ('A' for Active; 'I' for Inactive)
REMARK    1  A    between atoms: C_1  and  C_2
REMARK    2  A    between atoms: C_5  and  S_6
REMARK    3  A    between atoms: S_6  and  C_7
REMARK    4  A    between atoms: C_7  and  C_18
REMARK    5  A    between atoms: C_8  and  C_9
REMARK    6  A    between atoms: C_18  and  C_20
REMARK                            x       y       z     vdW  Elec       q    Type
REMARK                         _______ _______ _______ _____ _____    ______ ____
ROOT
ATOM      1  C   UNL     1       2.870   6.798  17.979  0.00  0.00    +0.000 C 
ATOM      2  C   UNL     1       1.835   5.950  18.147  0.00  0.00    +0.000 C 
ENDROOT
BRANCH   2   3
ATOM      3  C   UNL     1       1.854   4.545  18.416  0.00  0.00    +0.000 A 
ATOM      4  C   UNL     1       1.709   3.597  17.425  0.00  0.00    +0.000 A 
ATOM      5  N   UNL     1       1.775   2.361  18.012  0.00  0.00    +0.000 N 
ATOM      6  C   UNL     1       1.912   2.487  19.376  0.00  0.00    +0.000 A 
ATOM      7  C   UNL     1       2.019   1.495  20.360  0.00  0.00    +0.000 A 
ATOM      8  C   UNL     1       2.130   1.910  21.690  0.00  0.00    +0.000 A 
ATOM      9  C   UNL     1       2.110   3.262  22.019  0.00  0.00    +0.000 A 
ATOM     10  C   UNL     1       2.002   4.239  21.022  0.00  0.00    +0.000 A 
ATOM     11  C   UNL     1       1.930   3.853  19.666  0.00  0.00    +0.000 A 
ATOM     12  H   UNL     1       1.719   1.478  17.523  0.00  0.00    +0.000 HD
ENDBRANCH   2   3
BRANCH   1  13
ATOM     13  C   UNL     1       4.299   6.326  17.945  0.00  0.00    +0.000 C 
ATOM     14  O   UNL     1       5.001   6.380  18.955  0.00  0.00    +0.000 OA
BRANCH  13  15
ATOM     15  C   UNL     1       4.889   5.710  16.715  0.00  0.00    +0.000 A 
ATOM     16  C   UNL     1       5.160   6.420  15.537  0.00  0.00    +0.000 A 
ATOM     17  C   UNL     1       5.674   5.759  14.413  0.00  0.00    +0.000 A 
ATOM     18  C   UNL     1       5.956   4.396  14.474  0.00  0.00    +0.000 A 
ATOM     19 CL   UNL     1       6.586   3.588  13.092  0.00  0.00    +0.000 Cl
ATOM     20  C   UNL     1       5.738   3.686  15.651  0.00  0.00    +0.000 A 
ATOM     21  C   UNL     1       5.210   4.342  16.767  0.00  0.00    +0.000 A 
ENDBRANCH  13  15
ENDBRANCH   1  13
BRANCH   1  22
ATOM     22  S   UNL     1       2.573   8.503  17.816  0.00  0.00    +0.000 S 
BRANCH  22  27
ATOM     23  C   UNL     1      -0.554  10.076  22.808  0.00  0.00    +0.000 C 
ATOM     24  C   UNL     1       0.117   9.649  21.536  0.00  0.00    +0.000 A 
ATOM     25  C   UNL     1       1.022   8.589  21.533  0.00  0.00    +0.000 A 
ATOM     26  C   UNL     1       1.703   8.245  20.360  0.00  0.00    +0.000 A 
ATOM     27  C   UNL     1       1.495   8.949  19.162  0.00  0.00    +0.000 A 
ATOM     28  C   UNL     1       0.566   9.990  19.156  0.00  0.00    +0.000 A 
ATOM     29  C   UNL     1      -0.119  10.335  20.335  0.00  0.00    +0.000 A 
ENDBRANCH  22  27
ENDBRANCH   1  22
TORSDOF 5
ENDMDL
MODEL 2
REMARK VINA RESULT:      -7.4      4.855      8.426
REMARK  Name = 
REMARK  6 active torsions:
REMARK  status: ('A' for Active; 'I' for Inactive)
REMARK    1  A    between atoms: C_1  and  C_2
REMARK    2  A    between atoms: C_5  and  S_6
REMARK    3  A    between atoms: S_6  and  C_7
REMARK    4  A    between atoms: C_7  and  C_18
REMARK    5  A    between atoms: C_8  and  C_9
REMARK    6  A    between atoms: C_18  and  C_20
REMARK                            x       y       z     vdW  Elec       q    Type
REMARK                         _______ _______ _______ _____ _____    ______ ____
ROOT
ATOM      1  C   UNL     1      -0.412  12.013  20.044  0.00  0.00    +0.000 C 
ATOM      2  C   UNL     1       0.035  13.113  19.405  0.00  0.00    +0.000 C 
ENDROOT
BRANCH   2   3
ATOM      3  C   UNL     1       1.381  13.531  19.161  0.00  0.00    +0.000 A 
ATOM      4  C   UNL     1       2.011  13.340  17.949  0.00  0.00    +0.000 A 
ATOM      5  N   UNL     1       3.278  13.851  18.048  0.00  0.00    +0.000 N 
ATOM      6  C   UNL     1       3.502  14.328  19.320  0.00  0.00    +0.000 A 
ATOM      7  C   UNL     1       4.646  14.931  19.861  0.00  0.00    +0.000 A 
ATOM      8  C   UNL     1       4.606  15.307  21.206  0.00  0.00    +0.000 A 
ATOM      9  C   UNL     1       3.475  15.067  21.981  0.00  0.00    +0.000 A 
ATOM     10  C   UNL     1       2.341  14.464  21.423  0.00  0.00    +0.000 A 
ATOM     11  C   UNL     1       2.336  14.109  20.056  0.00  0.00    +0.000 A 
ATOM     12  H   UNL     1       3.961  13.868  17.304  0.00  0.00    +0.000 HD
ENDBRANCH   2   3
BRANCH   1  13
ATOM     13  C   UNL     1       0.519  11.051  20.735  0.00  0.00    +0.000 C 
ATOM     14  O   UNL     1       0.769  11.174  21.934  0.00  0.00    +0.000 OA
BRANCH  13  15
ATOM     15  C   UNL     1       1.106   9.878  20.015  0.00  0.00    +0.000 A 
ATOM     16  C   UNL     1       1.469   9.893  18.661  0.00  0.00    +0.000 A 
ATOM     17  C   UNL     1       1.973   8.738  18.049  0.00  0.00    +0.000 A 
ATOM     18  C   UNL     1       2.155   7.575  18.796  0.00  0.00    +0.000 A 
ATOM     19 CL   UNL     1       2.774   6.159  18.040  0.00  0.00    +0.000 Cl
ATOM     20  C   UNL     1       1.845   7.558  20.152  0.00  0.00    +0.000 A 
ATOM     21  C   UNL     1       1.326   8.705  20.759  0.00  0.00    +0.000 A 
ENDBRANCH  13  15
ENDBRANCH   1  13
BRANCH   1  22
ATOM     22  S   UNL     1      -2.113  11.656  20.068  0.00  0.00    +0.000 S 
BRANCH  22  27
ATOM     23  C   UNL     1      -3.508  10.120  14.336  0.00  0.00    +0.000 C 
ATOM     24  C   UNL     1      -3.196  10.392  15.778  0.00  0.00    +0.000 A 
ATOM     25  C   UNL     1      -3.979  11.274  16.519  0.00  0.00    +0.000 A 
ATOM     26  C   UNL     1      -3.638  11.583  17.840  0.00  0.00    +0.000 A 
ATOM     27  C   UNL     1      -2.508  11.018  18.453  0.00  0.00    +0.000 A 
ATOM     28  C   UNL     1      -1.740  10.110  17.722  0.00  0.00    +0.000 A 
ATOM     29  C   UNL     1      -2.084   9.799  16.395  0.00  0.00    +0.000 A 
ENDBRANCH  22  27
ENDBRANCH   1  22
TORSDOF 5
ENDMDL
MODEL 3
REMARK VINA RESULT:      -7.2      0.179      1.294
REMARK  Name = 
REMARK  6 active torsions:
REMARK  status: ('A' for Active; 'I' for Inactive)
REMARK    1  A    between atoms: C_1  and  C_2
REMARK    2  A    between atoms: C_5  and  S_6
REMARK    3  A    between atoms: S_6  and  C_7
REMARK    4  A    between atoms: C_7  and  C_18
REMARK    5  A    between atoms: C_8  and  C_9
REMARK    6  A    between atoms: C_18  and  C_20
REMARK                            x       y       z     vdW  Elec       q    Type
REMARK                         _______ _______ _______ _____ _____    ______ ____
ROOT
ATOM      1  C   UNL     1       2.806   6.758  17.949  0.00  0.00    +0.000 C 
ATOM      2  C   UNL     1       1.789   5.886  18.105  0.00  0.00    +0.000 C 
ENDROOT
BRANCH   2   3
ATOM      3  C   UNL     1       1.837   4.485  18.389  0.00  0.00    +0.000 A 
ATOM      4  C   UNL     1       1.715   3.523  17.408  0.00  0.00    +0.000 A 
ATOM      5  N   UNL     1       1.805   2.296  18.009  0.00  0.00    +0.000 N 
ATOM      6  C   UNL     1       1.935   2.439  19.372  0.00  0.00    +0.000 A 
ATOM      7  C   UNL     1       2.058   1.461  20.367  0.00  0.00    +0.000 A 
ATOM      8  C   UNL     1       2.156   1.893  21.693  0.00  0.00    +0.000 A 
ATOM      9  C   UNL     1       2.106   3.248  22.007  0.00  0.00    +0.000 A 
ATOM     10  C   UNL     1       1.982   4.212  20.999  0.00  0.00    +0.000 A 
ATOM     11  C   UNL     1       1.922   3.809  19.646  0.00  0.00    +0.000 A 
ATOM     12  H   UNL     1       1.769   1.406  17.530  0.00  0.00    +0.000 HD
ENDBRANCH   2   3
BRANCH   1  13
ATOM     13  C   UNL     1       4.247   6.321  17.950  0.00  0.00    +0.000 C 
ATOM     14  O   UNL     1       4.947   6.475  18.951  0.00  0.00    +0.000 OA
BRANCH  13  15
ATOM     15  C   UNL     1       4.852   5.622  16.774  0.00  0.00    +0.000 A 
ATOM     16  C   UNL     1       5.196   4.263  16.764  0.00  0.00    +0.000 A 
ATOM     17  C   UNL     1       5.799   3.692  15.635  0.00  0.00    +0.000 A 
ATOM     18  C   UNL     1       6.023   4.466  14.498  0.00  0.00    +0.000 A 
ATOM     19 CL   UNL     1       6.764   3.762  13.113  0.00  0.00    +0.000 Cl
ATOM     20  C   UNL     1       5.643   5.805  14.474  0.00  0.00    +0.000 A 
ATOM     21  C   UNL     1       5.057   6.378  15.606  0.00  0.00    +0.000 A 
ENDBRANCH  13  15
ENDBRANCH   1  13
BRANCH   1  22
ATOM     22  S   UNL     1       2.471   8.454  17.761  0.00  0.00    +0.000 S 
BRANCH  22  27
ATOM     23  C   UNL     1      -0.707  10.334  22.612  0.00  0.00    +0.000 C 
ATOM     24  C   UNL     1       0.171   9.896  21.477  0.00  0.00    +0.000 A 
ATOM     25  C   UNL     1       0.217  10.630  20.293  0.00  0.00    +0.000 A 
ATOM     26  C   UNL     1       0.977  10.176  19.210  0.00  0.00    +0.000 A 
ATOM     27  C   UNL     1       1.710   8.980  19.283  0.00  0.00    +0.000 A 
ATOM     28  C   UNL     1       1.689   8.260  20.479  0.00  0.00    +0.000 A 
ATOM     29  C   UNL     1       0.926   8.717  21.567  0.00  0.00    +0.000 A 
ENDBRANCH  22  27
ENDBRANCH   1  22
TORSDOF 5
ENDMDL
MODEL 4
REMARK VINA RESULT:      -7.2      2.978      7.282
REMARK  Name = 
REMARK  6 active torsions:
REMARK  status: ('A' for Active; 'I' for Inactive)
REMARK    1  A    between atoms: C_1  and  C_2
REMARK    2  A    between atoms: C_5  and  S_6
REMARK    3  A    between atoms: S_6  and  C_7
REMARK    4  A    between atoms: C_7  and  C_18
REMARK    5  A    between atoms: C_8  and  C_9
REMARK    6  A    between atoms: C_18  and  C_20
REMARK                            x       y       z     vdW  Elec       q    Type
REMARK                         _______ _______ _______ _____ _____    ______ ____
ROOT
ATOM      1  C   UNL     1       3.605   6.180  18.212  0.00  0.00    +0.000 C 
ATOM      2  C   UNL     1       3.565   7.526  18.282  0.00  0.00    +0.000 C 
ENDROOT
BRANCH   2   3
ATOM      3  C   UNL     1       2.432   8.388  18.424  0.00  0.00    +0.000 A 
ATOM      4  C   UNL     1       2.006   9.227  17.415  0.00  0.00    +0.000 A 
ATOM      5  N   UNL     1       0.908   9.908  17.870  0.00  0.00    +0.000 N 
ATOM      6  C   UNL     1       0.639   9.563  19.175  0.00  0.00    +0.000 A 
ATOM      7  C   UNL     1      -0.380  10.009  20.027  0.00  0.00    +0.000 A 
ATOM      8  C   UNL     1      -0.407   9.502  21.329  0.00  0.00    +0.000 A 
ATOM      9  C   UNL     1       0.564   8.604  21.764  0.00  0.00    +0.000 A 
ATOM     10  C   UNL     1       1.575   8.170  20.898  0.00  0.00    +0.000 A 
ATOM     11  C   UNL     1       1.605   8.633  19.565  0.00  0.00    +0.000 A 
ATOM     12  H   UNL     1       0.373  10.578  17.335  0.00  0.00    +0.000 HD
ENDBRANCH   2   3
BRANCH   1  13
ATOM     13  C   UNL     1       2.357   5.339  18.164  0.00  0.00    +0.000 C 
ATOM     14  O   UNL     1       1.624   5.361  17.175  0.00  0.00    +0.000 OA
BRANCH  13  15
ATOM     15  C   UNL     1       2.007   4.397  19.274  0.00  0.00    +0.000 A 
ATOM     16  C   UNL     1       1.253   3.228  19.098  0.00  0.00    +0.000 A 
ATOM     17  C   UNL     1       0.932   2.420  20.197  0.00  0.00    +0.000 A 
ATOM     18  C   UNL     1       1.397   2.754  21.468  0.00  0.00    +0.000 A 
ATOM     19 CL   UNL     1       0.999   1.760  22.815  0.00  0.00    +0.000 Cl
ATOM     20  C   UNL     1       2.187   3.885  21.651  0.00  0.00    +0.000 A 
ATOM     21  C   UNL     1       2.493   4.700  20.557  0.00  0.00    +0.000 A 
ENDBRANCH  13  15
ENDBRANCH   1  13
BRANCH   1  22
ATOM     22  S   UNL     1       5.138   5.360  18.196  0.00  0.00    +0.000 S 
BRANCH  22  27
ATOM     23  C   UNL     1       6.998   3.985  12.556  0.00  0.00    +0.000 C 
ATOM     24  C   UNL     1       6.467   4.399  13.897  0.00  0.00    +0.000 A 
ATOM     25  C   UNL     1       7.268   5.113  14.786  0.00  0.00    +0.000 A 
ATOM     26  C   UNL     1       6.795   5.429  16.064  0.00  0.00    +0.000 A 
ATOM     27  C   UNL     1       5.512   5.041  16.484  0.00  0.00    +0.000 A 
ATOM     28  C   UNL     1       4.698   4.353  15.583  0.00  0.00    +0.000 A 
ATOM     29  C   UNL     1       5.173   4.036  14.299  0.00  0.00    +0.000 A 
ENDBRANCH  22  27
ENDBRANCH   1  22
TORSDOF 5
ENDMDL
MODEL 5
REMARK VINA RESULT:      -7.2      2.587      4.804
REMARK  Name = 
REMARK  6 active torsions:
REMARK  status: ('A' for Active; 'I' for Inactive)
REMARK    1  A    between atoms: C_1  and  C_2
REMARK    2  A    between atoms: C_5  and  S_6
REMARK    3  A    between atoms: S_6  and  C_7
REMARK    4  A    between atoms: C_7  and  C_18
REMARK    5  A    between atoms: C_8  and  C_9
REMARK    6  A    between atoms: C_18  and  C_20
REMARK                            x       y       z     vdW  Elec       q    Type
REMARK                         _______ _______ _______ _____ _____    ______ ____
ROOT
ATOM      1  C   UNL     1       2.735   7.874  17.932  0.00  0.00    +0.000 C 
ATOM      2  C   UNL     1       3.848   8.017  17.183  0.00  0.00    +0.000 C 
ENDROOT
BRANCH   2   3
ATOM      3  C   UNL     1       5.049   7.240  17.195  0.00  0.00    +0.000 A 
ATOM      4  C   UNL     1       6.159   7.598  17.932  0.00  0.00    +0.000 A 
ATOM      5  N   UNL     1       7.125   6.650  17.725  0.00  0.00    +0.000 N 
ATOM      6  C   UNL     1       6.683   5.704  16.828  0.00  0.00    +0.000 A 
ATOM      7  C   UNL     1       7.334   4.567  16.333  0.00  0.00    +0.000 A 
ATOM      8  C   UNL     1       6.649   3.780  15.403  0.00  0.00    +0.000 A 
ATOM      9  C   UNL     1       5.374   4.135  14.970  0.00  0.00    +0.000 A 
ATOM     10  C   UNL     1       4.739   5.276  15.477  0.00  0.00    +0.000 A 
ATOM     11  C   UNL     1       5.389   6.068  16.448  0.00  0.00    +0.000 A 
ATOM     12  H   UNL     1       8.040   6.644  18.156  0.00  0.00    +0.000 HD
ENDBRANCH   2   3
BRANCH   1  13
ATOM     13  C   UNL     1       2.638   6.863  19.043  0.00  0.00    +0.000 C 
ATOM     14  O   UNL     1       2.282   7.204  20.171  0.00  0.00    +0.000 OA
BRANCH  13  15
ATOM     15  C   UNL     1       2.892   5.408  18.800  0.00  0.00    +0.000 A 
ATOM     16  C   UNL     1       2.149   4.623  17.907  0.00  0.00    +0.000 A 
ATOM     17  C   UNL     1       2.424   3.256  17.767  0.00  0.00    +0.000 A 
ATOM     18  C   UNL     1       3.466   2.677  18.489  0.00  0.00    +0.000 A 
ATOM     19 CL   UNL     1       3.800   0.998  18.316  0.00  0.00    +0.000 Cl
ATOM     20  C   UNL     1       4.244   3.453  19.343  0.00  0.00    +0.000 A 
ATOM     21  C   UNL     1       3.960   4.813  19.494  0.00  0.00    +0.000 A 
ENDBRANCH  13  15
ENDBRANCH   1  13
BRANCH   1  22
ATOM     22  S   UNL     1       1.343   8.865  17.609  0.00  0.00    +0.000 S 
BRANCH  22  27
ATOM     23  C   UNL     1       1.650  14.122  20.680  0.00  0.00    +0.000 C 
ATOM     24  C   UNL     1       1.645  12.784  20.003  0.00  0.00    +0.000 A 
ATOM     25  C   UNL     1       2.259  12.614  18.764  0.00  0.00    +0.000 A 
ATOM     26  C   UNL     1       2.185  11.384  18.101  0.00  0.00    +0.000 A 
ATOM     27  C   UNL     1       1.498  10.294  18.661  0.00  0.00    +0.000 A 
ATOM     28  C   UNL     1       0.910  10.453  19.917  0.00  0.00    +0.000 A 
ATOM     29  C   UNL     1       0.986  11.689  20.582  0.00  0.00    +0.000 A 
ENDBRANCH  22  27
ENDBRANCH   1  22
TORSDOF 5
ENDMDL
MODEL 6
REMARK VINA RESULT:      -7.1      6.575      9.745
REMARK  Name = 
REMARK  6 active torsions:
REMARK  status: ('A' for Active; 'I' for Inactive)
REMARK    1  A    between atoms: C_1  and  C_2
REMARK    2  A    between atoms: C_5  and  S_6
REMARK    3  A    between atoms: S_6  and  C_7
REMARK    4  A    between atoms: C_7  and  C_18
REMARK    5  A    between atoms: C_8  and  C_9
REMARK    6  A    between atoms: C_18  and  C_20
REMARK                            x       y       z     vdW  Elec       q    Type
REMARK                         _______ _______ _______ _____ _____    ______ ____
ROOT
ATOM      1  C   UNL     1      -1.787  13.243  20.579  0.00  0.00    +0.000 C 
ATOM      2  C   UNL     1      -1.410  14.294  19.823  0.00  0.00    +0.000 C 
ENDROOT
BRANCH   2   3
ATOM      3  C   UNL     1      -0.148  14.966  19.778  0.00  0.00    +0.000 A 
ATOM      4  C   UNL     1       0.038  16.233  20.291  0.00  0.00    +0.000 A 
ATOM      5  N   UNL     1       1.347  16.581  20.090  0.00  0.00    +0.000 N 
ATOM      6  C   UNL     1       2.008  15.582  19.411  0.00  0.00    +0.000 A 
ATOM      7  C   UNL     1       3.345  15.513  18.999  0.00  0.00    +0.000 A 
ATOM      8  C   UNL     1       3.751  14.373  18.299  0.00  0.00    +0.000 A 
ATOM      9  C   UNL     1       2.846  13.358  18.004  0.00  0.00    +0.000 A 
ATOM     10  C   UNL     1       1.512  13.444  18.424  0.00  0.00    +0.000 A 
ATOM     11  C   UNL     1       1.082  14.564  19.168  0.00  0.00    +0.000 A 
ATOM     12  H   UNL     1       1.773  17.449  20.383  0.00  0.00    +0.000 HD
ENDBRANCH   2   3
BRANCH   1  13
ATOM     13  C   UNL     1      -0.894  12.652  21.638  0.00  0.00    +0.000 C 
ATOM     14  O   UNL     1      -0.636  13.284  22.663  0.00  0.00    +0.000 OA
BRANCH  13  15
ATOM     15  C   UNL     1      -0.358  11.260  21.520  0.00  0.00    +0.000 A 
ATOM     16  C   UNL     1      -0.603  10.246  22.456  0.00  0.00    +0.000 A 
ATOM     17  C   UNL     1      -0.028   8.978  22.295  0.00  0.00    +0.000 A 
ATOM     18  C   UNL     1       0.761   8.707  21.178  0.00  0.00    +0.000 A 
ATOM     19 CL   UNL     1       1.466   7.149  20.984  0.00  0.00    +0.000 Cl
ATOM     20  C   UNL     1       0.974   9.689  20.215  0.00  0.00    +0.000 A 
ATOM     21  C   UNL     1       0.414  10.958  20.384  0.00  0.00    +0.000 A 
ENDBRANCH  13  15
ENDBRANCH   1  13
BRANCH   1  22
ATOM     22  S   UNL     1      -3.344  12.511  20.328  0.00  0.00    +0.000 S 
BRANCH  22  27
ATOM     23  C   UNL     1      -3.165  10.134  14.717  0.00  0.00    +0.000 C 
ATOM     24  C   UNL     1      -3.215  10.611  16.138  0.00  0.00    +0.000 A 
ATOM     25  C   UNL     1      -4.334  11.288  16.619  0.00  0.00    +0.000 A 
ATOM     26  C   UNL     1      -4.344  11.799  17.922  0.00  0.00    +0.000 A 
ATOM     27  C   UNL     1      -3.239  11.645  18.775  0.00  0.00    +0.000 A 
ATOM     28  C   UNL     1      -2.130  10.939  18.305  0.00  0.00    +0.000 A 
ATOM     29  C   UNL     1      -2.121  10.426  16.996  0.00  0.00    +0.000 A 
ENDBRANCH  22  27
ENDBRANCH   1  22
TORSDOF 5
ENDMDL
MODEL 7
REMARK VINA RESULT:      -7.1      5.133      8.974
REMARK  Name = 
REMARK  6 active torsions:
REMARK  status: ('A' for Active; 'I' for Inactive)
REMARK    1  A    between atoms: C_1  and  C_2
REMARK    2  A    between atoms: C_5  and  S_6
REMARK    3  A    between atoms: S_6  and  C_7
REMARK    4  A    between atoms: C_7  and  C_18
REMARK    5  A    between atoms: C_8  and  C_9
REMARK    6  A    between atoms: C_18  and  C_20
REMARK                            x       y       z     vdW  Elec       q    Type
REMARK                         _______ _______ _______ _____ _____    ______ ____
ROOT
ATOM      1  C   UNL     1      -0.733  10.937  19.958  0.00  0.00    +0.000 C 
ATOM      2  C   UNL     1      -1.570  10.240  19.161  0.00  0.00    +0.000 C 
ENDROOT
BRANCH   2   3
ATOM      3  C   UNL     1      -2.442  10.718  18.132  0.00  0.00    +0.000 A 
ATOM      4  C   UNL     1      -2.111  10.664  16.794  0.00  0.00    +0.000 A 
ATOM      5  N   UNL     1      -3.154  11.195  16.081  0.00  0.00    +0.000 N 
ATOM      6  C   UNL     1      -4.138  11.638  16.935  0.00  0.00    +0.000 A 
ATOM      7  C   UNL     1      -5.369  12.242  16.644  0.00  0.00    +0.000 A 
ATOM      8  C   UNL     1      -6.179  12.616  17.720  0.00  0.00    +0.000 A 
ATOM      9  C   UNL     1      -5.759  12.414  19.032  0.00  0.00    +0.000 A 
ATOM     10  C   UNL     1      -4.525  11.809  19.303  0.00  0.00    +0.000 A 
ATOM     11  C   UNL     1      -3.703  11.383  18.237  0.00  0.00    +0.000 A 
ATOM     12  H   UNL     1      -3.196  11.267  15.074  0.00  0.00    +0.000 HD
ENDBRANCH   2   3
BRANCH   1  13
ATOM     13  C   UNL     1      -0.676  12.442  19.943  0.00  0.00    +0.000 C 
ATOM     14  O   UNL     1      -1.536  13.107  20.520  0.00  0.00    +0.000 OA
BRANCH  13  15
ATOM     15  C   UNL     1       0.461  13.173  19.300  0.00  0.00    +0.000 A 
ATOM     16  C   UNL     1       1.531  12.541  18.652  0.00  0.00    +0.000 A 
ATOM     17  C   UNL     1       2.579  13.298  18.111  0.00  0.00    +0.000 A 
ATOM     18  C   UNL     1       2.542  14.690  18.179  0.00  0.00    +0.000 A 
ATOM     19 CL   UNL     1       3.831  15.616  17.514  0.00  0.00    +0.000 Cl
ATOM     20  C   UNL     1       1.462  15.334  18.776  0.00  0.00    +0.000 A 
ATOM     21  C   UNL     1       0.425  14.579  19.330  0.00  0.00    +0.000 A 
ENDBRANCH  13  15
ENDBRANCH   1  13
BRANCH   1  22
ATOM     22  S   UNL     1       0.341  10.092  21.032  0.00  0.00    +0.000 S 
BRANCH  22  27
ATOM     23  C   UNL     1       3.147   5.799  17.737  0.00  0.00    +0.000 C 
ATOM     24  C   UNL     1       2.553   6.919  18.539  0.00  0.00    +0.000 A 
ATOM     25  C   UNL     1       2.295   6.757  19.899  0.00  0.00    +0.000 A 
ATOM     26  C   UNL     1       1.669   7.776  20.625  0.00  0.00    +0.000 A 
ATOM     27  C   UNL     1       1.288   8.981  20.012  0.00  0.00    +0.000 A 
ATOM     28  C   UNL     1       1.574   9.156  18.657  0.00  0.00    +0.000 A 
ATOM     29  C   UNL     1       2.204   8.132  17.928  0.00  0.00    +0.000 A 
ENDBRANCH  22  27
ENDBRANCH   1  22
TORSDOF 5
ENDMDL
MODEL 8
REMARK VINA RESULT:      -7.1      5.001      8.688
REMARK  Name = 
REMARK  6 active torsions:
REMARK  status: ('A' for Active; 'I' for Inactive)
REMARK    1  A    between atoms: C_1  and  C_2
REMARK    2  A    between atoms: C_5  and  S_6
REMARK    3  A    between atoms: S_6  and  C_7
REMARK    4  A    between atoms: C_7  and  C_18
REMARK    5  A    between atoms: C_8  and  C_9
REMARK    6  A    between atoms: C_18  and  C_20
REMARK                            x       y       z     vdW  Elec       q    Type
REMARK                         _______ _______ _______ _____ _____    ______ ____
ROOT
ATOM      1  C   UNL     1      -0.348  11.723  19.637  0.00  0.00    +0.000 C 
ATOM      2  C   UNL     1      -0.111  12.881  18.987  0.00  0.00    +0.000 C 
ENDROOT
BRANCH   2   3
ATOM      3  C   UNL     1       1.139  13.517  18.704  0.00  0.00    +0.000 A 
ATOM      4  C   UNL     1       2.112  12.929  17.923  0.00  0.00    +0.000 A 
ATOM      5  N   UNL     1       3.171  13.794  17.849  0.00  0.00    +0.000 N 
ATOM      6  C   UNL     1       2.927  14.915  18.609  0.00  0.00    +0.000 A 
ATOM      7  C   UNL     1       3.727  16.045  18.821  0.00  0.00    +0.000 A 
ATOM      8  C   UNL     1       3.234  17.041  19.668  0.00  0.00    +0.000 A 
ATOM      9  C   UNL     1       2.000  16.896  20.296  0.00  0.00    +0.000 A 
ATOM     10  C   UNL     1       1.214  15.759  20.073  0.00  0.00    +0.000 A 
ATOM     11  C   UNL     1       1.667  14.754  19.190  0.00  0.00    +0.000 A 
ATOM     12  H   UNL     1       4.021  13.634  17.325  0.00  0.00    +0.000 HD
ENDBRANCH   2   3
BRANCH   1  13
ATOM     13  C   UNL     1       0.751  10.930  20.295  0.00  0.00    +0.000 C 
ATOM     14  O   UNL     1       1.181  11.256  21.402  0.00  0.00    +0.000 OA
BRANCH  13  15
ATOM     15  C   UNL     1       1.299   9.686  19.670  0.00  0.00    +0.000 A 
ATOM     16  C   UNL     1       1.625   9.572  18.311  0.00  0.00    +0.000 A 
ATOM     17  C   UNL     1       2.094   8.357  17.794  0.00  0.00    +0.000 A 
ATOM     18  C   UNL     1       2.279   7.264  18.639  0.00  0.00    +0.000 A 
ATOM     19 CL   UNL     1       2.854   5.774  18.000  0.00  0.00    +0.000 Cl
ATOM     20  C   UNL     1       2.006   7.376  19.999  0.00  0.00    +0.000 A 
ATOM     21  C   UNL     1       1.522   8.583  20.512  0.00  0.00    +0.000 A 
ENDBRANCH  13  15
ENDBRANCH   1  13
BRANCH   1  22
ATOM     22  S   UNL     1      -1.965  11.088  19.712  0.00  0.00    +0.000 S 
BRANCH  22  27
ATOM     23  C   UNL     1      -3.882   9.960  14.036  0.00  0.00    +0.000 C 
ATOM     24  C   UNL     1      -3.377  10.342  15.396  0.00  0.00    +0.000 A 
ATOM     25  C   UNL     1      -2.245   9.730  15.929  0.00  0.00    +0.000 A 
ATOM     26  C   UNL     1      -1.824  10.034  17.229  0.00  0.00    +0.000 A 
ATOM     27  C   UNL     1      -2.523  10.956  18.025  0.00  0.00    +0.000 A 
ATOM     28  C   UNL     1      -3.640  11.592  17.481  0.00  0.00    +0.000 A 
ATOM     29  C   UNL     1      -4.061  11.287  16.175  0.00  0.00    +0.000 A 
ENDBRANCH  22  27
ENDBRANCH   1  22
TORSDOF 5
ENDMDL
MODEL 9
REMARK VINA RESULT:      -7.1      4.834      8.083
REMARK  Name = 
REMARK  6 active torsions:
REMARK  status: ('A' for Active; 'I' for Inactive)
REMARK    1  A    between atoms: C_1  and  C_2
REMARK    2  A    between atoms: C_5  and  S_6
REMARK    3  A    between atoms: S_6  and  C_7
REMARK    4  A    between atoms: C_7  and  C_18
REMARK    5  A    between atoms: C_8  and  C_9
REMARK    6  A    between atoms: C_18  and  C_20
REMARK                            x       y       z     vdW  Elec       q    Type
REMARK                         _______ _______ _______ _____ _____    ______ ____
ROOT
ATOM      1  C   UNL     1       0.483  12.010  20.375  0.00  0.00    +0.000 C 
ATOM      2  C   UNL     1      -0.429  12.782  19.749  0.00  0.00    +0.000 C 
ENDROOT
BRANCH   2   3
ATOM      3  C   UNL     1      -1.767  12.460  19.356  0.00  0.00    +0.000 A 
ATOM      4  C   UNL     1      -2.873  12.912  20.045  0.00  0.00    +0.000 A 
ATOM      5  N   UNL     1      -3.988  12.429  19.412  0.00  0.00    +0.000 N 
ATOM      6  C   UNL     1      -3.627  11.632  18.351  0.00  0.00    +0.000 A 
ATOM      7  C   UNL     1      -4.433  10.941  17.436  0.00  0.00    +0.000 A 
ATOM      8  C   UNL     1      -3.794  10.178  16.454  0.00  0.00    +0.000 A 
ATOM      9  C   UNL     1      -2.406  10.094  16.409  0.00  0.00    +0.000 A 
ATOM     10  C   UNL     1      -1.616  10.791  17.332  0.00  0.00    +0.000 A 
ATOM     11  C   UNL     1      -2.231  11.602  18.310  0.00  0.00    +0.000 A 
ATOM     12  H   UNL     1      -4.942  12.617  19.687  0.00  0.00    +0.000 HD
ENDBRANCH   2   3
BRANCH   1  13
ATOM     13  C   UNL     1       0.234  10.555  20.675  0.00  0.00    +0.000 C 
ATOM     14  O   UNL     1      -0.651  10.220  21.462  0.00  0.00    +0.000 OA
BRANCH  13  15
ATOM     15  C   UNL     1       0.995   9.472  19.976  0.00  0.00    +0.000 A 
ATOM     16  C   UNL     1       1.415   8.287  20.595  0.00  0.00    +0.000 A 
ATOM     17  C   UNL     1       2.161   7.339  19.881  0.00  0.00    +0.000 A 
ATOM     18  C   UNL     1       2.457   7.554  18.536  0.00  0.00    +0.000 A 
ATOM     19 CL   UNL     1       3.374   6.390  17.663  0.00  0.00    +0.000 Cl
ATOM     20  C   UNL     1       2.006   8.704  17.894  0.00  0.00    +0.000 A 
ATOM     21  C   UNL     1       1.275   9.656  18.610  0.00  0.00    +0.000 A 
ENDBRANCH  13  15
ENDBRANCH   1  13
BRANCH   1  22
ATOM     22  S   UNL     1       1.996  12.697  20.882  0.00  0.00    +0.000 S 
BRANCH  22  27
ATOM     23  C   UNL     1       2.644  17.259  16.890  0.00  0.00    +0.000 C 
ATOM     24  C   UNL     1       2.555  16.194  17.943  0.00  0.00    +0.000 A 
ATOM     25  C   UNL     1       3.131  14.943  17.736  0.00  0.00    +0.000 A 
ATOM     26  C   UNL     1       2.979  13.929  18.688  0.00  0.00    +0.000 A 
ATOM     27  C   UNL     1       2.249  14.141  19.869  0.00  0.00    +0.000 A 
ATOM     28  C   UNL     1       1.698  15.404  20.092  0.00  0.00    +0.000 A 
ATOM     29  C   UNL     1       1.852  16.422  19.136  0.00  0.00    +0.000 A 
ENDBRANCH  22  27
ENDBRANCH   1  22
TORSDOF 5
ENDMDL
