MODEL 1
REMARK VINA RESULT:      -8.5      0.000      0.000
REMARK  Name = 
REMARK  5 active torsions:
REMARK  status: ('A' for Active; 'I' for Inactive)
REMARK    1  A    between atoms: C_2  and  C_3
REMARK    2  A    between atoms: C_3  and  O_4
REMARK    3  A    between atoms: O_4  and  C_5
REMARK    4  A    between atoms: C_5  and  C_7
REMARK    5  A    between atoms: C_7  and  C_8
REMARK                            x       y       z     vdW  Elec       q    Type
REMARK                         _______ _______ _______ _____ _____    ______ ____
ROOT
ATOM      1  C   UNL     1       2.625   5.201  18.146  0.00  0.00    +0.000 C 
ATOM      2  O   UNL     1       1.494   5.173  17.672  0.00  0.00    +0.000 OA
ENDROOT
BRANCH   1   3
ATOM      3  C   UNL     1       3.581   3.995  18.169  0.00  0.00    +0.000 C 
ATOM      4  C   UNL     1       3.980   3.613  19.616  0.00  0.00    +0.000 C 
ATOM      5  C   UNL     1       4.376   2.139  19.542  0.00  0.00    +0.000 C 
ATOM      6  C   UNL     1       3.515   1.544  18.435  0.00  0.00    +0.000 C 
ATOM      7  C   UNL     1       2.773   2.721  17.804  0.00  0.00    +0.000 C 
BRANCH   3   8
ATOM      8  C   UNL     1       4.753   4.224  17.195  0.00  0.00    +0.000 A 
ATOM      9  C   UNL     1       4.615   4.126  15.797  0.00  0.00    +0.000 A 
ATOM     10  C   UNL     1       5.694   4.361  14.940  0.00  0.00    +0.000 A 
ATOM     11  C   UNL     1       6.934   4.680  15.472  0.00  0.00    +0.000 A 
ATOM     12  F   UNL     1       7.967   4.905  14.649  0.00  0.00    +0.000 F 
ATOM     13  C   UNL     1       7.114   4.765  16.844  0.00  0.00    +0.000 A 
ATOM     14  C   UNL     1       6.032   4.539  17.699  0.00  0.00    +0.000 A 
ENDBRANCH   3   8
ENDBRANCH   1   3
BRANCH   1  15
ATOM     15  O   UNL     1       3.213   6.329  18.639  0.00  0.00    +0.000 OA
BRANCH  15  16
ATOM     16  C   UNL     1       2.406   7.508  18.533  0.00  0.00    +0.000 C 
BRANCH  16  18
ATOM     17  O   UNL     1       1.781   7.131  20.826  0.00  0.00    +0.000 OA
ATOM     18  C   UNL     1       1.728   7.896  19.860  0.00  0.00    +0.000 C 
ATOM     19  N   UNL     1       1.123   9.145  19.880  0.00  0.00    +0.000 N 
ATOM     20  C   UNL     1       1.035  10.099  18.757  0.00  0.00    +0.000 C 
ATOM     21  C   UNL     1       0.503  11.424  19.321  0.00  0.00    +0.000 C 
ATOM     22  C   UNL     1       0.029  11.009  20.676  0.00  0.00    +0.000 A 
ATOM     23  C   UNL     1      -0.659  11.784  21.599  0.00  0.00    +0.000 A 
ATOM     24  C   UNL     1      -0.964  11.222  22.839  0.00  0.00    +0.000 A 
ATOM     25  C   UNL     1      -0.575   9.908  23.136  0.00  0.00    +0.000 A 
ATOM     26  C   UNL     1       0.128   9.140  22.202  0.00  0.00    +0.000 A 
ATOM     27  C   UNL     1       0.427   9.703  20.973  0.00  0.00    +0.000 A 
ENDBRANCH  16  18
ENDBRANCH  15  16
ENDBRANCH   1  15
TORSDOF 5
ENDMDL
MODEL 2
REMARK VINA RESULT:      -8.5      2.055      3.434
REMARK  Name = 
REMARK  5 active torsions:
REMARK  status: ('A' for Active; 'I' for Inactive)
REMARK    1  A    between atoms: C_2  and  C_3
REMARK    2  A    between atoms: C_3  and  O_4
REMARK    3  A    between atoms: O_4  and  C_5
REMARK    4  A    between atoms: C_5  and  C_7
REMARK    5  A    between atoms: C_7  and  C_8
REMARK                            x       y       z     vdW  Elec       q    Type
REMARK                         _______ _______ _______ _____ _____    ______ ____
ROOT
ATOM      1  C   UNL     1       4.912   6.725  16.695  0.00  0.00    +0.000 C 
ATOM      2  O   UNL     1       4.888   6.902  15.482  0.00  0.00    +0.000 OA
ENDROOT
BRANCH   1   3
ATOM      3  C   UNL     1       5.672   5.579  17.386  0.00  0.00    +0.000 C 
ATOM      4  C   UNL     1       6.809   5.029  16.490  0.00  0.00    +0.000 C 
ATOM      5  C   UNL     1       7.806   4.394  17.460  0.00  0.00    +0.000 C 
ATOM      6  C   UNL     1       7.699   5.212  18.741  0.00  0.00    +0.000 C 
ATOM      7  C   UNL     1       6.540   6.181  18.524  0.00  0.00    +0.000 C 
BRANCH   3   8
ATOM      8  C   UNL     1       4.680   4.527  17.922  0.00  0.00    +0.000 A 
ATOM      9  C   UNL     1       4.569   4.209  19.289  0.00  0.00    +0.000 A 
ATOM     10  C   UNL     1       3.642   3.265  19.743  0.00  0.00    +0.000 A 
ATOM     11  C   UNL     1       2.828   2.612  18.833  0.00  0.00    +0.000 A 
ATOM     12  F   UNL     1       1.942   1.707  19.270  0.00  0.00    +0.000 F 
ATOM     13  C   UNL     1       2.924   2.882  17.476  0.00  0.00    +0.000 A 
ATOM     14  C   UNL     1       3.843   3.833  17.024  0.00  0.00    +0.000 A 
ENDBRANCH   3   8
ENDBRANCH   1   3
BRANCH   1  15
ATOM     15  O   UNL     1       4.338   7.573  17.597  0.00  0.00    +0.000 OA
BRANCH  15  16
ATOM     16  C   UNL     1       2.905   7.572  17.575  0.00  0.00    +0.000 C 
BRANCH  16  18
ATOM     17  O   UNL     1       2.473   6.893  19.843  0.00  0.00    +0.000 OA
ATOM     18  C   UNL     1       2.280   7.744  18.972  0.00  0.00    +0.000 C 
ATOM     19  N   UNL     1       1.555   8.912  19.164  0.00  0.00    +0.000 N 
ATOM     20  C   UNL     1       1.297   9.964  18.159  0.00  0.00    +0.000 C 
ATOM     21  C   UNL     1       0.673  11.157  18.895  0.00  0.00    +0.000 C 
ATOM     22  C   UNL     1       0.333  10.555  20.219  0.00  0.00    +0.000 A 
ATOM     23  C   UNL     1      -0.367  11.150  21.259  0.00  0.00    +0.000 A 
ATOM     24  C   UNL     1      -0.531  10.432  22.444  0.00  0.00    +0.000 A 
ATOM     25  C   UNL     1       0.007   9.143  22.572  0.00  0.00    +0.000 A 
ATOM     26  C   UNL     1       0.720   8.557  21.521  0.00  0.00    +0.000 A 
ATOM     27  C   UNL     1       0.880   9.275  20.348  0.00  0.00    +0.000 A 
ENDBRANCH  16  18
ENDBRANCH  15  16
ENDBRANCH   1  15
TORSDOF 5
ENDMDL
MODEL 3
REMARK VINA RESULT:      -8.3      1.598      2.370
REMARK  Name = 
REMARK  5 active torsions:
REMARK  status: ('A' for Active; 'I' for Inactive)
REMARK    1  A    between atoms: C_2  and  C_3
REMARK    2  A    between atoms: C_3  and  O_4
REMARK    3  A    between atoms: O_4  and  C_5
REMARK    4  A    between atoms: C_5  and  C_7
REMARK    5  A    between atoms: C_7  and  C_8
REMARK                            x       y       z     vdW  Elec       q    Type
REMARK                         _______ _______ _______ _____ _____    ______ ____
ROOT
ATOM      1  C   UNL     1       2.312   5.449  19.929  0.00  0.00    +0.000 C 
ATOM      2  O   UNL     1       2.161   5.198  21.119  0.00  0.00    +0.000 OA
ENDROOT
BRANCH   1   3
ATOM      3  C   UNL     1       3.041   4.525  18.937  0.00  0.00    +0.000 C 
ATOM      4  C   UNL     1       3.239   3.105  19.522  0.00  0.00    +0.000 C 
ATOM      5  C   UNL     1       3.380   2.191  18.306  0.00  0.00    +0.000 C 
ATOM      6  C   UNL     1       2.530   2.834  17.216  0.00  0.00    +0.000 C 
ATOM      7  C   UNL     1       2.061   4.170  17.786  0.00  0.00    +0.000 C 
BRANCH   3   8
ATOM      8  C   UNL     1       4.316   5.210  18.408  0.00  0.00    +0.000 A 
ATOM      9  C   UNL     1       4.355   5.916  17.190  0.00  0.00    +0.000 A 
ATOM     10  C   UNL     1       5.524   6.544  16.750  0.00  0.00    +0.000 A 
ATOM     11  C   UNL     1       6.677   6.457  17.513  0.00  0.00    +0.000 A 
ATOM     12  F   UNL     1       7.797   7.059  17.089  0.00  0.00    +0.000 F 
ATOM     13  C   UNL     1       6.684   5.752  18.707  0.00  0.00    +0.000 A 
ATOM     14  C   UNL     1       5.512   5.132  19.151  0.00  0.00    +0.000 A 
ENDBRANCH   3   8
ENDBRANCH   1   3
BRANCH   1  15
ATOM     15  O   UNL     1       1.778   6.542  19.310  0.00  0.00    +0.000 OA
BRANCH  15  16
ATOM     16  C   UNL     1       2.300   7.793  19.774  0.00  0.00    +0.000 C 
BRANCH  16  18
ATOM     17  O   UNL     1       0.961   9.385  18.564  0.00  0.00    +0.000 OA
ATOM     18  C   UNL     1       1.285   8.946  19.670  0.00  0.00    +0.000 C 
ATOM     19  N   UNL     1       0.758   9.391  20.875  0.00  0.00    +0.000 N 
ATOM     20  C   UNL     1       1.106   8.899  22.223  0.00  0.00    +0.000 C 
ATOM     21  C   UNL     1       0.099   9.509  23.208  0.00  0.00    +0.000 C 
ATOM     22  C   UNL     1      -0.551  10.559  22.367  0.00  0.00    +0.000 A 
ATOM     23  C   UNL     1      -1.473  11.512  22.777  0.00  0.00    +0.000 A 
ATOM     24  C   UNL     1      -2.006  12.373  21.817  0.00  0.00    +0.000 A 
ATOM     25  C   UNL     1      -1.616  12.266  20.474  0.00  0.00    +0.000 A 
ATOM     26  C   UNL     1      -0.694  11.295  20.071  0.00  0.00    +0.000 A 
ATOM     27  C   UNL     1      -0.169  10.442  21.028  0.00  0.00    +0.000 A 
ENDBRANCH  16  18
ENDBRANCH  15  16
ENDBRANCH   1  15
TORSDOF 5
ENDMDL
MODEL 4
REMARK VINA RESULT:      -8.3      1.715      2.700
REMARK  Name = 
REMARK  5 active torsions:
REMARK  status: ('A' for Active; 'I' for Inactive)
REMARK    1  A    between atoms: C_2  and  C_3
REMARK    2  A    between atoms: C_3  and  O_4
REMARK    3  A    between atoms: O_4  and  C_5
REMARK    4  A    between atoms: C_5  and  C_7
REMARK    5  A    between atoms: C_7  and  C_8
REMARK                            x       y       z     vdW  Elec       q    Type
REMARK                         _______ _______ _______ _____ _____    ______ ____
ROOT
ATOM      1  C   UNL     1       2.452   5.521  20.075  0.00  0.00    +0.000 C 
ATOM      2  O   UNL     1       2.097   5.082  21.163  0.00  0.00    +0.000 OA
ENDROOT
BRANCH   1   3
ATOM      3  C   UNL     1       3.119   4.673  18.977  0.00  0.00    +0.000 C 
ATOM      4  C   UNL     1       3.253   3.191  19.406  0.00  0.00    +0.000 C 
ATOM      5  C   UNL     1       3.330   2.405  18.097  0.00  0.00    +0.000 C 
ATOM      6  C   UNL     1       2.499   3.201  17.098  0.00  0.00    +0.000 C 
ATOM      7  C   UNL     1       2.107   4.491  17.814  0.00  0.00    +0.000 C 
BRANCH   3   8
ATOM      8  C   UNL     1       4.420   5.346  18.499  0.00  0.00    +0.000 A 
ATOM      9  C   UNL     1       5.652   5.185  19.161  0.00  0.00    +0.000 A 
ATOM     10  C   UNL     1       6.819   5.793  18.688  0.00  0.00    +0.000 A 
ATOM     11  C   UNL     1       6.765   6.589  17.554  0.00  0.00    +0.000 A 
ATOM     12  F   UNL     1       7.883   7.172  17.103  0.00  0.00    +0.000 F 
ATOM     13  C   UNL     1       5.566   6.790  16.887  0.00  0.00    +0.000 A 
ATOM     14  C   UNL     1       4.402   6.173  17.356  0.00  0.00    +0.000 A 
ENDBRANCH   3   8
ENDBRANCH   1   3
BRANCH   1  15
ATOM     15  O   UNL     1       2.225   6.802  19.662  0.00  0.00    +0.000 OA
BRANCH  15  16
ATOM     16  C   UNL     1       1.820   7.693  20.709  0.00  0.00    +0.000 C 
BRANCH  16  18
ATOM     17  O   UNL     1       1.128   9.227  18.989  0.00  0.00    +0.000 OA
ATOM     18  C   UNL     1       1.084   8.941  20.188  0.00  0.00    +0.000 C 
ATOM     19  N   UNL     1       0.363   9.651  21.137  0.00  0.00    +0.000 N 
ATOM     20  C   UNL     1       0.273   9.350  22.580  0.00  0.00    +0.000 C 
ATOM     21  C   UNL     1      -0.822  10.251  23.169  0.00  0.00    +0.000 C 
ATOM     22  C   UNL     1      -1.046  11.224  22.058  0.00  0.00    +0.000 A 
ATOM     23  C   UNL     1      -1.856  12.351  22.077  0.00  0.00    +0.000 A 
ATOM     24  C   UNL     1      -1.973  13.103  20.908  0.00  0.00    +0.000 A 
ATOM     25  C   UNL     1      -1.288  12.718  19.746  0.00  0.00    +0.000 A 
ATOM     26  C   UNL     1      -0.482  11.574  19.735  0.00  0.00    +0.000 A 
ATOM     27  C   UNL     1      -0.371  10.832  20.899  0.00  0.00    +0.000 A 
ENDBRANCH  16  18
ENDBRANCH  15  16
ENDBRANCH   1  15
TORSDOF 5
ENDMDL
MODEL 5
REMARK VINA RESULT:      -8.3      1.675      1.849
REMARK  Name = 
REMARK  5 active torsions:
REMARK  status: ('A' for Active; 'I' for Inactive)
REMARK    1  A    between atoms: C_2  and  C_3
REMARK    2  A    between atoms: C_3  and  O_4
REMARK    3  A    between atoms: O_4  and  C_5
REMARK    4  A    between atoms: C_5  and  C_7
REMARK    5  A    between atoms: C_7  and  C_8
REMARK                            x       y       z     vdW  Elec       q    Type
REMARK                         _______ _______ _______ _____ _____    ______ ____
ROOT
ATOM      1  C   UNL     1       2.372   5.495  19.969  0.00  0.00    +0.000 C 
ATOM      2  O   UNL     1       1.423   5.120  20.647  0.00  0.00    +0.000 OA
ENDROOT
BRANCH   1   3
ATOM      3  C   UNL     1       3.091   4.619  18.928  0.00  0.00    +0.000 C 
ATOM      4  C   UNL     1       3.288   3.171  19.442  0.00  0.00    +0.000 C 
ATOM      5  C   UNL     1       3.417   2.317  18.181  0.00  0.00    +0.000 C 
ATOM      6  C   UNL     1       2.563   3.016  17.130  0.00  0.00    +0.000 C 
ATOM      7  C   UNL     1       2.102   4.324  17.768  0.00  0.00    +0.000 C 
BRANCH   3   8
ATOM      8  C   UNL     1       4.366   5.324  18.424  0.00  0.00    +0.000 A 
ATOM      9  C   UNL     1       4.387   6.132  17.271  0.00  0.00    +0.000 A 
ATOM     10  C   UNL     1       5.556   6.775  16.854  0.00  0.00    +0.000 A 
ATOM     11  C   UNL     1       6.727   6.603  17.575  0.00  0.00    +0.000 A 
ATOM     12  F   UNL     1       7.847   7.220  17.174  0.00  0.00    +0.000 F 
ATOM     13  C   UNL     1       6.751   5.798  18.704  0.00  0.00    +0.000 A 
ATOM     14  C   UNL     1       5.579   5.163  19.125  0.00  0.00    +0.000 A 
ENDBRANCH   3   8
ENDBRANCH   1   3
BRANCH   1  15
ATOM     15  O   UNL     1       2.862   6.769  19.988  0.00  0.00    +0.000 OA
BRANCH  15  16
ATOM     16  C   UNL     1       1.955   7.755  19.479  0.00  0.00    +0.000 C 
BRANCH  16  18
ATOM     17  O   UNL     1       1.442   8.272  21.772  0.00  0.00    +0.000 OA
ATOM     18  C   UNL     1       1.249   8.556  20.588  0.00  0.00    +0.000 C 
ATOM     19  N   UNL     1       0.453   9.607  20.154  0.00  0.00    +0.000 N 
ATOM     20  C   UNL     1       0.193   9.994  18.753  0.00  0.00    +0.000 C 
ATOM     21  C   UNL     1      -0.533  11.346  18.777  0.00  0.00    +0.000 C 
ATOM     22  C   UNL     1      -0.909  11.464  20.218  0.00  0.00    +0.000 A 
ATOM     23  C   UNL     1      -1.694  12.447  20.805  0.00  0.00    +0.000 A 
ATOM     24  C   UNL     1      -1.880  12.408  22.187  0.00  0.00    +0.000 A 
ATOM     25  C   UNL     1      -1.281  11.399  22.955  0.00  0.00    +0.000 A 
ATOM     26  C   UNL     1      -0.484  10.420  22.354  0.00  0.00    +0.000 A 
ATOM     27  C   UNL     1      -0.301  10.464  20.982  0.00  0.00    +0.000 A 
ENDBRANCH  16  18
ENDBRANCH  15  16
ENDBRANCH   1  15
TORSDOF 5
ENDMDL
MODEL 6
REMARK VINA RESULT:      -8.3      0.898      2.014
REMARK  Name = 
REMARK  5 active torsions:
REMARK  status: ('A' for Active; 'I' for Inactive)
REMARK    1  A    between atoms: C_2  and  C_3
REMARK    2  A    between atoms: C_3  and  O_4
REMARK    3  A    between atoms: O_4  and  C_5
REMARK    4  A    between atoms: C_5  and  C_7
REMARK    5  A    between atoms: C_7  and  C_8
REMARK                            x       y       z     vdW  Elec       q    Type
REMARK                         _______ _______ _______ _____ _____    ______ ____
ROOT
ATOM      1  C   UNL     1       2.443   4.962  17.911  0.00  0.00    +0.000 C 
ATOM      2  O   UNL     1       1.270   4.747  17.625  0.00  0.00    +0.000 OA
ENDROOT
BRANCH   1   3
ATOM      3  C   UNL     1       3.504   3.861  18.093  0.00  0.00    +0.000 C 
ATOM      4  C   UNL     1       3.809   3.608  19.590  0.00  0.00    +0.000 C 
ATOM      5  C   UNL     1       4.348   2.179  19.649  0.00  0.00    +0.000 C 
ATOM      6  C   UNL     1       3.646   1.437  18.518  0.00  0.00    +0.000 C 
ATOM      7  C   UNL     1       2.855   2.493  17.751  0.00  0.00    +0.000 C 
BRANCH   3   8
ATOM      8  C   UNL     1       4.729   4.148  17.204  0.00  0.00    +0.000 A 
ATOM      9  C   UNL     1       5.977   4.541  17.726  0.00  0.00    +0.000 A 
ATOM     10  C   UNL     1       7.074   4.773  16.891  0.00  0.00    +0.000 A 
ATOM     11  C   UNL     1       6.934   4.634  15.520  0.00  0.00    +0.000 A 
ATOM     12  F   UNL     1       7.987   4.857  14.721  0.00  0.00    +0.000 F 
ATOM     13  C   UNL     1       5.716   4.270  14.967  0.00  0.00    +0.000 A 
ATOM     14  C   UNL     1       4.621   4.029  15.803  0.00  0.00    +0.000 A 
ENDBRANCH   3   8
ENDBRANCH   1   3
BRANCH   1  15
ATOM     15  O   UNL     1       2.980   6.211  18.021  0.00  0.00    +0.000 OA
BRANCH  15  16
ATOM     16  C   UNL     1       2.557   6.934  19.183  0.00  0.00    +0.000 C 
BRANCH  16  18
ATOM     17  O   UNL     1       1.990   8.751  17.712  0.00  0.00    +0.000 OA
ATOM     18  C   UNL     1       1.894   8.282  18.848  0.00  0.00    +0.000 C 
ATOM     19  N   UNL     1       1.174   8.869  19.880  0.00  0.00    +0.000 N 
ATOM     20  C   UNL     1       1.023   8.349  21.254  0.00  0.00    +0.000 C 
ATOM     21  C   UNL     1      -0.049   9.199  21.950  0.00  0.00    +0.000 C 
ATOM     22  C   UNL     1      -0.194  10.344  21.002  0.00  0.00    +0.000 A 
ATOM     23  C   UNL     1      -0.954  11.492  21.179  0.00  0.00    +0.000 A 
ATOM     24  C   UNL     1      -0.998  12.423  20.141  0.00  0.00    +0.000 A 
ATOM     25  C   UNL     1      -0.293  12.192  18.951  0.00  0.00    +0.000 A 
ATOM     26  C   UNL     1       0.461  11.027  18.779  0.00  0.00    +0.000 A 
ATOM     27  C   UNL     1       0.501  10.106  19.813  0.00  0.00    +0.000 A 
ENDBRANCH  16  18
ENDBRANCH  15  16
ENDBRANCH   1  15
TORSDOF 5
ENDMDL
MODEL 7
REMARK VINA RESULT:      -8.3      1.963      3.250
REMARK  Name = 
REMARK  5 active torsions:
REMARK  status: ('A' for Active; 'I' for Inactive)
REMARK    1  A    between atoms: C_2  and  C_3
REMARK    2  A    between atoms: C_3  and  O_4
REMARK    3  A    between atoms: O_4  and  C_5
REMARK    4  A    between atoms: C_5  and  C_7
REMARK    5  A    between atoms: C_7  and  C_8
REMARK                            x       y       z     vdW  Elec       q    Type
REMARK                         _______ _______ _______ _____ _____    ______ ____
ROOT
ATOM      1  C   UNL     1       4.408   6.841  16.881  0.00  0.00    +0.000 C 
ATOM      2  O   UNL     1       4.310   7.454  15.823  0.00  0.00    +0.000 OA
ENDROOT
BRANCH   1   3
ATOM      3  C   UNL     1       5.174   5.515  17.042  0.00  0.00    +0.000 C 
ATOM      4  C   UNL     1       5.854   5.086  15.719  0.00  0.00    +0.000 C 
ATOM      5  C   UNL     1       7.010   4.180  16.143  0.00  0.00    +0.000 C 
ATOM      6  C   UNL     1       7.457   4.704  17.502  0.00  0.00    +0.000 C 
ATOM      7  C   UNL     1       6.449   5.785  17.885  0.00  0.00    +0.000 C 
BRANCH   3   8
ATOM      8  C   UNL     1       4.271   4.454  17.700  0.00  0.00    +0.000 A 
ATOM      9  C   UNL     1       3.300   3.727  16.984  0.00  0.00    +0.000 A 
ATOM     10  C   UNL     1       2.512   2.755  17.608  0.00  0.00    +0.000 A 
ATOM     11  C   UNL     1       2.670   2.511  18.963  0.00  0.00    +0.000 A 
ATOM     12  F   UNL     1       1.913   1.580  19.559  0.00  0.00    +0.000 F 
ATOM     13  C   UNL     1       3.600   3.221  19.706  0.00  0.00    +0.000 A 
ATOM     14  C   UNL     1       4.395   4.186  19.079  0.00  0.00    +0.000 A 
ENDBRANCH   3   8
ENDBRANCH   1   3
BRANCH   1  15
ATOM     15  O   UNL     1       3.923   7.298  18.071  0.00  0.00    +0.000 OA
BRANCH  15  16
ATOM     16  C   UNL     1       2.573   7.776  18.011  0.00  0.00    +0.000 C 
BRANCH  16  18
ATOM     17  O   UNL     1       2.102   7.119  20.277  0.00  0.00    +0.000 OA
ATOM     18  C   UNL     1       1.939   7.970  19.400  0.00  0.00    +0.000 C 
ATOM     19  N   UNL     1       1.241   9.156  19.580  0.00  0.00    +0.000 N 
ATOM     20  C   UNL     1       1.020  10.209  18.568  0.00  0.00    +0.000 C 
ATOM     21  C   UNL     1       0.418  11.422  19.292  0.00  0.00    +0.000 C 
ATOM     22  C   UNL     1       0.051  10.834  20.616  0.00  0.00    +0.000 A 
ATOM     23  C   UNL     1      -0.644  11.452  21.646  0.00  0.00    +0.000 A 
ATOM     24  C   UNL     1      -0.838  10.744  22.832  0.00  0.00    +0.000 A 
ATOM     25  C   UNL     1      -0.333   9.442  22.971  0.00  0.00    +0.000 A 
ATOM     26  C   UNL     1       0.375   8.834  21.930  0.00  0.00    +0.000 A 
ATOM     27  C   UNL     1       0.565   9.542  20.756  0.00  0.00    +0.000 A 
ENDBRANCH  16  18
ENDBRANCH  15  16
ENDBRANCH   1  15
TORSDOF 5
ENDMDL
MODEL 8
REMARK VINA RESULT:      -8.3      1.705      2.313
REMARK  Name = 
REMARK  5 active torsions:
REMARK  status: ('A' for Active; 'I' for Inactive)
REMARK    1  A    between atoms: C_2  and  C_3
REMARK    2  A    between atoms: C_3  and  O_4
REMARK    3  A    between atoms: O_4  and  C_5
REMARK    4  A    between atoms: C_5  and  C_7
REMARK    5  A    between atoms: C_7  and  C_8
REMARK                            x       y       z     vdW  Elec       q    Type
REMARK                         _______ _______ _______ _____ _____    ______ ____
ROOT
ATOM      1  C   UNL     1       2.581   7.236  18.444  0.00  0.00    +0.000 C 
ATOM      2  O   UNL     1       2.953   7.835  17.441  0.00  0.00    +0.000 OA
ENDROOT
BRANCH   1   3
ATOM      3  C   UNL     1       2.764   5.724  18.665  0.00  0.00    +0.000 C 
ATOM      4  C   UNL     1       2.290   5.294  20.075  0.00  0.00    +0.000 C 
ATOM      5  C   UNL     1       1.953   3.809  19.944  0.00  0.00    +0.000 C 
ATOM      6  C   UNL     1       1.474   3.628  18.509  0.00  0.00    +0.000 C 
ATOM      7  C   UNL     1       1.701   4.972  17.820  0.00  0.00    +0.000 C 
BRANCH   3   8
ATOM      8  C   UNL     1       4.197   5.299  18.287  0.00  0.00    +0.000 A 
ATOM      9  C   UNL     1       4.519   4.724  17.042  0.00  0.00    +0.000 A 
ATOM     10  C   UNL     1       5.834   4.369  16.724  0.00  0.00    +0.000 A 
ATOM     11  C   UNL     1       6.842   4.568  17.654  0.00  0.00    +0.000 A 
ATOM     12  F   UNL     1       8.101   4.227  17.347  0.00  0.00    +0.000 F 
ATOM     13  C   UNL     1       6.560   5.112  18.897  0.00  0.00    +0.000 A 
ATOM     14  C   UNL     1       5.246   5.474  19.212  0.00  0.00    +0.000 A 
ENDBRANCH   3   8
ENDBRANCH   1   3
BRANCH   1  15
ATOM     15  O   UNL     1       2.030   7.848  19.532  0.00  0.00    +0.000 OA
BRANCH  15  16
ATOM     16  C   UNL     1       1.407   9.106  19.247  0.00  0.00    +0.000 C 
BRANCH  16  18
ATOM     17  O   UNL     1       1.149   9.480  21.610  0.00  0.00    +0.000 OA
ATOM     18  C   UNL     1       0.733   9.739  20.478  0.00  0.00    +0.000 C 
ATOM     19  N   UNL     1      -0.303  10.621  20.207  0.00  0.00    +0.000 N 
ATOM     20  C   UNL     1      -0.836  10.970  18.875  0.00  0.00    +0.000 C 
ATOM     21  C   UNL     1      -1.794  12.155  19.060  0.00  0.00    +0.000 C 
ATOM     22  C   UNL     1      -1.968  12.177  20.544  0.00  0.00    +0.000 A 
ATOM     23  C   UNL     1      -2.830  12.980  21.277  0.00  0.00    +0.000 A 
ATOM     24  C   UNL     1      -2.800  12.885  22.669  0.00  0.00    +0.000 A 
ATOM     25  C   UNL     1      -1.913  12.000  23.300  0.00  0.00    +0.000 A 
ATOM     26  C   UNL     1      -1.042  11.204  22.551  0.00  0.00    +0.000 A 
ATOM     27  C   UNL     1      -1.076  11.303  21.170  0.00  0.00    +0.000 A 
ENDBRANCH  16  18
ENDBRANCH  15  16
ENDBRANCH   1  15
TORSDOF 5
ENDMDL
MODEL 9
REMARK VINA RESULT:      -8.2      1.603      2.052
REMARK  Name = 
REMARK  5 active torsions:
REMARK  status: ('A' for Active; 'I' for Inactive)
REMARK    1  A    between atoms: C_2  and  C_3
REMARK    2  A    between atoms: C_3  and  O_4
REMARK    3  A    between atoms: O_4  and  C_5
REMARK    4  A    between atoms: C_5  and  C_7
REMARK    5  A    between atoms: C_7  and  C_8
REMARK                            x       y       z     vdW  Elec       q    Type
REMARK                         _______ _______ _______ _____ _____    ______ ____
ROOT
ATOM      1  C   UNL     1       2.400   5.370  19.999  0.00  0.00    +0.000 C 
ATOM      2  O   UNL     1       2.428   5.122  21.199  0.00  0.00    +0.000 OA
ENDROOT
BRANCH   1   3
ATOM      3  C   UNL     1       3.115   4.528  18.926  0.00  0.00    +0.000 C 
ATOM      4  C   UNL     1       3.291   3.058  19.382  0.00  0.00    +0.000 C 
ATOM      5  C   UNL     1       3.418   2.255  18.087  0.00  0.00    +0.000 C 
ATOM      6  C   UNL     1       2.578   3.006  17.062  0.00  0.00    +0.000 C 
ATOM      7  C   UNL     1       2.129   4.293  17.750  0.00  0.00    +0.000 C 
BRANCH   3   8
ATOM      8  C   UNL     1       4.400   5.238  18.459  0.00  0.00    +0.000 A 
ATOM      9  C   UNL     1       5.623   5.136  19.149  0.00  0.00    +0.000 A 
ATOM     10  C   UNL     1       6.776   5.776  18.685  0.00  0.00    +0.000 A 
ATOM     11  C   UNL     1       6.717   6.545  17.534  0.00  0.00    +0.000 A 
ATOM     12  F   UNL     1       7.823   7.158  17.092  0.00  0.00    +0.000 F 
ATOM     13  C   UNL     1       5.526   6.687  16.839  0.00  0.00    +0.000 A 
ATOM     14  C   UNL     1       4.375   6.039  17.299  0.00  0.00    +0.000 A 
ENDBRANCH   3   8
ENDBRANCH   1   3
BRANCH   1  15
ATOM     15  O   UNL     1       1.661   6.376  19.448  0.00  0.00    +0.000 OA
BRANCH  15  16
ATOM     16  C   UNL     1       2.179   7.689  19.695  0.00  0.00    +0.000 C 
BRANCH  16  18
ATOM     17  O   UNL     1       1.484   8.178  21.946  0.00  0.00    +0.000 OA
ATOM     18  C   UNL     1       1.375   8.467  20.752  0.00  0.00    +0.000 C 
ATOM     19  N   UNL     1       0.591   9.504  20.265  0.00  0.00    +0.000 N 
ATOM     20  C   UNL     1       0.429   9.895  18.850  0.00  0.00    +0.000 C 
ATOM     21  C   UNL     1      -0.326  11.232  18.827  0.00  0.00    +0.000 C 
ATOM     22  C   UNL     1      -0.812  11.331  20.237  0.00  0.00    +0.000 A 
ATOM     23  C   UNL     1      -1.660  12.293  20.768  0.00  0.00    +0.000 A 
ATOM     24  C   UNL     1      -1.950  12.239  22.132  0.00  0.00    +0.000 A 
ATOM     25  C   UNL     1      -1.388  11.237  22.937  0.00  0.00    +0.000 A 
ATOM     26  C   UNL     1      -0.527  10.280  22.393  0.00  0.00    +0.000 A 
ATOM     27  C   UNL     1      -0.242  10.338  21.039  0.00  0.00    +0.000 A 
ENDBRANCH  16  18
ENDBRANCH  15  16
ENDBRANCH   1  15
TORSDOF 5
ENDMDL
