MODEL 1
REMARK VINA RESULT:      -8.3      0.000      0.000
REMARK  Name = 
REMARK  4 active torsions:
REMARK  status: ('A' for Active; 'I' for Inactive)
REMARK    1  A    between atoms: C_2  and  C_7
REMARK    2  A    between atoms: N_3  and  C_4
REMARK    3  A    between atoms: C_12  and  N_13
REMARK    4  A    between atoms: N_19  and  C_20
REMARK                            x       y       z     vdW  Elec       q    Type
REMARK                         _______ _______ _______ _____ _____    ______ ____
ROOT
ATOM      1  N   UNL     1       3.692   6.486  17.777  0.00  0.00    +0.000 N 
ATOM      2  C   UNL     1       3.540   7.791  17.130  0.00  0.00    +0.000 C 
ATOM      3  C   UNL     1       2.211   8.421  17.620  0.00  0.00    +0.000 C 
ATOM      4  N   UNL     1       2.078   8.454  19.091  0.00  0.00    +0.000 N 
ATOM      5  C   UNL     1       1.079   9.286  19.607  0.00  0.00    +0.000 C 
ATOM      6  O   UNL     1       0.353   9.978  18.896  0.00  0.00    +0.000 OA
ATOM      7  N   UNL     1       1.055   9.340  20.987  0.00  0.00    +0.000 N 
ATOM      8  C   UNL     1       2.420   7.176  19.754  0.00  0.00    +0.000 C 
ATOM      9  C   UNL     1       3.745   6.572  19.240  0.00  0.00    +0.000 C 
ATOM     10  H   UNL     1       1.971   9.248  21.406  0.00  0.00    +0.000 HD
ENDROOT
BRANCH   7  11
ATOM     11  C   UNL     1       0.179  10.103  21.745  0.00  0.00    +0.000 A 
ATOM     12  C   UNL     1      -0.749   9.682  22.614  0.00  0.00    +0.000 A 
ATOM     13  N   UNL     1      -1.536  10.529  23.394  0.00  0.00    +0.000 NA
ATOM     14  C   UNL     1      -1.654  11.735  22.924  0.00  0.00    +0.000 A 
ATOM     15  C   UNL     1      -2.631  12.736  23.446  0.00  0.00    +0.000 A 
ATOM     16  C   UNL     1      -3.306  13.405  22.497  0.00  0.00    +0.000 A 
ATOM     17  C   UNL     1      -2.992  13.174  21.096  0.00  0.00    +0.000 A 
ATOM     18  C   UNL     1      -1.781  12.680  20.785  0.00  0.00    +0.000 A 
ATOM     19  N   UNL     1      -0.987  12.169  21.793  0.00  0.00    +0.000 N 
ATOM     20  C   UNL     1       0.227  11.569  21.545  0.00  0.00    +0.000 A 
ATOM     21  O   UNL     1       1.248  12.124  21.158  0.00  0.00    +0.000 OA
ENDBRANCH   7  11
BRANCH   1  27
ATOM     22  C   UNL     1       3.841   4.128  17.130  0.00  0.00    +0.000 A 
ATOM     23  C   UNL     1       4.538   3.123  16.442  0.00  0.00    +0.000 A 
ATOM     24  C   UNL     1       5.702   3.443  15.762  0.00  0.00    +0.000 A 
ATOM     25  C   UNL     1       6.114   4.761  15.779  0.00  0.00    +0.000 A 
ATOM     26  N   UNL     1       5.461   5.754  16.429  0.00  0.00    +0.000 NA
ATOM     27  C   UNL     1       4.330   5.452  17.122  0.00  0.00    +0.000 A 
BRANCH  22  29
ATOM     28  O   UNL     1       1.472   4.076  17.254  0.00  0.00    +0.000 OA
ATOM     29  C   UNL     1       2.544   3.777  17.768  0.00  0.00    +0.000 C 
ATOM     30  N   UNL     1       2.632   3.111  18.981  0.00  0.00    +0.000 N 
ATOM     31  H   UNL     1       3.539   2.906  19.378  0.00  0.00    +0.000 HD
BRANCH  30  32
ATOM     32  C   UNL     1       1.476   2.882  19.791  0.00  0.00    +0.000 C 
ATOM     33  C   UNL     1       1.597   2.610  21.263  0.00  0.00    +0.000 C 
ATOM     34  C   UNL     1       1.052   3.926  20.789  0.00  0.00    +0.000 C 
ENDBRANCH  30  32
ENDBRANCH  22  29
ENDBRANCH   1  27
TORSDOF 4
ENDMDL
MODEL 2
REMARK VINA RESULT:      -8.2      2.977      9.336
REMARK  Name = 
REMARK  4 active torsions:
REMARK  status: ('A' for Active; 'I' for Inactive)
REMARK    1  A    between atoms: C_2  and  C_7
REMARK    2  A    between atoms: N_3  and  C_4
REMARK    3  A    between atoms: C_12  and  N_13
REMARK    4  A    between atoms: N_19  and  C_20
REMARK                            x       y       z     vdW  Elec       q    Type
REMARK                         _______ _______ _______ _____ _____    ______ ____
ROOT
ATOM      1  N   UNL     1       1.295  11.839  19.334  0.00  0.00    +0.000 N 
ATOM      2  C   UNL     1       1.566  11.189  20.617  0.00  0.00    +0.000 C 
ATOM      3  C   UNL     1       1.196   9.689  20.486  0.00  0.00    +0.000 C 
ATOM      4  N   UNL     1       1.821   9.024  19.325  0.00  0.00    +0.000 N 
ATOM      5  C   UNL     1       1.802   7.625  19.324  0.00  0.00    +0.000 C 
ATOM      6  O   UNL     1       1.316   6.964  20.238  0.00  0.00    +0.000 OA
ATOM      7  N   UNL     1       2.472   7.058  18.258  0.00  0.00    +0.000 N 
ATOM      8  C   UNL     1       1.706   9.786  18.062  0.00  0.00    +0.000 C 
ATOM      9  C   UNL     1       2.076  11.276  18.228  0.00  0.00    +0.000 C 
ATOM     10  H   UNL     1       3.268   7.602  17.951  0.00  0.00    +0.000 HD
ENDROOT
BRANCH   7  11
ATOM     11  C   UNL     1       2.618   5.697  18.034  0.00  0.00    +0.000 A 
ATOM     12  C   UNL     1       1.662   4.785  17.813  0.00  0.00    +0.000 A 
ATOM     13  N   UNL     1       1.910   3.445  17.519  0.00  0.00    +0.000 NA
ATOM     14  C   UNL     1       3.073   3.016  17.908  0.00  0.00    +0.000 A 
ATOM     15  C   UNL     1       3.462   1.574  17.923  0.00  0.00    +0.000 A 
ATOM     16  C   UNL     1       4.085   1.176  19.045  0.00  0.00    +0.000 A 
ATOM     17  C   UNL     1       4.393   2.151  20.079  0.00  0.00    +0.000 A 
ATOM     18  C   UNL     1       4.477   3.447  19.731  0.00  0.00    +0.000 A 
ATOM     19  N   UNL     1       4.021   3.838  18.487  0.00  0.00    +0.000 N 
ATOM     20  C   UNL     1       3.995   5.156  18.091  0.00  0.00    +0.000 A 
ATOM     21  O   UNL     1       4.966   5.863  17.847  0.00  0.00    +0.000 OA
ENDBRANCH   7  11
BRANCH   1  27
ATOM     22  C   UNL     1      -0.423  13.539  18.932  0.00  0.00    +0.000 A 
ATOM     23  C   UNL     1      -0.772  14.899  18.911  0.00  0.00    +0.000 A 
ATOM     24  C   UNL     1       0.177  15.852  19.243  0.00  0.00    +0.000 A 
ATOM     25  C   UNL     1       1.434  15.409  19.603  0.00  0.00    +0.000 A 
ATOM     26  N   UNL     1       1.800  14.106  19.638  0.00  0.00    +0.000 NA
ATOM     27  C   UNL     1       0.888  13.158  19.291  0.00  0.00    +0.000 A 
BRANCH  22  29
ATOM     28  O   UNL     1      -2.168  12.064  19.573  0.00  0.00    +0.000 OA
ATOM     29  C   UNL     1      -1.486  12.533  18.669  0.00  0.00    +0.000 C 
ATOM     30  N   UNL     1      -1.638  12.153  17.344  0.00  0.00    +0.000 N 
ATOM     31  H   UNL     1      -1.037  12.550  16.635  0.00  0.00    +0.000 HD
BRANCH  30  32
ATOM     32  C   UNL     1      -2.487  11.063  16.973  0.00  0.00    +0.000 C 
ATOM     33  C   UNL     1      -3.908  11.291  16.545  0.00  0.00    +0.000 C 
ATOM     34  C   UNL     1      -2.877  10.886  15.531  0.00  0.00    +0.000 C 
ENDBRANCH  30  32
ENDBRANCH  22  29
ENDBRANCH   1  27
TORSDOF 4
ENDMDL
MODEL 3
REMARK VINA RESULT:      -7.7      2.773      9.787
REMARK  Name = 
REMARK  4 active torsions:
REMARK  status: ('A' for Active; 'I' for Inactive)
REMARK    1  A    between atoms: C_2  and  C_7
REMARK    2  A    between atoms: N_3  and  C_4
REMARK    3  A    between atoms: C_12  and  N_13
REMARK    4  A    between atoms: N_19  and  C_20
REMARK                            x       y       z     vdW  Elec       q    Type
REMARK                         _______ _______ _______ _____ _____    ______ ____
ROOT
ATOM      1  N   UNL     1      -0.138  11.712  20.340  0.00  0.00    +0.000 N 
ATOM      2  C   UNL     1      -0.319  11.258  18.960  0.00  0.00    +0.000 C 
ATOM      3  C   UNL     1       0.861  10.318  18.602  0.00  0.00    +0.000 C 
ATOM      4  N   UNL     1       1.066   9.227  19.577  0.00  0.00    +0.000 N 
ATOM      5  C   UNL     1       1.881   8.168  19.164  0.00  0.00    +0.000 C 
ATOM      6  O   UNL     1       2.392   8.115  18.048  0.00  0.00    +0.000 OA
ATOM      7  N   UNL     1       1.970   7.140  20.082  0.00  0.00    +0.000 N 
ATOM      8  C   UNL     1       1.056   9.673  20.988  0.00  0.00    +0.000 C 
ATOM      9  C   UNL     1      -0.127  10.611  21.310  0.00  0.00    +0.000 C 
ATOM     10  H   UNL     1       1.122   7.011  20.621  0.00  0.00    +0.000 HD
ENDROOT
BRANCH   7  11
ATOM     11  C   UNL     1       2.694   5.970  19.910  0.00  0.00    +0.000 A 
ATOM     12  C   UNL     1       3.970   5.833  19.525  0.00  0.00    +0.000 A 
ATOM     13  N   UNL     1       4.641   4.613  19.454  0.00  0.00    +0.000 NA
ATOM     14  C   UNL     1       3.863   3.579  19.340  0.00  0.00    +0.000 A 
ATOM     15  C   UNL     1       4.352   2.207  19.005  0.00  0.00    +0.000 A 
ATOM     16  C   UNL     1       3.624   1.569  18.074  0.00  0.00    +0.000 A 
ATOM     17  C   UNL     1       2.425   2.197  17.544  0.00  0.00    +0.000 A 
ATOM     18  C   UNL     1       1.820   3.144  18.282  0.00  0.00    +0.000 A 
ATOM     19  N   UNL     1       2.484   3.669  19.374  0.00  0.00    +0.000 N 
ATOM     20  C   UNL     1       1.968   4.698  20.128  0.00  0.00    +0.000 A 
ATOM     21  O   UNL     1       0.997   4.641  20.872  0.00  0.00    +0.000 OA
ENDBRANCH   7  11
BRANCH   1  27
ATOM     22  C   UNL     1       0.318  14.056  20.883  0.00  0.00    +0.000 A 
ATOM     23  C   UNL     1      -0.182  15.308  21.275  0.00  0.00    +0.000 A 
ATOM     24  C   UNL     1      -1.540  15.459  21.502  0.00  0.00    +0.000 A 
ATOM     25  C   UNL     1      -2.350  14.357  21.310  0.00  0.00    +0.000 A 
ATOM     26  N   UNL     1      -1.899  13.138  20.929  0.00  0.00    +0.000 NA
ATOM     27  C   UNL     1      -0.565  12.966  20.725  0.00  0.00    +0.000 A 
BRANCH  22  29
ATOM     28  O   UNL     1       2.579  13.510  21.353  0.00  0.00    +0.000 OA
ATOM     29  C   UNL     1       1.764  13.947  20.549  0.00  0.00    +0.000 C 
ATOM     30  N   UNL     1       2.123  14.389  19.285  0.00  0.00    +0.000 N 
ATOM     31  H   UNL     1       1.419  14.764  18.664  0.00  0.00    +0.000 HD
BRANCH  30  32
ATOM     32  C   UNL     1       3.495  14.519  18.903  0.00  0.00    +0.000 C 
ATOM     33  C   UNL     1       3.891  15.258  17.657  0.00  0.00    +0.000 C 
ATOM     34  C   UNL     1       4.168  15.861  19.003  0.00  0.00    +0.000 C 
ENDBRANCH  30  32
ENDBRANCH  22  29
ENDBRANCH   1  27
TORSDOF 4
ENDMDL
MODEL 4
REMARK VINA RESULT:      -7.6      2.152      9.539
REMARK  Name = 
REMARK  4 active torsions:
REMARK  status: ('A' for Active; 'I' for Inactive)
REMARK    1  A    between atoms: C_2  and  C_7
REMARK    2  A    between atoms: N_3  and  C_4
REMARK    3  A    between atoms: C_12  and  N_13
REMARK    4  A    between atoms: N_19  and  C_20
REMARK                            x       y       z     vdW  Elec       q    Type
REMARK                         _______ _______ _______ _____ _____    ______ ____
ROOT
ATOM      1  N   UNL     1      -0.715  10.911  21.730  0.00  0.00    +0.000 N 
ATOM      2  C   UNL     1      -0.521   9.829  22.698  0.00  0.00    +0.000 C 
ATOM      3  C   UNL     1      -0.212   8.529  21.913  0.00  0.00    +0.000 C 
ATOM      4  N   UNL     1       0.887   8.673  20.937  0.00  0.00    +0.000 N 
ATOM      5  C   UNL     1       1.435   7.487  20.436  0.00  0.00    +0.000 C 
ATOM      6  O   UNL     1       1.053   6.374  20.789  0.00  0.00    +0.000 OA
ATOM      7  N   UNL     1       2.511   7.681  19.593  0.00  0.00    +0.000 N 
ATOM      8  C   UNL     1       0.782   9.880  20.088  0.00  0.00    +0.000 C 
ATOM      9  C   UNL     1       0.468  11.155  20.898  0.00  0.00    +0.000 C 
ATOM     10  H   UNL     1       3.069   8.490  19.837  0.00  0.00    +0.000 HD
ENDROOT
BRANCH   7  11
ATOM     11  C   UNL     1       3.243   6.675  18.980  0.00  0.00    +0.000 A 
ATOM     12  C   UNL     1       3.580   5.476  19.474  0.00  0.00    +0.000 A 
ATOM     13  N   UNL     1       4.255   4.492  18.753  0.00  0.00    +0.000 NA
ATOM     14  C   UNL     1       4.938   4.941  17.743  0.00  0.00    +0.000 A 
ATOM     15  C   UNL     1       5.926   4.120  16.980  0.00  0.00    +0.000 A 
ATOM     16  C   UNL     1       7.088   4.743  16.723  0.00  0.00    +0.000 A 
ATOM     17  C   UNL     1       7.261   6.132  17.117  0.00  0.00    +0.000 A 
ATOM     18  C   UNL     1       6.163   6.886  17.297  0.00  0.00    +0.000 A 
ATOM     19  N   UNL     1       4.928   6.269  17.360  0.00  0.00    +0.000 N 
ATOM     20  C   UNL     1       3.769   6.962  17.626  0.00  0.00    +0.000 A 
ATOM     21  O   UNL     1       3.217   7.769  16.888  0.00  0.00    +0.000 OA
ENDBRANCH   7  11
BRANCH   1  27
ATOM     22  C   UNL     1      -2.132  12.765  20.988  0.00  0.00    +0.000 A 
ATOM     23  C   UNL     1      -3.025  13.794  21.330  0.00  0.00    +0.000 A 
ATOM     24  C   UNL     1      -3.369  13.985  22.658  0.00  0.00    +0.000 A 
ATOM     25  C   UNL     1      -2.822  13.129  23.593  0.00  0.00    +0.000 A 
ATOM     26  N   UNL     1      -1.962  12.126  23.295  0.00  0.00    +0.000 NA
ATOM     27  C   UNL     1      -1.595  11.939  21.999  0.00  0.00    +0.000 A 
BRANCH  22  29
ATOM     28  O   UNL     1      -1.067  13.209  18.915  0.00  0.00    +0.000 OA
ATOM     29  C   UNL     1      -1.858  12.518  19.547  0.00  0.00    +0.000 C 
ATOM     30  N   UNL     1      -2.569  11.476  18.971  0.00  0.00    +0.000 N 
ATOM     31  H   UNL     1      -3.229  10.949  19.527  0.00  0.00    +0.000 HD
BRANCH  30  32
ATOM     32  C   UNL     1      -2.547  11.250  17.559  0.00  0.00    +0.000 C 
ATOM     33  C   UNL     1      -1.994   9.979  16.981  0.00  0.00    +0.000 C 
ATOM     34  C   UNL     1      -3.474  10.228  16.959  0.00  0.00    +0.000 C 
ENDBRANCH  30  32
ENDBRANCH  22  29
ENDBRANCH   1  27
TORSDOF 4
ENDMDL
MODEL 5
REMARK VINA RESULT:      -7.6      1.495      2.152
REMARK  Name = 
REMARK  4 active torsions:
REMARK  status: ('A' for Active; 'I' for Inactive)
REMARK    1  A    between atoms: C_2  and  C_7
REMARK    2  A    between atoms: N_3  and  C_4
REMARK    3  A    between atoms: C_12  and  N_13
REMARK    4  A    between atoms: N_19  and  C_20
REMARK                            x       y       z     vdW  Elec       q    Type
REMARK                         _______ _______ _______ _____ _____    ______ ____
ROOT
ATOM      1  N   UNL     1       3.096   6.892  18.299  0.00  0.00    +0.000 N 
ATOM      2  C   UNL     1       2.522   6.436  19.566  0.00  0.00    +0.000 C 
ATOM      3  C   UNL     1       2.112   7.685  20.388  0.00  0.00    +0.000 C 
ATOM      4  N   UNL     1       1.258   8.631  19.641  0.00  0.00    +0.000 N 
ATOM      5  C   UNL     1       0.589   9.598  20.400  0.00  0.00    +0.000 C 
ATOM      6  O   UNL     1       0.676   9.663  21.624  0.00  0.00    +0.000 OA
ATOM      7  N   UNL     1      -0.256  10.401  19.661  0.00  0.00    +0.000 N 
ATOM      8  C   UNL     1       1.750   8.939  18.281  0.00  0.00    +0.000 C 
ATOM      9  C   UNL     1       2.155   7.676  17.491  0.00  0.00    +0.000 C 
ATOM     10  H   UNL     1      -0.680   9.920  18.877  0.00  0.00    +0.000 HD
ENDROOT
BRANCH   7  11
ATOM     11  C   UNL     1      -1.047  11.420  20.172  0.00  0.00    +0.000 A 
ATOM     12  C   UNL     1      -1.224  11.768  21.453  0.00  0.00    +0.000 A 
ATOM     13  N   UNL     1      -1.982  12.862  21.871  0.00  0.00    +0.000 NA
ATOM     14  C   UNL     1      -2.871  13.258  21.010  0.00  0.00    +0.000 A 
ATOM     15  C   UNL     1      -3.951  14.241  21.328  0.00  0.00    +0.000 A 
ATOM     16  C   UNL     1      -5.168  13.895  20.878  0.00  0.00    +0.000 A 
ATOM     17  C   UNL     1      -5.324  12.688  20.083  0.00  0.00    +0.000 A 
ATOM     18  C   UNL     1      -4.249  12.203  19.438  0.00  0.00    +0.000 A 
ATOM     19  N   UNL     1      -2.999  12.702  19.752  0.00  0.00    +0.000 N 
ATOM     20  C   UNL     1      -1.844  12.200  19.198  0.00  0.00    +0.000 A 
ATOM     21  O   UNL     1      -1.486  12.312  18.031  0.00  0.00    +0.000 OA
ENDBRANCH   7  11
BRANCH   1  27
ATOM     22  C   UNL     1       4.024   4.769  17.506  0.00  0.00    +0.000 A 
ATOM     23  C   UNL     1       5.077   4.092  16.869  0.00  0.00    +0.000 A 
ATOM     24  C   UNL     1       6.177   4.807  16.423  0.00  0.00    +0.000 A 
ATOM     25  C   UNL     1       6.174   6.175  16.613  0.00  0.00    +0.000 A 
ATOM     26  N   UNL     1       5.173   6.857  17.218  0.00  0.00    +0.000 NA
ATOM     27  C   UNL     1       4.096   6.167  17.684  0.00  0.00    +0.000 A 
BRANCH  22  29
ATOM     28  O   UNL     1       1.803   3.997  17.192  0.00  0.00    +0.000 OA
ATOM     29  C   UNL     1       2.814   3.993  17.885  0.00  0.00    +0.000 C 
ATOM     30  N   UNL     1       2.902   3.287  19.075  0.00  0.00    +0.000 N 
ATOM     31  H   UNL     1       3.748   3.333  19.626  0.00  0.00    +0.000 HD
BRANCH  30  32
ATOM     32  C   UNL     1       1.756   2.655  19.654  0.00  0.00    +0.000 C 
ATOM     33  C   UNL     1       1.649   2.440  21.136  0.00  0.00    +0.000 C 
ATOM     34  C   UNL     1       0.791   3.473  20.467  0.00  0.00    +0.000 C 
ENDBRANCH  30  32
ENDBRANCH  22  29
ENDBRANCH   1  27
TORSDOF 4
ENDMDL
MODEL 6
REMARK VINA RESULT:      -7.6      2.424      3.961
REMARK  Name = 
REMARK  4 active torsions:
REMARK  status: ('A' for Active; 'I' for Inactive)
REMARK    1  A    between atoms: C_2  and  C_7
REMARK    2  A    between atoms: N_3  and  C_4
REMARK    3  A    between atoms: C_12  and  N_13
REMARK    4  A    between atoms: N_19  and  C_20
REMARK                            x       y       z     vdW  Elec       q    Type
REMARK                         _______ _______ _______ _____ _____    ______ ____
ROOT
ATOM      1  N   UNL     1       4.239   5.898  17.077  0.00  0.00    +0.000 N 
ATOM      2  C   UNL     1       3.353   4.989  17.807  0.00  0.00    +0.000 C 
ATOM      3  C   UNL     1       2.989   5.652  19.160  0.00  0.00    +0.000 C 
ATOM      4  N   UNL     1       2.468   7.028  19.025  0.00  0.00    +0.000 N 
ATOM      5  C   UNL     1       1.822   7.562  20.145  0.00  0.00    +0.000 C 
ATOM      6  O   UNL     1       1.666   6.933  21.189  0.00  0.00    +0.000 OA
ATOM      7  N   UNL     1       1.285   8.817  19.934  0.00  0.00    +0.000 N 
ATOM      8  C   UNL     1       3.270   7.888  18.128  0.00  0.00    +0.000 C 
ATOM      9  C   UNL     1       3.620   7.197  16.792  0.00  0.00    +0.000 C 
ATOM     10  H   UNL     1       0.958   8.957  18.986  0.00  0.00    +0.000 HD
ENDROOT
BRANCH   7  11
ATOM     11  C   UNL     1       0.579   9.556  20.872  0.00  0.00    +0.000 A 
ATOM     12  C   UNL     1      -0.122   9.110  21.922  0.00  0.00    +0.000 A 
ATOM     13  N   UNL     1      -0.738   9.936  22.862  0.00  0.00    +0.000 NA
ATOM     14  C   UNL     1      -0.987  11.138  22.438  0.00  0.00    +0.000 A 
ATOM     15  C   UNL     1      -1.850  12.113  23.171  0.00  0.00    +0.000 A 
ATOM     16  C   UNL     1      -2.734  12.766  22.398  0.00  0.00    +0.000 A 
ATOM     17  C   UNL     1      -2.732  12.545  20.961  0.00  0.00    +0.000 A 
ATOM     18  C   UNL     1      -1.608  12.082  20.387  0.00  0.00    +0.000 A 
ATOM     19  N   UNL     1      -0.598  11.591  21.191  0.00  0.00    +0.000 N 
ATOM     20  C   UNL     1       0.545  11.023  20.677  0.00  0.00    +0.000 A 
ATOM     21  O   UNL     1       1.442  11.605  20.078  0.00  0.00    +0.000 OA
ENDBRANCH   7  11
BRANCH   1  27
ATOM     22  C   UNL     1       6.572   5.772  16.344  0.00  0.00    +0.000 A 
ATOM     23  C   UNL     1       7.515   5.225  15.459  0.00  0.00    +0.000 A 
ATOM     24  C   UNL     1       7.101   4.323  14.492  0.00  0.00    +0.000 A 
ATOM     25  C   UNL     1       5.762   3.988  14.458  0.00  0.00    +0.000 A 
ATOM     26  N   UNL     1       4.829   4.494  15.299  0.00  0.00    +0.000 NA
ATOM     27  C   UNL     1       5.215   5.399  16.239  0.00  0.00    +0.000 A 
BRANCH  22  29
ATOM     28  O   UNL     1       7.191   6.254  18.583  0.00  0.00    +0.000 OA
ATOM     29  C   UNL     1       7.059   6.659  17.433  0.00  0.00    +0.000 C 
ATOM     30  N   UNL     1       7.330   7.968  17.066  0.00  0.00    +0.000 N 
ATOM     31  H   UNL     1       7.184   8.263  16.110  0.00  0.00    +0.000 HD
BRANCH  30  32
ATOM     32  C   UNL     1       7.621   8.972  18.042  0.00  0.00    +0.000 C 
ATOM     33  C   UNL     1       8.936   8.997  18.768  0.00  0.00    +0.000 C 
ATOM     34  C   UNL     1       8.635  10.038  17.728  0.00  0.00    +0.000 C 
ENDBRANCH  30  32
ENDBRANCH  22  29
ENDBRANCH   1  27
TORSDOF 4
ENDMDL
MODEL 7
REMARK VINA RESULT:      -7.5      2.968      9.033
REMARK  Name = 
REMARK  4 active torsions:
REMARK  status: ('A' for Active; 'I' for Inactive)
REMARK    1  A    between atoms: C_2  and  C_7
REMARK    2  A    between atoms: N_3  and  C_4
REMARK    3  A    between atoms: C_12  and  N_13
REMARK    4  A    between atoms: N_19  and  C_20
REMARK                            x       y       z     vdW  Elec       q    Type
REMARK                         _______ _______ _______ _____ _____    ______ ____
ROOT
ATOM      1  N   UNL     1       1.504  12.361  19.228  0.00  0.00    +0.000 N 
ATOM      2  C   UNL     1       1.689  11.792  20.564  0.00  0.00    +0.000 C 
ATOM      3  C   UNL     1       1.205  10.320  20.534  0.00  0.00    +0.000 C 
ATOM      4  N   UNL     1       1.805   9.521  19.446  0.00  0.00    +0.000 N 
ATOM      5  C   UNL     1       1.675   8.132  19.548  0.00  0.00    +0.000 C 
ATOM      6  O   UNL     1       1.114   7.582  20.494  0.00  0.00    +0.000 OA
ATOM      7  N   UNL     1       2.325   7.434  18.549  0.00  0.00    +0.000 N 
ATOM      8  C   UNL     1       1.783  10.191  18.127  0.00  0.00    +0.000 C 
ATOM      9  C   UNL     1       2.266  11.656  18.192  0.00  0.00    +0.000 C 
ATOM     10  H   UNL     1       3.170   7.891  18.228  0.00  0.00    +0.000 HD
ENDROOT
BRANCH   7  11
ATOM     11  C   UNL     1       2.368   6.053  18.432  0.00  0.00    +0.000 A 
ATOM     12  C   UNL     1       1.599   5.260  17.675  0.00  0.00    +0.000 A 
ATOM     13  N   UNL     1       1.767   3.880  17.561  0.00  0.00    +0.000 NA
ATOM     14  C   UNL     1       2.402   3.334  18.554  0.00  0.00    +0.000 A 
ATOM     15  C   UNL     1       2.487   1.858  18.772  0.00  0.00    +0.000 A 
ATOM     16  C   UNL     1       2.269   1.468  20.039  0.00  0.00    +0.000 A 
ATOM     17  C   UNL     1       2.056   2.469  21.072  0.00  0.00    +0.000 A 
ATOM     18  C   UNL     1       2.521   3.713  20.862  0.00  0.00    +0.000 A 
ATOM     19  N   UNL     1       2.943   4.066  19.594  0.00  0.00    +0.000 N 
ATOM     20  C   UNL     1       3.351   5.342  19.281  0.00  0.00    +0.000 A 
ATOM     21  O   UNL     1       4.374   5.896  19.667  0.00  0.00    +0.000 OA
ENDBRANCH   7  11
BRANCH   1  27
ATOM     22  C   UNL     1      -0.101  14.161  18.799  0.00  0.00    +0.000 A 
ATOM     23  C   UNL     1      -0.338  15.538  18.656  0.00  0.00    +0.000 A 
ATOM     24  C   UNL     1       0.715  16.428  18.787  0.00  0.00    +0.000 A 
ATOM     25  C   UNL     1       1.962  15.910  19.076  0.00  0.00    +0.000 A 
ATOM     26  N   UNL     1       2.222  14.590  19.224  0.00  0.00    +0.000 NA
ATOM     27  C   UNL     1       1.204  13.699  19.074  0.00  0.00    +0.000 A 
BRANCH  22  29
ATOM     28  O   UNL     1      -2.019  13.102  19.709  0.00  0.00    +0.000 OA
ATOM     29  C   UNL     1      -1.265  13.237  18.753  0.00  0.00    +0.000 C 
ATOM     30  N   UNL     1      -1.424  12.530  17.570  0.00  0.00    +0.000 N 
ATOM     31  H   UNL     1      -0.762  12.656  16.816  0.00  0.00    +0.000 HD
BRANCH  30  32
ATOM     32  C   UNL     1      -2.381  11.473  17.455  0.00  0.00    +0.000 C 
ATOM     33  C   UNL     1      -2.584  10.742  16.160  0.00  0.00    +0.000 C 
ATOM     34  C   UNL     1      -1.903  10.055  17.307  0.00  0.00    +0.000 C 
ENDBRANCH  30  32
ENDBRANCH  22  29
ENDBRANCH   1  27
TORSDOF 4
ENDMDL
MODEL 8
REMARK VINA RESULT:      -7.5      2.529      9.446
REMARK  Name = 
REMARK  4 active torsions:
REMARK  status: ('A' for Active; 'I' for Inactive)
REMARK    1  A    between atoms: C_2  and  C_7
REMARK    2  A    between atoms: N_3  and  C_4
REMARK    3  A    between atoms: C_12  and  N_13
REMARK    4  A    between atoms: N_19  and  C_20
REMARK                            x       y       z     vdW  Elec       q    Type
REMARK                         _______ _______ _______ _____ _____    ______ ____
ROOT
ATOM      1  N   UNL     1       0.253  11.816  19.941  0.00  0.00    +0.000 N 
ATOM      2  C   UNL     1       0.071  11.298  18.584  0.00  0.00    +0.000 C 
ATOM      3  C   UNL     1       1.197  10.272  18.303  0.00  0.00    +0.000 C 
ATOM      4  N   UNL     1       1.318   9.226  19.340  0.00  0.00    +0.000 N 
ATOM      5  C   UNL     1       2.075   8.099  19.002  0.00  0.00    +0.000 C 
ATOM      6  O   UNL     1       2.603   7.955  17.902  0.00  0.00    +0.000 OA
ATOM      7  N   UNL     1       2.085   7.120  19.977  0.00  0.00    +0.000 N 
ATOM      8  C   UNL     1       1.309   9.749  20.724  0.00  0.00    +0.000 C 
ATOM      9  C   UNL     1       0.180  10.772  20.969  0.00  0.00    +0.000 C 
ATOM     10  H   UNL     1       1.221   7.072  20.502  0.00  0.00    +0.000 HD
ENDROOT
BRANCH   7  11
ATOM     11  C   UNL     1       2.740   5.901  19.884  0.00  0.00    +0.000 A 
ATOM     12  C   UNL     1       4.030   5.672  19.609  0.00  0.00    +0.000 A 
ATOM     13  N   UNL     1       4.621   4.409  19.613  0.00  0.00    +0.000 NA
ATOM     14  C   UNL     1       3.787   3.426  19.451  0.00  0.00    +0.000 A 
ATOM     15  C   UNL     1       4.207   2.019  19.179  0.00  0.00    +0.000 A 
ATOM     16  C   UNL     1       3.517   1.410  18.200  0.00  0.00    +0.000 A 
ATOM     17  C   UNL     1       2.411   2.105  17.563  0.00  0.00    +0.000 A 
ATOM     18  C   UNL     1       1.813   3.106  18.232  0.00  0.00    +0.000 A 
ATOM     19  N   UNL     1       2.419   3.608  19.368  0.00  0.00    +0.000 N 
ATOM     20  C   UNL     1       1.914   4.685  20.059  0.00  0.00    +0.000 A 
ATOM     21  O   UNL     1       0.883   4.708  20.721  0.00  0.00    +0.000 OA
ENDBRANCH   7  11
BRANCH   1  27
ATOM     22  C   UNL     1      -1.445  13.556  20.242  0.00  0.00    +0.000 A 
ATOM     23  C   UNL     1      -1.739  14.890  20.566  0.00  0.00    +0.000 A 
ATOM     24  C   UNL     1      -0.709  15.758  20.888  0.00  0.00    +0.000 A 
ATOM     25  C   UNL     1       0.577  15.254  20.892  0.00  0.00    +0.000 A 
ATOM     26  N   UNL     1       0.894  13.973  20.589  0.00  0.00    +0.000 NA
ATOM     27  C   UNL     1      -0.104  13.114  20.247  0.00  0.00    +0.000 A 
BRANCH  22  29
ATOM     28  O   UNL     1      -3.124  12.021  20.914  0.00  0.00    +0.000 OA
ATOM     29  C   UNL     1      -2.576  12.623  19.998  0.00  0.00    +0.000 C 
ATOM     30  N   UNL     1      -2.951  12.467  18.672  0.00  0.00    +0.000 N 
ATOM     31  H   UNL     1      -2.454  12.966  17.947  0.00  0.00    +0.000 HD
BRANCH  30  32
ATOM     32  C   UNL     1      -3.891  11.465  18.275  0.00  0.00    +0.000 C 
ATOM     33  C   UNL     1      -5.330  11.805  18.011  0.00  0.00    +0.000 C 
ATOM     34  C   UNL     1      -4.421  11.463  16.867  0.00  0.00    +0.000 C 
ENDBRANCH  30  32
ENDBRANCH  22  29
ENDBRANCH   1  27
TORSDOF 4
ENDMDL
MODEL 9
REMARK VINA RESULT:      -7.5      1.388      1.840
REMARK  Name = 
REMARK  4 active torsions:
REMARK  status: ('A' for Active; 'I' for Inactive)
REMARK    1  A    between atoms: C_2  and  C_7
REMARK    2  A    between atoms: N_3  and  C_4
REMARK    3  A    between atoms: C_12  and  N_13
REMARK    4  A    between atoms: N_19  and  C_20
REMARK                            x       y       z     vdW  Elec       q    Type
REMARK                         _______ _______ _______ _____ _____    ______ ____
ROOT
ATOM      1  N   UNL     1       2.835   6.979  18.485  0.00  0.00    +0.000 N 
ATOM      2  C   UNL     1       2.369   6.367  19.730  0.00  0.00    +0.000 C 
ATOM      3  C   UNL     1       2.214   7.487  20.791  0.00  0.00    +0.000 C 
ATOM      4  N   UNL     1       1.396   8.628  20.332  0.00  0.00    +0.000 N 
ATOM      5  C   UNL     1       0.944   9.508  21.321  0.00  0.00    +0.000 C 
ATOM      6  O   UNL     1       1.186   9.350  22.516  0.00  0.00    +0.000 OA
ATOM      7  N   UNL     1       0.117  10.507  20.846  0.00  0.00    +0.000 N 
ATOM      8  C   UNL     1       1.752   9.119  18.983  0.00  0.00    +0.000 C 
ATOM      9  C   UNL     1       1.905   7.980  17.953  0.00  0.00    +0.000 C 
ATOM     10  H   UNL     1      -0.453  10.214  20.062  0.00  0.00    +0.000 HD
ENDROOT
BRANCH   7  11
ATOM     11  C   UNL     1      -0.478  11.492  21.620  0.00  0.00    +0.000 A 
ATOM     12  C   UNL     1      -1.568  11.395  22.391  0.00  0.00    +0.000 A 
ATOM     13  N   UNL     1      -2.052  12.424  23.199  0.00  0.00    +0.000 NA
ATOM     14  C   UNL     1      -1.674  13.613  22.836  0.00  0.00    +0.000 A 
ATOM     15  C   UNL     1      -2.255  14.872  23.392  0.00  0.00    +0.000 A 
ATOM     16  C   UNL     1      -2.548  15.805  22.471  0.00  0.00    +0.000 A 
ATOM     17  C   UNL     1      -2.220  15.564  21.075  0.00  0.00    +0.000 A 
ATOM     18  C   UNL     1      -1.255  14.672  20.790  0.00  0.00    +0.000 A 
ATOM     19  N   UNL     1      -0.798  13.837  21.791  0.00  0.00    +0.000 N 
ATOM     20  C   UNL     1       0.126  12.843  21.559  0.00  0.00    +0.000 A 
ATOM     21  O   UNL     1       1.310  12.998  21.285  0.00  0.00    +0.000 OA
ENDBRANCH   7  11
BRANCH   1  27
ATOM     22  C   UNL     1       3.494   4.901  17.367  0.00  0.00    +0.000 A 
ATOM     23  C   UNL     1       4.367   4.249  16.482  0.00  0.00    +0.000 A 
ATOM     24  C   UNL     1       5.385   4.967  15.876  0.00  0.00    +0.000 A 
ATOM     25  C   UNL     1       5.479   6.315  16.161  0.00  0.00    +0.000 A 
ATOM     26  N   UNL     1       4.650   6.973  17.005  0.00  0.00    +0.000 NA
ATOM     27  C   UNL     1       3.660   6.279  17.629  0.00  0.00    +0.000 A 
BRANCH  22  29
ATOM     28  O   UNL     1       1.224   4.216  17.454  0.00  0.00    +0.000 OA
ATOM     29  C   UNL     1       2.351   4.131  17.927  0.00  0.00    +0.000 C 
ATOM     30  N   UNL     1       2.645   3.333  19.022  0.00  0.00    +0.000 N 
ATOM     31  H   UNL     1       3.585   3.313  19.393  0.00  0.00    +0.000 HD
BRANCH  30  32
ATOM     32  C   UNL     1       1.612   2.689  19.774  0.00  0.00    +0.000 C 
ATOM     33  C   UNL     1       1.821   2.292  21.207  0.00  0.00    +0.000 C 
ATOM     34  C   UNL     1       0.917   3.443  20.874  0.00  0.00    +0.000 C 
ENDBRANCH  30  32
ENDBRANCH  22  29
ENDBRANCH   1  27
TORSDOF 4
ENDMDL
