MODEL 1
REMARK VINA RESULT:      -7.8      0.000      0.000
REMARK  Name = 
REMARK  10 active torsions:
REMARK  status: ('A' for Active; 'I' for Inactive)
REMARK    1  A    between atoms: C_1  and  O_2
REMARK    2  A    between atoms: O_2  and  C_3
REMARK    3  A    between atoms: C_5  and  N_6
REMARK    4  A    between atoms: N_6  and  C_7
REMARK    5  A    between atoms: N_6  and  C_8
REMARK    6  A    between atoms: C_10  and  C_11
REMARK    7  A    between atoms: C_20  and  O_21
REMARK    8  A    between atoms: O_21  and  C_22
REMARK    9  A    between atoms: C_23  and  O_24
REMARK   10  A    between atoms: O_24  and  C_25
REMARK                            x       y       z     vdW  Elec       q    Type
REMARK                         _______ _______ _______ _____ _____    ______ ____
ROOT
ATOM      1  N   UNL     1       3.836   3.870  17.658  0.00  0.00    +0.000 N 
ATOM      2  C   UNL     1       2.804   3.074  16.996  0.00  0.00    +0.000 C 
ENDROOT
BRANCH   1   3
ATOM      3  C   UNL     1       3.405   4.548  18.882  0.00  0.00    +0.000 A 
ATOM      4  C   UNL     1       3.320   3.701  19.976  0.00  0.00    +0.000 A 
ATOM      5  C   UNL     1       2.138   3.859  20.654  0.00  0.00    +0.000 A 
ATOM      6  C   UNL     1       0.902   3.286  19.985  0.00  0.00    +0.000 C 
ATOM      7  N   UNL     1       1.884   5.060  21.160  0.00  0.00    +0.000 NA
ATOM      8  C   UNL     1       2.098   6.073  20.318  0.00  0.00    +0.000 A 
ATOM      9  C   UNL     1       1.354   7.183  20.708  0.00  0.00    +0.000 A 
ATOM     10  C   UNL     1       1.342   8.353  19.960  0.00  0.00    +0.000 A 
ATOM     11  C   UNL     1       2.153   8.387  18.835  0.00  0.00    +0.000 A 
ATOM     12  C   UNL     1       2.871   7.225  18.412  0.00  0.00    +0.000 A 
ATOM     13  C   UNL     1       2.839   5.935  19.116  0.00  0.00    +0.000 A 
ENDBRANCH   1   3
BRANCH   1  16
ATOM     14  C   UNL     1       6.039   4.044  14.484  0.00  0.00    +0.000 A 
ATOM     15  C   UNL     1       4.988   3.735  15.406  0.00  0.00    +0.000 A 
ATOM     16  C   UNL     1       4.844   4.337  16.676  0.00  0.00    +0.000 A 
ATOM     17  C   UNL     1       5.821   5.323  16.962  0.00  0.00    +0.000 A 
ATOM     18  C   UNL     1       6.897   5.653  16.048  0.00  0.00    +0.000 A 
ATOM     19  C   UNL     1       7.022   4.990  14.806  0.00  0.00    +0.000 A 
BRANCH  14  21
ATOM     20  C   UNL     1       5.100   3.526  12.360  0.00  0.00    +0.000 C 
ATOM     21  O   UNL     1       6.174   3.394  13.279  0.00  0.00    +0.000 OA
ENDBRANCH  14  21
BRANCH  18  22
ATOM     22  O   UNL     1       7.761   6.632  16.521  0.00  0.00    +0.000 OA
ATOM     23  C   UNL     1       7.325   7.565  17.521  0.00  0.00    +0.000 C 
ENDBRANCH  18  22
BRANCH  19  24
ATOM     24  O   UNL     1       8.125   5.308  14.061  0.00  0.00    +0.000 OA
ATOM     25  C   UNL     1       8.138   5.722  12.704  0.00  0.00    +0.000 C 
ENDBRANCH  19  24
ENDBRANCH   1  16
TORSDOF 5
ENDMDL
MODEL 2
REMARK VINA RESULT:      -7.5      0.644      2.669
REMARK  Name = 
REMARK  10 active torsions:
REMARK  status: ('A' for Active; 'I' for Inactive)
REMARK    1  A    between atoms: C_1  and  O_2
REMARK    2  A    between atoms: O_2  and  C_3
REMARK    3  A    between atoms: C_5  and  N_6
REMARK    4  A    between atoms: N_6  and  C_7
REMARK    5  A    between atoms: N_6  and  C_8
REMARK    6  A    between atoms: C_10  and  C_11
REMARK    7  A    between atoms: C_20  and  O_21
REMARK    8  A    between atoms: O_21  and  C_22
REMARK    9  A    between atoms: C_23  and  O_24
REMARK   10  A    between atoms: O_24  and  C_25
REMARK                            x       y       z     vdW  Elec       q    Type
REMARK                         _______ _______ _______ _____ _____    ______ ____
ROOT
ATOM      1  N   UNL     1       3.850   4.279  17.834  0.00  0.00    +0.000 N 
ATOM      2  C   UNL     1       2.808   3.488  17.183  0.00  0.00    +0.000 C 
ENDROOT
BRANCH   1   3
ATOM      3  C   UNL     1       3.376   5.185  18.881  0.00  0.00    +0.000 A 
ATOM      4  C   UNL     1       3.221   4.566  20.113  0.00  0.00    +0.000 A 
ATOM      5  C   UNL     1       2.013   4.866  20.687  0.00  0.00    +0.000 A 
ATOM      6  C   UNL     1       0.798   4.189  20.079  0.00  0.00    +0.000 C 
ATOM      7  N   UNL     1       1.760   6.146  20.938  0.00  0.00    +0.000 NA
ATOM      8  C   UNL     1       2.036   6.974  19.928  0.00  0.00    +0.000 A 
ATOM      9  C   UNL     1       1.297   8.147  20.060  0.00  0.00    +0.000 A 
ATOM     10  C   UNL     1       1.346   9.151  19.101  0.00  0.00    +0.000 A 
ATOM     11  C   UNL     1       2.209   8.957  18.033  0.00  0.00    +0.000 A 
ATOM     12  C   UNL     1       2.922   7.727  17.878  0.00  0.00    +0.000 A 
ATOM     13  C   UNL     1       2.830   6.598  18.815  0.00  0.00    +0.000 A 
ENDBRANCH   1   3
BRANCH   1  16
ATOM     14  C   UNL     1       7.007   5.822  16.218  0.00  0.00    +0.000 A 
ATOM     15  C   UNL     1       5.967   5.485  17.144  0.00  0.00    +0.000 A 
ATOM     16  C   UNL     1       4.999   4.480  16.920  0.00  0.00    +0.000 A 
ATOM     17  C   UNL     1       5.160   3.787  15.695  0.00  0.00    +0.000 A 
ATOM     18  C   UNL     1       6.202   4.108  14.738  0.00  0.00    +0.000 A 
ATOM     19  C   UNL     1       7.120   5.152  14.990  0.00  0.00    +0.000 A 
BRANCH  14  21
ATOM     20  C   UNL     1       7.751   7.549  17.675  0.00  0.00    +0.000 C 
ATOM     21  O   UNL     1       7.897   6.844  16.451  0.00  0.00    +0.000 OA
ENDBRANCH  14  21
BRANCH  18  22
ATOM     22  O   UNL     1       6.179   3.326  13.591  0.00  0.00    +0.000 OA
ATOM     23  C   UNL     1       5.105   3.453  12.646  0.00  0.00    +0.000 C 
ENDBRANCH  18  22
BRANCH  19  24
ATOM     24  O   UNL     1       8.001   5.437  13.984  0.00  0.00    +0.000 OA
ATOM     25  C   UNL     1       7.714   5.480  12.594  0.00  0.00    +0.000 C 
ENDBRANCH  19  24
ENDBRANCH   1  16
TORSDOF 5
ENDMDL
MODEL 3
REMARK VINA RESULT:      -7.4      2.883      7.047
REMARK  Name = 
REMARK  10 active torsions:
REMARK  status: ('A' for Active; 'I' for Inactive)
REMARK    1  A    between atoms: C_1  and  O_2
REMARK    2  A    between atoms: O_2  and  C_3
REMARK    3  A    between atoms: C_5  and  N_6
REMARK    4  A    between atoms: N_6  and  C_7
REMARK    5  A    between atoms: N_6  and  C_8
REMARK    6  A    between atoms: C_10  and  C_11
REMARK    7  A    between atoms: C_20  and  O_21
REMARK    8  A    between atoms: O_21  and  C_22
REMARK    9  A    between atoms: C_23  and  O_24
REMARK   10  A    between atoms: O_24  and  C_25
REMARK                            x       y       z     vdW  Elec       q    Type
REMARK                         _______ _______ _______ _____ _____    ______ ____
ROOT
ATOM      1  N   UNL     1       3.899   3.992  17.011  0.00  0.00    +0.000 N 
ATOM      2  C   UNL     1       3.461   2.613  17.216  0.00  0.00    +0.000 C 
ENDROOT
BRANCH   1   3
ATOM      3  C   UNL     1       5.236   4.138  16.432  0.00  0.00    +0.000 A 
ATOM      4  C   UNL     1       6.180   4.593  17.341  0.00  0.00    +0.000 A 
ATOM      5  C   UNL     1       6.927   5.622  16.830  0.00  0.00    +0.000 A 
ATOM      6  C   UNL     1       6.231   6.966  16.725  0.00  0.00    +0.000 C 
ATOM      7  N   UNL     1       7.634   5.373  15.733  0.00  0.00    +0.000 NA
ATOM      8  C   UNL     1       6.960   4.739  14.771  0.00  0.00    +0.000 A 
ATOM      9  C   UNL     1       7.560   4.971  13.536  0.00  0.00    +0.000 A 
ATOM     10  C   UNL     1       7.015   4.481  12.357  0.00  0.00    +0.000 A 
ATOM     11  C   UNL     1       5.875   3.699  12.470  0.00  0.00    +0.000 A 
ATOM     12  C   UNL     1       5.235   3.512  13.734  0.00  0.00    +0.000 A 
ATOM     13  C   UNL     1       5.720   4.089  14.996  0.00  0.00    +0.000 A 
ENDBRANCH   1   3
BRANCH   1  16
ATOM     14  C   UNL     1       2.595   7.228  18.681  0.00  0.00    +0.000 A 
ATOM     15  C   UNL     1       3.093   6.285  17.725  0.00  0.00    +0.000 A 
ATOM     16  C   UNL     1       3.230   4.900  17.973  0.00  0.00    +0.000 A 
ATOM     17  C   UNL     1       2.792   4.497  19.258  0.00  0.00    +0.000 A 
ATOM     18  C   UNL     1       2.285   5.431  20.246  0.00  0.00    +0.000 A 
ATOM     19  C   UNL     1       2.209   6.813  19.964  0.00  0.00    +0.000 A 
BRANCH  14  21
ATOM     20  C   UNL     1       1.414   9.023  17.661  0.00  0.00    +0.000 C 
ATOM     21  O   UNL     1       2.529   8.576  18.418  0.00  0.00    +0.000 OA
ENDBRANCH  14  21
BRANCH  18  22
ATOM     22  O   UNL     1       1.924   4.841  21.450  0.00  0.00    +0.000 OA
ATOM     23  C   UNL     1       2.072   3.425  21.639  0.00  0.00    +0.000 C 
ENDBRANCH  18  22
BRANCH  19  24
ATOM     24  O   UNL     1       1.808   7.618  20.995  0.00  0.00    +0.000 OA
ATOM     25  C   UNL     1       0.552   8.268  21.122  0.00  0.00    +0.000 C 
ENDBRANCH  19  24
ENDBRANCH   1  16
TORSDOF 5
ENDMDL
MODEL 4
REMARK VINA RESULT:      -7.1      2.917      7.069
REMARK  Name = 
REMARK  10 active torsions:
REMARK  status: ('A' for Active; 'I' for Inactive)
REMARK    1  A    between atoms: C_1  and  O_2
REMARK    2  A    between atoms: O_2  and  C_3
REMARK    3  A    between atoms: C_5  and  N_6
REMARK    4  A    between atoms: N_6  and  C_7
REMARK    5  A    between atoms: N_6  and  C_8
REMARK    6  A    between atoms: C_10  and  C_11
REMARK    7  A    between atoms: C_20  and  O_21
REMARK    8  A    between atoms: O_21  and  C_22
REMARK    9  A    between atoms: C_23  and  O_24
REMARK   10  A    between atoms: O_24  and  C_25
REMARK                            x       y       z     vdW  Elec       q    Type
REMARK                         _______ _______ _______ _____ _____    ______ ____
ROOT
ATOM      1  N   UNL     1       4.038   4.035  17.075  0.00  0.00    +0.000 N 
ATOM      2  C   UNL     1       3.564   2.658  17.192  0.00  0.00    +0.000 C 
ENDROOT
BRANCH   1   3
ATOM      3  C   UNL     1       5.358   4.186  16.459  0.00  0.00    +0.000 A 
ATOM      4  C   UNL     1       6.320   4.667  17.336  0.00  0.00    +0.000 A 
ATOM      5  C   UNL     1       7.042   5.695  16.788  0.00  0.00    +0.000 A 
ATOM      6  C   UNL     1       6.328   7.029  16.678  0.00  0.00    +0.000 C 
ATOM      7  N   UNL     1       7.724   5.434  15.678  0.00  0.00    +0.000 NA
ATOM      8  C   UNL     1       7.033   4.776  14.745  0.00  0.00    +0.000 A 
ATOM      9  C   UNL     1       7.599   4.994  13.491  0.00  0.00    +0.000 A 
ATOM     10  C   UNL     1       7.029   4.477  12.334  0.00  0.00    +0.000 A 
ATOM     11  C   UNL     1       5.902   3.685  12.490  0.00  0.00    +0.000 A 
ATOM     12  C   UNL     1       5.296   3.513  13.774  0.00  0.00    +0.000 A 
ATOM     13  C   UNL     1       5.806   4.117  15.013  0.00  0.00    +0.000 A 
ENDBRANCH   1   3
BRANCH   1  16
ATOM     14  C   UNL     1       2.162   5.098  20.286  0.00  0.00    +0.000 A 
ATOM     15  C   UNL     1       2.892   4.342  19.312  0.00  0.00    +0.000 A 
ATOM     16  C   UNL     1       3.432   4.887  18.125  0.00  0.00    +0.000 A 
ATOM     17  C   UNL     1       3.224   6.281  17.983  0.00  0.00    +0.000 A 
ATOM     18  C   UNL     1       2.487   7.070  18.952  0.00  0.00    +0.000 A 
ATOM     19  C   UNL     1       1.929   6.469  20.102  0.00  0.00    +0.000 A 
BRANCH  14  21
ATOM     20  C   UNL     1       1.519   3.101  21.406  0.00  0.00    +0.000 C 
ATOM     21  O   UNL     1       1.606   4.518  21.402  0.00  0.00    +0.000 OA
ENDBRANCH  14  21
BRANCH  18  22
ATOM     22  O   UNL     1       2.378   8.415  18.621  0.00  0.00    +0.000 OA
ATOM     23  C   UNL     1       1.308   8.872  17.779  0.00  0.00    +0.000 C 
ENDBRANCH  18  22
BRANCH  19  24
ATOM     24  O   UNL     1       1.173   7.282  20.901  0.00  0.00    +0.000 OA
ATOM     25  C   UNL     1       1.636   8.385  21.666  0.00  0.00    +0.000 C 
ENDBRANCH  19  24
ENDBRANCH   1  16
TORSDOF 5
ENDMDL
MODEL 5
REMARK VINA RESULT:      -6.9      3.624      7.398
REMARK  Name = 
REMARK  10 active torsions:
REMARK  status: ('A' for Active; 'I' for Inactive)
REMARK    1  A    between atoms: C_1  and  O_2
REMARK    2  A    between atoms: O_2  and  C_3
REMARK    3  A    between atoms: C_5  and  N_6
REMARK    4  A    between atoms: N_6  and  C_7
REMARK    5  A    between atoms: N_6  and  C_8
REMARK    6  A    between atoms: C_10  and  C_11
REMARK    7  A    between atoms: C_20  and  O_21
REMARK    8  A    between atoms: O_21  and  C_22
REMARK    9  A    between atoms: C_23  and  O_24
REMARK   10  A    between atoms: O_24  and  C_25
REMARK                            x       y       z     vdW  Elec       q    Type
REMARK                         _______ _______ _______ _____ _____    ______ ____
ROOT
ATOM      1  N   UNL     1       2.017   6.024  19.595  0.00  0.00    +0.000 N 
ATOM      2  C   UNL     1       2.279   5.258  20.811  0.00  0.00    +0.000 C 
ENDROOT
BRANCH   1   3
ATOM      3  C   UNL     1       2.589   5.460  18.371  0.00  0.00    +0.000 A 
ATOM      4  C   UNL     1       1.868   4.384  17.875  0.00  0.00    +0.000 A 
ATOM      5  C   UNL     1       2.680   3.325  17.562  0.00  0.00    +0.000 A 
ATOM      6  C   UNL     1       3.237   2.540  18.736  0.00  0.00    +0.000 C 
ATOM      7  N   UNL     1       3.620   3.529  16.646  0.00  0.00    +0.000 NA
ATOM      8  C   UNL     1       4.328   4.648  16.818  0.00  0.00    +0.000 A 
ATOM      9  C   UNL     1       5.559   4.536  16.178  0.00  0.00    +0.000 A 
ATOM     10  C   UNL     1       6.518   5.538  16.261  0.00  0.00    +0.000 A 
ATOM     11  C   UNL     1       6.170   6.682  16.962  0.00  0.00    +0.000 A 
ATOM     12  C   UNL     1       4.925   6.767  17.660  0.00  0.00    +0.000 A 
ATOM     13  C   UNL     1       3.919   5.695  17.683  0.00  0.00    +0.000 A 
ENDBRANCH   1   3
BRANCH   1  16
ATOM     14  C   UNL     1       1.188   9.244  21.571  0.00  0.00    +0.000 A 
ATOM     15  C   UNL     1       1.544   7.899  21.231  0.00  0.00    +0.000 A 
ATOM     16  C   UNL     1       1.811   7.457  19.915  0.00  0.00    +0.000 A 
ATOM     17  C   UNL     1       1.734   8.477  18.936  0.00  0.00    +0.000 A 
ATOM     18  C   UNL     1       1.374   9.847  19.252  0.00  0.00    +0.000 A 
ATOM     19  C   UNL     1       1.074  10.229  20.579  0.00  0.00    +0.000 A 
BRANCH  14  21
ATOM     20  C   UNL     1      -0.478   9.511  23.249  0.00  0.00    +0.000 C 
ATOM     21  O   UNL     1       0.883   9.621  22.858  0.00  0.00    +0.000 OA
ENDBRANCH  14  21
BRANCH  18  22
ATOM     22  O   UNL     1       1.337  10.691  18.151  0.00  0.00    +0.000 OA
ATOM     23  C   UNL     1       2.418  11.602  17.896  0.00  0.00    +0.000 C 
ENDBRANCH  18  22
BRANCH  19  24
ATOM     24  O   UNL     1       0.653  11.519  20.754  0.00  0.00    +0.000 OA
ATOM     25  C   UNL     1      -0.657  12.019  20.537  0.00  0.00    +0.000 C 
ENDBRANCH  19  24
ENDBRANCH   1  16
TORSDOF 5
ENDMDL
MODEL 6
REMARK VINA RESULT:      -6.9      3.505      6.174
REMARK  Name = 
REMARK  10 active torsions:
REMARK  status: ('A' for Active; 'I' for Inactive)
REMARK    1  A    between atoms: C_1  and  O_2
REMARK    2  A    between atoms: O_2  and  C_3
REMARK    3  A    between atoms: C_5  and  N_6
REMARK    4  A    between atoms: N_6  and  C_7
REMARK    5  A    between atoms: N_6  and  C_8
REMARK    6  A    between atoms: C_10  and  C_11
REMARK    7  A    between atoms: C_20  and  O_21
REMARK    8  A    between atoms: O_21  and  C_22
REMARK    9  A    between atoms: C_23  and  O_24
REMARK   10  A    between atoms: O_24  and  C_25
REMARK                            x       y       z     vdW  Elec       q    Type
REMARK                         _______ _______ _______ _____ _____    ______ ____
ROOT
ATOM      1  N   UNL     1       1.580   9.328  18.296  0.00  0.00    +0.000 N 
ATOM      2  C   UNL     1       2.462  10.402  17.843  0.00  0.00    +0.000 C 
ENDROOT
BRANCH   1   3
ATOM      3  C   UNL     1       0.389   9.771  19.023  0.00  0.00    +0.000 A 
ATOM      4  C   UNL     1      -0.541  10.408  18.214  0.00  0.00    +0.000 A 
ATOM      5  C   UNL     1      -0.980  11.583  18.768  0.00  0.00    +0.000 A 
ATOM      6  C   UNL     1      -0.003  12.744  18.734  0.00  0.00    +0.000 C 
ATOM      7  N   UNL     1      -1.581  11.510  19.950  0.00  0.00    +0.000 NA
ATOM      8  C   UNL     1      -0.945  10.758  20.851  0.00  0.00    +0.000 A 
ATOM      9  C   UNL     1      -1.323  11.133  22.137  0.00  0.00    +0.000 A 
ATOM     10  C   UNL     1      -0.753  10.553  23.263  0.00  0.00    +0.000 A 
ATOM     11  C   UNL     1       0.169   9.540  23.048  0.00  0.00    +0.000 A 
ATOM     12  C   UNL     1       0.591   9.199  21.725  0.00  0.00    +0.000 A 
ATOM     13  C   UNL     1       0.089   9.850  20.507  0.00  0.00    +0.000 A 
ENDBRANCH   1   3
BRANCH   1  16
ATOM     14  C   UNL     1       3.993   6.375  17.653  0.00  0.00    +0.000 A 
ATOM     15  C   UNL     1       3.335   7.645  17.586  0.00  0.00    +0.000 A 
ATOM     16  C   UNL     1       2.346   8.075  18.500  0.00  0.00    +0.000 A 
ATOM     17  C   UNL     1       2.073   7.148  19.535  0.00  0.00    +0.000 A 
ATOM     18  C   UNL     1       2.724   5.854  19.625  0.00  0.00    +0.000 A 
ATOM     19  C   UNL     1       3.675   5.453  18.660  0.00  0.00    +0.000 A 
BRANCH  14  21
ATOM     20  C   UNL     1       6.260   6.365  16.928  0.00  0.00    +0.000 C 
ATOM     21  O   UNL     1       4.912   5.973  16.711  0.00  0.00    +0.000 OA
ENDBRANCH  14  21
BRANCH  18  22
ATOM     22  O   UNL     1       2.305   5.084  20.701  0.00  0.00    +0.000 OA
ATOM     23  C   UNL     1       1.176   4.205  20.572  0.00  0.00    +0.000 C 
ENDBRANCH  18  22
BRANCH  19  24
ATOM     24  O   UNL     1       4.157   4.179  18.782  0.00  0.00    +0.000 OA
ATOM     25  C   UNL     1       3.723   3.037  18.060  0.00  0.00    +0.000 C 
ENDBRANCH  19  24
ENDBRANCH   1  16
TORSDOF 5
ENDMDL
MODEL 7
REMARK VINA RESULT:      -6.8      3.798      6.600
REMARK  Name = 
REMARK  10 active torsions:
REMARK  status: ('A' for Active; 'I' for Inactive)
REMARK    1  A    between atoms: C_1  and  O_2
REMARK    2  A    between atoms: O_2  and  C_3
REMARK    3  A    between atoms: C_5  and  N_6
REMARK    4  A    between atoms: N_6  and  C_7
REMARK    5  A    between atoms: N_6  and  C_8
REMARK    6  A    between atoms: C_10  and  C_11
REMARK    7  A    between atoms: C_20  and  O_21
REMARK    8  A    between atoms: O_21  and  C_22
REMARK    9  A    between atoms: C_23  and  O_24
REMARK   10  A    between atoms: O_24  and  C_25
REMARK                            x       y       z     vdW  Elec       q    Type
REMARK                         _______ _______ _______ _____ _____    ______ ____
ROOT
ATOM      1  N   UNL     1       1.004   8.848  20.599  0.00  0.00    +0.000 N 
ATOM      2  C   UNL     1       0.041   8.410  21.608  0.00  0.00    +0.000 C 
ENDROOT
BRANCH   1   3
ATOM      3  C   UNL     1       0.629  10.062  19.871  0.00  0.00    +0.000 A 
ATOM      4  C   UNL     1       1.143  11.220  20.437  0.00  0.00    +0.000 A 
ATOM      5  C   UNL     1       0.186  12.193  20.566  0.00  0.00    +0.000 A 
ATOM      6  C   UNL     1      -0.834  11.985  21.670  0.00  0.00    +0.000 C 
ATOM      7  N   UNL     1      -0.405  12.615  19.454  0.00  0.00    +0.000 NA
ATOM      8  C   UNL     1      -0.813  11.641  18.638  0.00  0.00    +0.000 A 
ATOM      9  C   UNL     1      -1.829  12.108  17.809  0.00  0.00    +0.000 A 
ATOM     10  C   UNL     1      -2.479  11.271  16.910  0.00  0.00    +0.000 A 
ATOM     11  C   UNL     1      -2.030   9.962  16.835  0.00  0.00    +0.000 A 
ATOM     12  C   UNL     1      -1.024   9.477  17.728  0.00  0.00    +0.000 A 
ATOM     13  C   UNL     1      -0.375  10.297  18.760  0.00  0.00    +0.000 A 
ENDBRANCH   1   3
BRANCH   1  16
ATOM     14  C   UNL     1       3.157   6.639  18.266  0.00  0.00    +0.000 A 
ATOM     15  C   UNL     1       2.514   7.762  18.880  0.00  0.00    +0.000 A 
ATOM     16  C   UNL     1       1.784   7.696  20.089  0.00  0.00    +0.000 A 
ATOM     17  C   UNL     1       1.767   6.410  20.683  0.00  0.00    +0.000 A 
ATOM     18  C   UNL     1       2.408   5.256  20.082  0.00  0.00    +0.000 A 
ATOM     19  C   UNL     1       3.089   5.365  18.849  0.00  0.00    +0.000 A 
BRANCH  14  21
ATOM     20  C   UNL     1       5.222   6.895  17.112  0.00  0.00    +0.000 C 
ATOM     21  O   UNL     1       3.812   6.735  17.061  0.00  0.00    +0.000 OA
ENDBRANCH  14  21
BRANCH  18  22
ATOM     22  O   UNL     1       2.260   4.083  20.811  0.00  0.00    +0.000 OA
ATOM     23  C   UNL     1       1.085   3.272  20.654  0.00  0.00    +0.000 C 
ENDBRANCH  18  22
BRANCH  19  24
ATOM     24  O   UNL     1       3.574   4.200  18.323  0.00  0.00    +0.000 OA
ATOM     25  C   UNL     1       2.929   3.368  17.371  0.00  0.00    +0.000 C 
ENDBRANCH  19  24
ENDBRANCH   1  16
TORSDOF 5
ENDMDL
MODEL 8
REMARK VINA RESULT:      -6.8      4.282      7.393
REMARK  Name = 
REMARK  10 active torsions:
REMARK  status: ('A' for Active; 'I' for Inactive)
REMARK    1  A    between atoms: C_1  and  O_2
REMARK    2  A    between atoms: O_2  and  C_3
REMARK    3  A    between atoms: C_5  and  N_6
REMARK    4  A    between atoms: N_6  and  C_7
REMARK    5  A    between atoms: N_6  and  C_8
REMARK    6  A    between atoms: C_10  and  C_11
REMARK    7  A    between atoms: C_20  and  O_21
REMARK    8  A    between atoms: O_21  and  C_22
REMARK    9  A    between atoms: C_23  and  O_24
REMARK   10  A    between atoms: O_24  and  C_25
REMARK                            x       y       z     vdW  Elec       q    Type
REMARK                         _______ _______ _______ _____ _____    ______ ____
ROOT
ATOM      1  N   UNL     1       3.095   7.402  18.666  0.00  0.00    +0.000 N 
ATOM      2  C   UNL     1       3.237   7.578  17.222  0.00  0.00    +0.000 C 
ENDROOT
BRANCH   1   3
ATOM      3  C   UNL     1       3.511   6.094  19.175  0.00  0.00    +0.000 A 
ATOM      4  C   UNL     1       4.841   5.801  18.909  0.00  0.00    +0.000 A 
ATOM      5  C   UNL     1       4.992   4.542  18.388  0.00  0.00    +0.000 A 
ATOM      6  C   UNL     1       4.558   4.359  16.945  0.00  0.00    +0.000 C 
ATOM      7  N   UNL     1       4.584   3.522  19.134  0.00  0.00    +0.000 NA
ATOM      8  C   UNL     1       3.373   3.681  19.675  0.00  0.00    +0.000 A 
ATOM      9  C   UNL     1       2.823   2.439  19.982  0.00  0.00    +0.000 A 
ATOM     10  C   UNL     1       1.537   2.318  20.493  0.00  0.00    +0.000 A 
ATOM     11  C   UNL     1       0.846   3.495  20.738  0.00  0.00    +0.000 A 
ATOM     12  C   UNL     1       1.397   4.762  20.369  0.00  0.00    +0.000 A 
ATOM     13  C   UNL     1       2.713   4.934  19.737  0.00  0.00    +0.000 A 
ENDBRANCH   1   3
BRANCH   1  16
ATOM     14  C   UNL     1       0.210   9.975  18.798  0.00  0.00    +0.000 A 
ATOM     15  C   UNL     1       1.162   9.007  18.342  0.00  0.00    +0.000 A 
ATOM     16  C   UNL     1       2.018   8.273  19.194  0.00  0.00    +0.000 A 
ATOM     17  C   UNL     1       1.834   8.546  20.572  0.00  0.00    +0.000 A 
ATOM     18  C   UNL     1       0.879   9.523  21.061  0.00  0.00    +0.000 A 
ATOM     19  C   UNL     1       0.076  10.262  20.164  0.00  0.00    +0.000 A 
BRANCH  14  21
ATOM     20  C   UNL     1      -1.786  10.113  17.510  0.00  0.00    +0.000 C 
ATOM     21  O   UNL     1      -0.567  10.707  17.930  0.00  0.00    +0.000 OA
ENDBRANCH  14  21
BRANCH  18  22
ATOM     22  O   UNL     1       0.863   9.657  22.443  0.00  0.00    +0.000 OA
ATOM     23  C   UNL     1      -0.328   9.360  23.189  0.00  0.00    +0.000 C 
ENDBRANCH  18  22
BRANCH  19  24
ATOM     24  O   UNL     1      -0.722  11.224  20.721  0.00  0.00    +0.000 OA
ATOM     25  C   UNL     1      -0.369  12.577  20.969  0.00  0.00    +0.000 C 
ENDBRANCH  19  24
ENDBRANCH   1  16
TORSDOF 5
ENDMDL
MODEL 9
REMARK VINA RESULT:      -6.7      3.870      6.708
REMARK  Name = 
REMARK  10 active torsions:
REMARK  status: ('A' for Active; 'I' for Inactive)
REMARK    1  A    between atoms: C_1  and  O_2
REMARK    2  A    between atoms: O_2  and  C_3
REMARK    3  A    between atoms: C_5  and  N_6
REMARK    4  A    between atoms: N_6  and  C_7
REMARK    5  A    between atoms: N_6  and  C_8
REMARK    6  A    between atoms: C_10  and  C_11
REMARK    7  A    between atoms: C_20  and  O_21
REMARK    8  A    between atoms: O_21  and  C_22
REMARK    9  A    between atoms: C_23  and  O_24
REMARK   10  A    between atoms: O_24  and  C_25
REMARK                            x       y       z     vdW  Elec       q    Type
REMARK                         _______ _______ _______ _____ _____    ______ ____
ROOT
ATOM      1  N   UNL     1       1.270   9.118  20.699  0.00  0.00    +0.000 N 
ATOM      2  C   UNL     1       0.710   8.902  22.031  0.00  0.00    +0.000 C 
ENDROOT
BRANCH   1   3
ATOM      3  C   UNL     1       0.747  10.287  19.989  0.00  0.00    +0.000 A 
ATOM      4  C   UNL     1       1.119  11.491  20.569  0.00  0.00    +0.000 A 
ATOM      5  C   UNL     1       0.051  12.339  20.715  0.00  0.00    +0.000 A 
ATOM      6  C   UNL     1      -0.930  11.993  21.820  0.00  0.00    +0.000 C 
ATOM      7  N   UNL     1      -0.593  12.701  19.611  0.00  0.00    +0.000 NA
ATOM      8  C   UNL     1      -0.883  11.695  18.783  0.00  0.00    +0.000 A 
ATOM      9  C   UNL     1      -1.953  12.046  17.964  0.00  0.00    +0.000 A 
ATOM     10  C   UNL     1      -2.500  11.149  17.056  0.00  0.00    +0.000 A 
ATOM     11  C   UNL     1      -1.895   9.905  16.960  0.00  0.00    +0.000 A 
ATOM     12  C   UNL     1      -0.834   9.534  17.843  0.00  0.00    +0.000 A 
ATOM     13  C   UNL     1      -0.284  10.413  18.885  0.00  0.00    +0.000 A 
ENDBRANCH   1   3
BRANCH   1  16
ATOM     14  C   UNL     1       2.145   5.368  20.341  0.00  0.00    +0.000 A 
ATOM     15  C   UNL     1       1.588   6.607  20.794  0.00  0.00    +0.000 A 
ATOM     16  C   UNL     1       1.726   7.837  20.110  0.00  0.00    +0.000 A 
ATOM     17  C   UNL     1       2.443   7.743  18.892  0.00  0.00    +0.000 A 
ATOM     18  C   UNL     1       3.019   6.501  18.411  0.00  0.00    +0.000 A 
ATOM     19  C   UNL     1       2.891   5.307  19.154  0.00  0.00    +0.000 A 
BRANCH  14  21
ATOM     20  C   UNL     1       1.025   3.292  20.655  0.00  0.00    +0.000 C 
ATOM     21  O   UNL     1       2.034   4.204  21.065  0.00  0.00    +0.000 OA
ENDBRANCH  14  21
BRANCH  18  22
ATOM     22  O   UNL     1       3.700   6.622  17.207  0.00  0.00    +0.000 OA
ATOM     23  C   UNL     1       5.106   6.913  17.192  0.00  0.00    +0.000 C 
ENDBRANCH  18  22
BRANCH  19  24
ATOM     24  O   UNL     1       3.551   4.215  18.662  0.00  0.00    +0.000 OA
ATOM     25  C   UNL     1       4.812   3.723  19.091  0.00  0.00    +0.000 C 
ENDBRANCH  19  24
ENDBRANCH   1  16
TORSDOF 5
ENDMDL
