MODEL 1
REMARK VINA RESULT:      -6.9      0.000      0.000
REMARK  Name = 
REMARK  6 active torsions:
REMARK  status: ('A' for Active; 'I' for Inactive)
REMARK    1  A    between atoms: C_1  and  C_2
REMARK    2  A    between atoms: C_2  and  C_3
REMARK    3  A    between atoms: C_2  and  C_4
REMARK    4  A    between atoms: C_2  and  S_5
REMARK    5  A    between atoms: S_5  and  N_8
REMARK    6  A    between atoms: C_11  and  N_12
REMARK                            x       y       z     vdW  Elec       q    Type
REMARK                         _______ _______ _______ _____ _____    ______ ____
ROOT
ATOM      1  N   UNL     1       3.951   4.215  19.211  0.00  0.00    +0.000 NA
ATOM      2  C   UNL     1       5.429   4.320  19.389  0.00  0.00    +0.000 C 
ATOM      3  C   UNL     1       5.963   5.692  18.996  0.00  0.00    +0.000 C 
ATOM      4  C   UNL     1       5.472   6.141  17.621  0.00  0.00    +0.000 C 
ATOM      5  C   UNL     1       3.948   6.136  17.634  0.00  0.00    +0.000 C 
ATOM      6  C   UNL     1       3.416   4.736  17.921  0.00  0.00    +0.000 C 
ENDROOT
BRANCH   4   7
ATOM      7  N   UNL     1       6.015   5.314  16.545  0.00  0.00    +0.000 N 
ATOM      8  C   UNL     1       5.944   5.667  15.218  0.00  0.00    +0.000 C 
ATOM      9  O   UNL     1       5.460   6.720  14.827  0.00  0.00    +0.000 OA
ATOM     10  N   UNL     1       6.566   4.752  14.395  0.00  0.00    +0.000 N 
ATOM     11  C   UNL     1       6.738   4.919  12.950  0.00  0.00    +0.000 C 
ATOM     12  C   UNL     1       6.082   3.551  12.760  0.00  0.00    +0.000 C 
ATOM     13  F   UNL     1       4.817   3.561  12.270  0.00  0.00    +0.000 F 
ATOM     14  C   UNL     1       6.213   3.336  14.274  0.00  0.00    +0.000 C 
ATOM     15  H   UNL     1       6.331   4.376  16.738  0.00  0.00    +0.000 HD
ENDBRANCH   4   7
BRANCH   1  16
ATOM     16  S   UNL     1       3.276   2.708  19.710  0.00  0.00    +0.000 S 
ATOM     17  O   UNL     1       4.152   2.158  20.727  0.00  0.00    +0.000 OA
ATOM     18  O   UNL     1       2.967   1.952  18.520  0.00  0.00    +0.000 OA
BRANCH  16  20
ATOM     19  C   UNL     1       1.521   2.434  21.823  0.00  0.00    +0.000 C 
ATOM     20  C   UNL     1       1.717   3.232  20.527  0.00  0.00    +0.000 C 
ATOM     21  C   UNL     1       0.545   2.934  19.578  0.00  0.00    +0.000 C 
ATOM     22  C   UNL     1       1.744   4.732  20.843  0.00  0.00    +0.000 C 
ENDBRANCH  16  20
ENDBRANCH   1  16
TORSDOF 3
ENDMDL
MODEL 2
REMARK VINA RESULT:      -6.4      1.028      1.388
REMARK  Name = 
REMARK  6 active torsions:
REMARK  status: ('A' for Active; 'I' for Inactive)
REMARK    1  A    between atoms: C_1  and  C_2
REMARK    2  A    between atoms: C_2  and  C_3
REMARK    3  A    between atoms: C_2  and  C_4
REMARK    4  A    between atoms: C_2  and  S_5
REMARK    5  A    between atoms: S_5  and  N_8
REMARK    6  A    between atoms: C_11  and  N_12
REMARK                            x       y       z     vdW  Elec       q    Type
REMARK                         _______ _______ _______ _____ _____    ______ ____
ROOT
ATOM      1  N   UNL     1       3.953   4.135  18.927  0.00  0.00    +0.000 NA
ATOM      2  C   UNL     1       5.437   4.115  18.758  0.00  0.00    +0.000 C 
ATOM      3  C   UNL     1       5.971   5.423  18.187  0.00  0.00    +0.000 C 
ATOM      4  C   UNL     1       5.213   5.871  16.939  0.00  0.00    +0.000 C 
ATOM      5  C   UNL     1       3.737   6.000  17.299  0.00  0.00    +0.000 C 
ATOM      6  C   UNL     1       3.178   4.662  17.768  0.00  0.00    +0.000 C 
ENDROOT
BRANCH   4   7
ATOM      7  N   UNL     1       5.426   4.968  15.809  0.00  0.00    +0.000 N 
ATOM      8  C   UNL     1       6.541   5.017  15.008  0.00  0.00    +0.000 C 
ATOM      9  O   UNL     1       7.471   5.790  15.195  0.00  0.00    +0.000 OA
ATOM     10  N   UNL     1       6.539   4.036  14.039  0.00  0.00    +0.000 N 
ATOM     11  C   UNL     1       7.644   3.783  13.113  0.00  0.00    +0.000 C 
ATOM     12  C   UNL     1       6.646   3.904  11.960  0.00  0.00    +0.000 C 
ATOM     13  F   UNL     1       6.730   5.036  11.219  0.00  0.00    +0.000 F 
ATOM     14  C   UNL     1       5.519   3.865  13.002  0.00  0.00    +0.000 C 
ATOM     15  H   UNL     1       4.677   4.370  15.492  0.00  0.00    +0.000 HD
ENDBRANCH   4   7
BRANCH   1  16
ATOM     16  S   UNL     1       3.296   2.709  19.641  0.00  0.00    +0.000 S 
ATOM     17  O   UNL     1       4.290   2.188  20.559  0.00  0.00    +0.000 OA
ATOM     18  O   UNL     1       2.778   1.887  18.575  0.00  0.00    +0.000 OA
BRANCH  16  20
ATOM     19  C   UNL     1       2.209   4.825  21.041  0.00  0.00    +0.000 C 
ATOM     20  C   UNL     1       1.902   3.378  20.633  0.00  0.00    +0.000 C 
ATOM     21  C   UNL     1       1.753   2.524  21.902  0.00  0.00    +0.000 C 
ATOM     22  C   UNL     1       0.594   3.333  19.834  0.00  0.00    +0.000 C 
ENDBRANCH  16  20
ENDBRANCH   1  16
TORSDOF 3
ENDMDL
MODEL 3
REMARK VINA RESULT:      -6.4      0.645      1.096
REMARK  Name = 
REMARK  6 active torsions:
REMARK  status: ('A' for Active; 'I' for Inactive)
REMARK    1  A    between atoms: C_1  and  C_2
REMARK    2  A    between atoms: C_2  and  C_3
REMARK    3  A    between atoms: C_2  and  C_4
REMARK    4  A    between atoms: C_2  and  S_5
REMARK    5  A    between atoms: S_5  and  N_8
REMARK    6  A    between atoms: C_11  and  N_12
REMARK                            x       y       z     vdW  Elec       q    Type
REMARK                         _______ _______ _______ _____ _____    ______ ____
ROOT
ATOM      1  N   UNL     1       3.662   4.377  18.784  0.00  0.00    +0.000 NA
ATOM      2  C   UNL     1       5.077   4.078  19.155  0.00  0.00    +0.000 C 
ATOM      3  C   UNL     1       5.965   5.315  19.094  0.00  0.00    +0.000 C 
ATOM      4  C   UNL     1       5.818   6.077  17.777  0.00  0.00    +0.000 C 
ATOM      5  C   UNL     1       4.351   6.454  17.606  0.00  0.00    +0.000 C 
ATOM      6  C   UNL     1       3.476   5.206  17.560  0.00  0.00    +0.000 C 
ENDROOT
BRANCH   4   7
ATOM      7  N   UNL     1       6.326   5.314  16.639  0.00  0.00    +0.000 N 
ATOM      8  C   UNL     1       6.136   5.698  15.333  0.00  0.00    +0.000 C 
ATOM      9  O   UNL     1       5.565   6.730  15.011  0.00  0.00    +0.000 OA
ATOM     10  N   UNL     1       6.747   4.845  14.438  0.00  0.00    +0.000 N 
ATOM     11  C   UNL     1       6.801   5.061  12.991  0.00  0.00    +0.000 C 
ATOM     12  C   UNL     1       6.212   3.661  12.805  0.00  0.00    +0.000 C 
ATOM     13  F   UNL     1       4.916   3.610  12.409  0.00  0.00    +0.000 F 
ATOM     14  C   UNL     1       6.468   3.413  14.298  0.00  0.00    +0.000 C 
ATOM     15  H   UNL     1       6.709   4.391  16.779  0.00  0.00    +0.000 HD
ENDBRANCH   4   7
BRANCH   1  16
ATOM     16  S   UNL     1       2.591   3.031  18.909  0.00  0.00    +0.000 S 
ATOM     17  O   UNL     1       3.403   1.852  19.139  0.00  0.00    +0.000 OA
ATOM     18  O   UNL     1       1.684   3.090  17.789  0.00  0.00    +0.000 OA
BRANCH  16  20
ATOM     19  C   UNL     1       0.234   2.898  20.340  0.00  0.00    +0.000 C 
ATOM     20  C   UNL     1       1.678   3.403  20.459  0.00  0.00    +0.000 C 
ATOM     21  C   UNL     1       1.658   4.927  20.659  0.00  0.00    +0.000 C 
ATOM     22  C   UNL     1       2.359   2.742  21.664  0.00  0.00    +0.000 C 
ENDBRANCH  16  20
ENDBRANCH   1  16
TORSDOF 3
ENDMDL
MODEL 4
REMARK VINA RESULT:      -5.9      1.674      2.247
REMARK  Name = 
REMARK  6 active torsions:
REMARK  status: ('A' for Active; 'I' for Inactive)
REMARK    1  A    between atoms: C_1  and  C_2
REMARK    2  A    between atoms: C_2  and  C_3
REMARK    3  A    between atoms: C_2  and  C_4
REMARK    4  A    between atoms: C_2  and  S_5
REMARK    5  A    between atoms: S_5  and  N_8
REMARK    6  A    between atoms: C_11  and  N_12
REMARK                            x       y       z     vdW  Elec       q    Type
REMARK                         _______ _______ _______ _____ _____    ______ ____
ROOT
ATOM      1  N   UNL     1       4.606   5.158  18.719  0.00  0.00    +0.000 NA
ATOM      2  C   UNL     1       5.852   4.342  18.610  0.00  0.00    +0.000 C 
ATOM      3  C   UNL     1       6.971   5.090  17.896  0.00  0.00    +0.000 C 
ATOM      4  C   UNL     1       6.516   5.702  16.573  0.00  0.00    +0.000 C 
ATOM      5  C   UNL     1       5.340   6.631  16.857  0.00  0.00    +0.000 C 
ATOM      6  C   UNL     1       4.180   5.858  17.473  0.00  0.00    +0.000 C 
ENDROOT
BRANCH   4   7
ATOM      7  N   UNL     1       6.184   4.684  15.578  0.00  0.00    +0.000 N 
ATOM      8  C   UNL     1       6.636   4.726  14.281  0.00  0.00    +0.000 C 
ATOM      9  O   UNL     1       7.387   5.593  13.857  0.00  0.00    +0.000 OA
ATOM     10  N   UNL     1       6.229   3.632  13.545  0.00  0.00    +0.000 N 
ATOM     11  C   UNL     1       6.646   3.359  12.168  0.00  0.00    +0.000 C 
ATOM     12  C   UNL     1       5.168   3.246  11.791  0.00  0.00    +0.000 C 
ATOM     13  F   UNL     1       4.658   4.278  11.074  0.00  0.00    +0.000 F 
ATOM     14  C   UNL     1       4.840   3.244  13.291  0.00  0.00    +0.000 C 
ATOM     15  H   UNL     1       5.481   3.989  15.781  0.00  0.00    +0.000 HD
ENDBRANCH   4   7
BRANCH   1  16
ATOM     16  S   UNL     1       3.325   4.394  19.586  0.00  0.00    +0.000 S 
ATOM     17  O   UNL     1       2.487   5.443  20.133  0.00  0.00    +0.000 OA
ATOM     18  O   UNL     1       3.916   3.399  20.449  0.00  0.00    +0.000 OA
BRANCH  16  20
ATOM     19  C   UNL     1       1.428   4.565  17.588  0.00  0.00    +0.000 C 
ATOM     20  C   UNL     1       2.388   3.562  18.242  0.00  0.00    +0.000 C 
ATOM     21  C   UNL     1       1.568   2.416  18.857  0.00  0.00    +0.000 C 
ATOM     22  C   UNL     1       3.341   2.993  17.185  0.00  0.00    +0.000 C 
ENDBRANCH  16  20
ENDBRANCH   1  16
TORSDOF 3
ENDMDL
MODEL 5
REMARK VINA RESULT:      -5.6      1.586      2.059
REMARK  Name = 
REMARK  6 active torsions:
REMARK  status: ('A' for Active; 'I' for Inactive)
REMARK    1  A    between atoms: C_1  and  C_2
REMARK    2  A    between atoms: C_2  and  C_3
REMARK    3  A    between atoms: C_2  and  C_4
REMARK    4  A    between atoms: C_2  and  S_5
REMARK    5  A    between atoms: S_5  and  N_8
REMARK    6  A    between atoms: C_11  and  N_12
REMARK                            x       y       z     vdW  Elec       q    Type
REMARK                         _______ _______ _______ _____ _____    ______ ____
ROOT
ATOM      1  N   UNL     1       4.319   4.953  18.931  0.00  0.00    +0.000 NA
ATOM      2  C   UNL     1       5.616   4.224  18.808  0.00  0.00    +0.000 C 
ATOM      3  C   UNL     1       6.693   5.069  18.137  0.00  0.00    +0.000 C 
ATOM      4  C   UNL     1       6.213   5.701  16.831  0.00  0.00    +0.000 C 
ATOM      5  C   UNL     1       4.977   6.540  17.135  0.00  0.00    +0.000 C 
ATOM      6  C   UNL     1       3.862   5.671  17.707  0.00  0.00    +0.000 C 
ENDROOT
BRANCH   4   7
ATOM      7  N   UNL     1       5.958   4.702  15.795  0.00  0.00    +0.000 N 
ATOM      8  C   UNL     1       6.573   4.721  14.567  0.00  0.00    +0.000 C 
ATOM      9  O   UNL     1       7.417   5.547  14.249  0.00  0.00    +0.000 OA
ATOM     10  N   UNL     1       6.207   3.650  13.777  0.00  0.00    +0.000 N 
ATOM     11  C   UNL     1       6.781   3.356  12.463  0.00  0.00    +0.000 C 
ATOM     12  C   UNL     1       5.360   3.322  11.899  0.00  0.00    +0.000 C 
ATOM     13  F   UNL     1       5.000   4.379  11.131  0.00  0.00    +0.000 F 
ATOM     14  C   UNL     1       4.843   3.336  13.345  0.00  0.00    +0.000 C 
ATOM     15  H   UNL     1       5.199   4.045  15.902  0.00  0.00    +0.000 HD
ENDBRANCH   4   7
BRANCH   1  16
ATOM     16  S   UNL     1       3.081   4.076  19.752  0.00  0.00    +0.000 S 
ATOM     17  O   UNL     1       2.227   5.046  20.408  0.00  0.00    +0.000 OA
ATOM     18  O   UNL     1       3.720   3.028  20.510  0.00  0.00    +0.000 OA
BRANCH  16  20
ATOM     19  C   UNL     1       3.100   2.596  17.422  0.00  0.00    +0.000 C 
ATOM     20  C   UNL     1       2.138   3.339  18.359  0.00  0.00    +0.000 C 
ATOM     21  C   UNL     1       1.458   4.474  17.576  0.00  0.00    +0.000 C 
ATOM     22  C   UNL     1       1.069   2.369  18.878  0.00  0.00    +0.000 C 
ENDBRANCH  16  20
ENDBRANCH   1  16
TORSDOF 3
ENDMDL
MODEL 6
REMARK VINA RESULT:      -5.6      4.450      7.433
REMARK  Name = 
REMARK  6 active torsions:
REMARK  status: ('A' for Active; 'I' for Inactive)
REMARK    1  A    between atoms: C_1  and  C_2
REMARK    2  A    between atoms: C_2  and  C_3
REMARK    3  A    between atoms: C_2  and  C_4
REMARK    4  A    between atoms: C_2  and  S_5
REMARK    5  A    between atoms: S_5  and  N_8
REMARK    6  A    between atoms: C_11  and  N_12
REMARK                            x       y       z     vdW  Elec       q    Type
REMARK                         _______ _______ _______ _____ _____    ______ ____
ROOT
ATOM      1  N   UNL     1       4.434   5.793  17.696  0.00  0.00    +0.000 NA
ATOM      2  C   UNL     1       4.772   5.875  19.148  0.00  0.00    +0.000 C 
ATOM      3  C   UNL     1       3.670   5.303  20.031  0.00  0.00    +0.000 C 
ATOM      4  C   UNL     1       2.292   5.864  19.685  0.00  0.00    +0.000 C 
ATOM      5  C   UNL     1       2.014   5.571  18.215  0.00  0.00    +0.000 C 
ATOM      6  C   UNL     1       3.059   6.235  17.326  0.00  0.00    +0.000 C 
ENDROOT
BRANCH   4   7
ATOM      7  N   UNL     1       2.182   7.289  19.992  0.00  0.00    +0.000 N 
ATOM      8  C   UNL     1       1.231   7.803  20.839  0.00  0.00    +0.000 C 
ATOM      9  O   UNL     1       0.422   7.112  21.442  0.00  0.00    +0.000 OA
ATOM     10  N   UNL     1       1.357   9.167  21.008  0.00  0.00    +0.000 N 
ATOM     11  C   UNL     1       0.549   9.966  21.932  0.00  0.00    +0.000 C 
ATOM     12  C   UNL     1       0.190  10.878  20.758  0.00  0.00    +0.000 C 
ATOM     13  F   UNL     1      -1.075  10.765  20.283  0.00  0.00    +0.000 F 
ATOM     14  C   UNL     1       1.280  10.168  19.942  0.00  0.00    +0.000 C 
ATOM     15  H   UNL     1       2.718   7.962  19.465  0.00  0.00    +0.000 HD
ENDBRANCH   4   7
BRANCH   1  16
ATOM     16  S   UNL     1       5.676   6.355  16.639  0.00  0.00    +0.000 S 
ATOM     17  O   UNL     1       6.579   7.170  17.429  0.00  0.00    +0.000 OA
ATOM     18  O   UNL     1       5.038   6.894  15.463  0.00  0.00    +0.000 OA
BRANCH  16  20
ATOM     19  C   UNL     1       7.175   4.932  14.810  0.00  0.00    +0.000 C 
ATOM     20  C   UNL     1       6.550   4.799  16.205  0.00  0.00    +0.000 C 
ATOM     21  C   UNL     1       5.525   3.653  16.184  0.00  0.00    +0.000 C 
ATOM     22  C   UNL     1       7.643   4.482  17.233  0.00  0.00    +0.000 C 
ENDBRANCH  16  20
ENDBRANCH   1  16
TORSDOF 3
ENDMDL
MODEL 7
REMARK VINA RESULT:      -5.5      3.566      5.309
REMARK  Name = 
REMARK  6 active torsions:
REMARK  status: ('A' for Active; 'I' for Inactive)
REMARK    1  A    between atoms: C_1  and  C_2
REMARK    2  A    between atoms: C_2  and  C_3
REMARK    3  A    between atoms: C_2  and  C_4
REMARK    4  A    between atoms: C_2  and  S_5
REMARK    5  A    between atoms: S_5  and  N_8
REMARK    6  A    between atoms: C_11  and  N_12
REMARK                            x       y       z     vdW  Elec       q    Type
REMARK                         _______ _______ _______ _____ _____    ______ ____
ROOT
ATOM      1  N   UNL     1       4.320   3.747  18.677  0.00  0.00    +0.000 NA
ATOM      2  C   UNL     1       3.447   4.142  17.532  0.00  0.00    +0.000 C 
ATOM      3  C   UNL     1       3.990   5.352  16.782  0.00  0.00    +0.000 C 
ATOM      4  C   UNL     1       4.348   6.508  17.714  0.00  0.00    +0.000 C 
ATOM      5  C   UNL     1       5.364   6.002  18.732  0.00  0.00    +0.000 C 
ATOM      6  C   UNL     1       4.778   4.861  19.556  0.00  0.00    +0.000 C 
ENDROOT
BRANCH   4   7
ATOM      7  N   UNL     1       3.169   7.086  18.355  0.00  0.00    +0.000 N 
ATOM      8  C   UNL     1       2.575   8.248  17.926  0.00  0.00    +0.000 C 
ATOM      9  O   UNL     1       2.953   8.877  16.947  0.00  0.00    +0.000 OA
ATOM     10  N   UNL     1       1.450   8.568  18.658  0.00  0.00    +0.000 N 
ATOM     11  C   UNL     1       0.559   9.691  18.361  0.00  0.00    +0.000 C 
ATOM     12  C   UNL     1       0.743  10.161  19.805  0.00  0.00    +0.000 C 
ATOM     13  F   UNL     1       1.518  11.260  19.978  0.00  0.00    +0.000 F 
ATOM     14  C   UNL     1       1.415   8.812  20.102  0.00  0.00    +0.000 C 
ATOM     15  H   UNL     1       2.842   6.719  19.236  0.00  0.00    +0.000 HD
ENDBRANCH   4   7
BRANCH   1  16
ATOM     16  S   UNL     1       3.798   2.336  19.520  0.00  0.00    +0.000 S 
ATOM     17  O   UNL     1       4.762   2.080  20.573  0.00  0.00    +0.000 OA
ATOM     18  O   UNL     1       3.501   1.325  18.535  0.00  0.00    +0.000 OA
BRANCH  16  20
ATOM     19  C   UNL     1       2.291   4.427  20.509  0.00  0.00    +0.000 C 
ATOM     20  C   UNL     1       2.239   2.907  20.305  0.00  0.00    +0.000 C 
ATOM     21  C   UNL     1       2.105   2.225  21.677  0.00  0.00    +0.000 C 
ATOM     22  C   UNL     1       1.027   2.543  19.438  0.00  0.00    +0.000 C 
ENDBRANCH  16  20
ENDBRANCH   1  16
TORSDOF 3
ENDMDL
MODEL 8
REMARK VINA RESULT:      -5.4      3.681      5.358
REMARK  Name = 
REMARK  6 active torsions:
REMARK  status: ('A' for Active; 'I' for Inactive)
REMARK    1  A    between atoms: C_1  and  C_2
REMARK    2  A    between atoms: C_2  and  C_3
REMARK    3  A    between atoms: C_2  and  C_4
REMARK    4  A    between atoms: C_2  and  S_5
REMARK    5  A    between atoms: S_5  and  N_8
REMARK    6  A    between atoms: C_11  and  N_12
REMARK                            x       y       z     vdW  Elec       q    Type
REMARK                         _______ _______ _______ _____ _____    ______ ____
ROOT
ATOM      1  N   UNL     1       3.968   3.849  18.745  0.00  0.00    +0.000 NA
ATOM      2  C   UNL     1       3.118   4.289  17.600  0.00  0.00    +0.000 C 
ATOM      3  C   UNL     1       3.712   5.485  16.865  0.00  0.00    +0.000 C 
ATOM      4  C   UNL     1       4.108   6.617  17.811  0.00  0.00    +0.000 C 
ATOM      5  C   UNL     1       5.097   6.061  18.830  0.00  0.00    +0.000 C 
ATOM      6  C   UNL     1       4.463   4.935  19.638  0.00  0.00    +0.000 C 
ENDROOT
BRANCH   4   7
ATOM      7  N   UNL     1       2.947   7.233  18.452  0.00  0.00    +0.000 N 
ATOM      8  C   UNL     1       2.387   8.410  18.017  0.00  0.00    +0.000 C 
ATOM      9  O   UNL     1       2.782   9.021  17.034  0.00  0.00    +0.000 OA
ATOM     10  N   UNL     1       1.274   8.767  18.750  0.00  0.00    +0.000 N 
ATOM     11  C   UNL     1       0.416   9.914  18.448  0.00  0.00    +0.000 C 
ATOM     12  C   UNL     1       0.617  10.386  19.889  0.00  0.00    +0.000 C 
ATOM     13  F   UNL     1       1.425  11.463  20.055  0.00  0.00    +0.000 F 
ATOM     14  C   UNL     1       1.249   9.020  20.192  0.00  0.00    +0.000 C 
ATOM     15  H   UNL     1       2.612   6.881  19.336  0.00  0.00    +0.000 HD
ENDBRANCH   4   7
BRANCH   1  16
ATOM     16  S   UNL     1       3.387   2.451  19.571  0.00  0.00    +0.000 S 
ATOM     17  O   UNL     1       4.286   2.199  20.680  0.00  0.00    +0.000 OA
ATOM     18  O   UNL     1       3.140   1.431  18.580  0.00  0.00    +0.000 OA
BRANCH  16  20
ATOM     19  C   UNL     1       1.566   2.425  21.645  0.00  0.00    +0.000 C 
ATOM     20  C   UNL     1       1.789   3.040  20.257  0.00  0.00    +0.000 C 
ATOM     21  C   UNL     1       0.658   2.581  19.322  0.00  0.00    +0.000 C 
ATOM     22  C   UNL     1       1.772   4.570  20.361  0.00  0.00    +0.000 C 
ENDBRANCH  16  20
ENDBRANCH   1  16
TORSDOF 3
ENDMDL
MODEL 9
REMARK VINA RESULT:      -5.3     11.007     12.617
REMARK  Name = 
REMARK  6 active torsions:
REMARK  status: ('A' for Active; 'I' for Inactive)
REMARK    1  A    between atoms: C_1  and  C_2
REMARK    2  A    between atoms: C_2  and  C_3
REMARK    3  A    between atoms: C_2  and  C_4
REMARK    4  A    between atoms: C_2  and  S_5
REMARK    5  A    between atoms: S_5  and  N_8
REMARK    6  A    between atoms: C_11  and  N_12
REMARK                            x       y       z     vdW  Elec       q    Type
REMARK                         _______ _______ _______ _____ _____    ______ ____
ROOT
ATOM      1  N   UNL     1       9.249  14.489  19.134  0.00  0.00    +0.000 NA
ATOM      2  C   UNL     1       9.061  15.314  17.904  0.00  0.00    +0.000 C 
ATOM      3  C   UNL     1       8.654  16.746  18.224  0.00  0.00    +0.000 C 
ATOM      4  C   UNL     1       7.481  16.818  19.201  0.00  0.00    +0.000 C 
ATOM      5  C   UNL     1       7.872  16.069  20.470  0.00  0.00    +0.000 C 
ATOM      6  C   UNL     1       8.175  14.607  20.162  0.00  0.00    +0.000 C 
ENDROOT
BRANCH   4   7
ATOM      7  N   UNL     1       6.244  16.302  18.618  0.00  0.00    +0.000 N 
ATOM      8  C   UNL     1       5.005  16.824  18.901  0.00  0.00    +0.000 C 
ATOM      9  O   UNL     1       4.833  17.791  19.631  0.00  0.00    +0.000 OA
ATOM     10  N   UNL     1       3.997  16.202  18.195  0.00  0.00    +0.000 N 
ATOM     11  C   UNL     1       2.592  16.617  18.217  0.00  0.00    +0.000 C 
ATOM     12  C   UNL     1       2.221  15.181  18.594  0.00  0.00    +0.000 C 
ATOM     13  F   UNL     1       1.833  14.986  19.878  0.00  0.00    +0.000 F 
ATOM     14  C   UNL     1       3.664  14.777  18.260  0.00  0.00    +0.000 C 
ATOM     15  H   UNL     1       6.253  15.438  18.096  0.00  0.00    +0.000 HD
ENDBRANCH   4   7
BRANCH   1  16
ATOM     16  S   UNL     1       9.785  12.877  18.839  0.00  0.00    +0.000 S 
ATOM     17  O   UNL     1       9.416  12.540  17.478  0.00  0.00    +0.000 OA
ATOM     18  O   UNL     1       9.341  12.061  19.944  0.00  0.00    +0.000 OA
BRANCH  16  20
ATOM     19  C   UNL     1      11.976  14.348  19.648  0.00  0.00    +0.000 C 
ATOM     20  C   UNL     1      11.612  13.057  18.904  0.00  0.00    +0.000 C 
ATOM     21  C   UNL     1      12.144  13.145  17.464  0.00  0.00    +0.000 C 
ATOM     22  C   UNL     1      12.253  11.856  19.609  0.00  0.00    +0.000 C 
ENDBRANCH  16  20
ENDBRANCH   1  16
TORSDOF 3
ENDMDL
