MODEL 1
REMARK VINA RESULT:      -6.5      0.000      0.000
REMARK  Name = 
REMARK  5 active torsions:
REMARK  status: ('A' for Active; 'I' for Inactive)
REMARK    1  A    between atoms: C_1  and  C_2
REMARK    2  A    between atoms: N_4  and  C_5
REMARK    3  A    between atoms: C_5  and  C_6
REMARK    4  A    between atoms: C_6  and  O_7
REMARK    5  A    between atoms: N_10  and  C_11
REMARK                            x       y       z     vdW  Elec       q    Type
REMARK                         _______ _______ _______ _____ _____    ______ ____
ROOT
ATOM      1  C   UNL     1       4.043   7.101  17.401  0.00  0.00    +0.000 C 
ATOM      2  C   UNL     1       3.862   5.571  17.496  0.00  0.00    +0.000 C 
ATOM      3  C   UNL     1       4.782   4.850  16.512  0.00  0.00    +0.000 C 
ATOM      4  N   UNL     1       6.199   5.096  16.872  0.00  0.00    +0.000 NA
ATOM      5  C   UNL     1       6.475   4.586  18.237  0.00  0.00    +0.000 C 
ATOM      6  C   UNL     1       5.551   5.246  19.279  0.00  0.00    +0.000 C 
ATOM      7  N   UNL     1       4.168   5.080  18.839  0.00  0.00    +0.000 N 
ENDROOT
BRANCH   7   8
ATOM      8  C   UNL     1       3.204   4.353  19.628  0.00  0.00    +0.000 A 
ATOM      9  C   UNL     1       1.868   4.799  19.738  0.00  0.00    +0.000 A 
ATOM     10  C   UNL     1       0.939   4.097  20.510  0.00  0.00    +0.000 A 
ATOM     11  C   UNL     1       1.322   2.945  21.197  0.00  0.00    +0.000 A 
ATOM     12  C   UNL     1       2.636   2.488  21.108  0.00  0.00    +0.000 A 
ATOM     13  C   UNL     1       3.567   3.177  20.330  0.00  0.00    +0.000 A 
ENDBRANCH   7   8
BRANCH   4  14
ATOM     14  C   UNL     1       7.127   4.461  15.906  0.00  0.00    +0.000 C 
BRANCH  14  15
ATOM     15  C   UNL     1       6.835   4.855  14.449  0.00  0.00    +0.000 C 
BRANCH  15  16
ATOM     16  O   UNL     1       7.909   5.571  13.902  0.00  0.00    +0.000 OA
ATOM     17  H   UNL     1       8.151   6.271  14.564  0.00  0.00    +0.000 HD
ENDBRANCH  15  16
ENDBRANCH  14  15
ENDBRANCH   4  14
TORSDOF 4
ENDMDL
MODEL 2
REMARK VINA RESULT:      -6.4      0.679      1.386
REMARK  Name = 
REMARK  5 active torsions:
REMARK  status: ('A' for Active; 'I' for Inactive)
REMARK    1  A    between atoms: C_1  and  C_2
REMARK    2  A    between atoms: N_4  and  C_5
REMARK    3  A    between atoms: C_5  and  C_6
REMARK    4  A    between atoms: C_6  and  O_7
REMARK    5  A    between atoms: N_10  and  C_11
REMARK                            x       y       z     vdW  Elec       q    Type
REMARK                         _______ _______ _______ _____ _____    ______ ____
ROOT
ATOM      1  C   UNL     1       4.049   7.105  17.351  0.00  0.00    +0.000 C 
ATOM      2  C   UNL     1       3.846   5.580  17.464  0.00  0.00    +0.000 C 
ATOM      3  C   UNL     1       4.728   4.836  16.461  0.00  0.00    +0.000 C 
ATOM      4  N   UNL     1       6.157   5.063  16.780  0.00  0.00    +0.000 NA
ATOM      5  C   UNL     1       6.462   4.558  18.142  0.00  0.00    +0.000 C 
ATOM      6  C   UNL     1       5.578   5.241  19.202  0.00  0.00    +0.000 C 
ATOM      7  N   UNL     1       4.181   5.094  18.802  0.00  0.00    +0.000 N 
ENDROOT
BRANCH   7   8
ATOM      8  C   UNL     1       3.228   4.389  19.622  0.00  0.00    +0.000 A 
ATOM      9  C   UNL     1       3.583   3.198  20.295  0.00  0.00    +0.000 A 
ATOM     10  C   UNL     1       2.654   2.514  21.083  0.00  0.00    +0.000 A 
ATOM     11  C   UNL     1       1.350   2.993  21.208  0.00  0.00    +0.000 A 
ATOM     12  C   UNL     1       0.973   4.163  20.551  0.00  0.00    +0.000 A 
ATOM     13  C   UNL     1       1.899   4.858  19.771  0.00  0.00    +0.000 A 
ENDBRANCH   7   8
BRANCH   4  14
ATOM     14  C   UNL     1       7.048   4.405  15.795  0.00  0.00    +0.000 C 
BRANCH  14  15
ATOM     15  C   UNL     1       6.599   4.626  14.341  0.00  0.00    +0.000 C 
BRANCH  15  16
ATOM     16  O   UNL     1       6.354   3.401  13.704  0.00  0.00    +0.000 OA
ATOM     17  H   UNL     1       5.369   3.327  13.601  0.00  0.00    +0.000 HD
ENDBRANCH  15  16
ENDBRANCH  14  15
ENDBRANCH   4  14
TORSDOF 4
ENDMDL
MODEL 3
REMARK VINA RESULT:      -6.4      0.854      1.051
REMARK  Name = 
REMARK  5 active torsions:
REMARK  status: ('A' for Active; 'I' for Inactive)
REMARK    1  A    between atoms: C_1  and  C_2
REMARK    2  A    between atoms: N_4  and  C_5
REMARK    3  A    between atoms: C_5  and  C_6
REMARK    4  A    between atoms: C_6  and  O_7
REMARK    5  A    between atoms: N_10  and  C_11
REMARK                            x       y       z     vdW  Elec       q    Type
REMARK                         _______ _______ _______ _____ _____    ______ ____
ROOT
ATOM      1  C   UNL     1       4.046   7.252  17.401  0.00  0.00    +0.000 C 
ATOM      2  C   UNL     1       3.833   5.726  17.324  0.00  0.00    +0.000 C 
ATOM      3  C   UNL     1       4.880   5.074  16.420  0.00  0.00    +0.000 C 
ATOM      4  N   UNL     1       6.230   5.248  17.004  0.00  0.00    +0.000 NA
ATOM      5  C   UNL     1       6.295   4.608  18.341  0.00  0.00    +0.000 C 
ATOM      6  C   UNL     1       5.236   5.194  19.294  0.00  0.00    +0.000 C 
ATOM      7  N   UNL     1       3.932   5.106  18.644  0.00  0.00    +0.000 N 
ENDROOT
BRANCH   7   8
ATOM      8  C   UNL     1       2.853   4.336  19.212  0.00  0.00    +0.000 A 
ATOM      9  C   UNL     1       2.564   4.393  20.594  0.00  0.00    +0.000 A 
ATOM     10  C   UNL     1       1.523   3.639  21.142  0.00  0.00    +0.000 A 
ATOM     11  C   UNL     1       0.755   2.805  20.329  0.00  0.00    +0.000 A 
ATOM     12  C   UNL     1       1.023   2.728  18.963  0.00  0.00    +0.000 A 
ATOM     13  C   UNL     1       2.054   3.486  18.406  0.00  0.00    +0.000 A 
ENDBRANCH   7   8
BRANCH   4  14
ATOM     14  C   UNL     1       7.282   4.680  16.129  0.00  0.00    +0.000 C 
BRANCH  14  15
ATOM     15  C   UNL     1       6.934   4.778  14.634  0.00  0.00    +0.000 C 
BRANCH  15  16
ATOM     16  O   UNL     1       7.898   5.528  13.946  0.00  0.00    +0.000 OA
ATOM     17  H   UNL     1       8.425   6.013  14.635  0.00  0.00    +0.000 HD
ENDBRANCH  15  16
ENDBRANCH  14  15
ENDBRANCH   4  14
TORSDOF 4
ENDMDL
MODEL 4
REMARK VINA RESULT:      -6.4      0.742      1.023
REMARK  Name = 
REMARK  5 active torsions:
REMARK  status: ('A' for Active; 'I' for Inactive)
REMARK    1  A    between atoms: C_1  and  C_2
REMARK    2  A    between atoms: N_4  and  C_5
REMARK    3  A    between atoms: C_5  and  C_6
REMARK    4  A    between atoms: C_6  and  O_7
REMARK    5  A    between atoms: N_10  and  C_11
REMARK                            x       y       z     vdW  Elec       q    Type
REMARK                         _______ _______ _______ _____ _____    ______ ____
ROOT
ATOM      1  C   UNL     1       4.078   7.096  17.363  0.00  0.00    +0.000 C 
ATOM      2  C   UNL     1       3.915   5.561  17.365  0.00  0.00    +0.000 C 
ATOM      3  C   UNL     1       4.894   4.908  16.389  0.00  0.00    +0.000 C 
ATOM      4  N   UNL     1       6.287   5.151  16.832  0.00  0.00    +0.000 NA
ATOM      5  C   UNL     1       6.504   4.569  18.180  0.00  0.00    +0.000 C 
ATOM      6  C   UNL     1       5.520   5.158  19.208  0.00  0.00    +0.000 C 
ATOM      7  N   UNL     1       4.163   4.999  18.692  0.00  0.00    +0.000 N 
ENDROOT
BRANCH   7   8
ATOM      8  C   UNL     1       3.173   4.218  19.390  0.00  0.00    +0.000 A 
ATOM      9  C   UNL     1       2.729   2.977  18.879  0.00  0.00    +0.000 A 
ATOM     10  C   UNL     1       1.764   2.227  19.555  0.00  0.00    +0.000 A 
ATOM     11  C   UNL     1       1.211   2.699  20.745  0.00  0.00    +0.000 A 
ATOM     12  C   UNL     1       1.629   3.923  21.267  0.00  0.00    +0.000 A 
ATOM     13  C   UNL     1       2.602   4.673  20.604  0.00  0.00    +0.000 A 
ENDBRANCH   7   8
BRANCH   4  14
ATOM     14  C   UNL     1       7.271   4.583  15.881  0.00  0.00    +0.000 C 
BRANCH  14  15
ATOM     15  C   UNL     1       6.915   4.866  14.411  0.00  0.00    +0.000 C 
BRANCH  15  16
ATOM     16  O   UNL     1       7.913   5.633  13.795  0.00  0.00    +0.000 OA
ATOM     17  H   UNL     1       8.644   5.735  14.461  0.00  0.00    +0.000 HD
ENDBRANCH  15  16
ENDBRANCH  14  15
ENDBRANCH   4  14
TORSDOF 4
ENDMDL
MODEL 5
REMARK VINA RESULT:      -6.3      2.861      4.104
REMARK  Name = 
REMARK  5 active torsions:
REMARK  status: ('A' for Active; 'I' for Inactive)
REMARK    1  A    between atoms: C_1  and  C_2
REMARK    2  A    between atoms: N_4  and  C_5
REMARK    3  A    between atoms: C_5  and  C_6
REMARK    4  A    between atoms: C_6  and  O_7
REMARK    5  A    between atoms: N_10  and  C_11
REMARK                            x       y       z     vdW  Elec       q    Type
REMARK                         _______ _______ _______ _____ _____    ______ ____
ROOT
ATOM      1  C   UNL     1       3.295   4.002  17.342  0.00  0.00    +0.000 C 
ATOM      2  C   UNL     1       3.651   5.049  18.418  0.00  0.00    +0.000 C 
ATOM      3  C   UNL     1       5.083   4.853  18.918  0.00  0.00    +0.000 C 
ATOM      4  N   UNL     1       6.040   5.090  17.813  0.00  0.00    +0.000 NA
ATOM      5  C   UNL     1       5.903   6.479  17.307  0.00  0.00    +0.000 C 
ATOM      6  C   UNL     1       4.468   6.757  16.821  0.00  0.00    +0.000 C 
ATOM      7  N   UNL     1       3.542   6.410  17.896  0.00  0.00    +0.000 N 
ENDROOT
BRANCH   7   8
ATOM      8  C   UNL     1       2.672   7.393  18.492  0.00  0.00    +0.000 A 
ATOM      9  C   UNL     1       2.223   8.513  17.757  0.00  0.00    +0.000 A 
ATOM     10  C   UNL     1       1.386   9.467  18.341  0.00  0.00    +0.000 A 
ATOM     11  C   UNL     1       0.989   9.334  19.671  0.00  0.00    +0.000 A 
ATOM     12  C   UNL     1       1.422   8.240  20.420  0.00  0.00    +0.000 A 
ATOM     13  C   UNL     1       2.249   7.277  19.840  0.00  0.00    +0.000 A 
ENDBRANCH   7   8
BRANCH   4  14
ATOM     14  C   UNL     1       7.439   4.853  18.241  0.00  0.00    +0.000 C 
BRANCH  14  15
ATOM     15  C   UNL     1       7.957   5.925  19.215  0.00  0.00    +0.000 C 
BRANCH  15  16
ATOM     16  O   UNL     1       8.069   5.407  20.512  0.00  0.00    +0.000 OA
ATOM     17  H   UNL     1       7.447   5.932  21.082  0.00  0.00    +0.000 HD
ENDBRANCH  15  16
ENDBRANCH  14  15
ENDBRANCH   4  14
TORSDOF 4
ENDMDL
MODEL 6
REMARK VINA RESULT:      -6.2      2.582      3.484
REMARK  Name = 
REMARK  5 active torsions:
REMARK  status: ('A' for Active; 'I' for Inactive)
REMARK    1  A    between atoms: C_1  and  C_2
REMARK    2  A    between atoms: N_4  and  C_5
REMARK    3  A    between atoms: C_5  and  C_6
REMARK    4  A    between atoms: C_6  and  O_7
REMARK    5  A    between atoms: N_10  and  C_11
REMARK                            x       y       z     vdW  Elec       q    Type
REMARK                         _______ _______ _______ _____ _____    ______ ____
ROOT
ATOM      1  C   UNL     1       6.589   4.196  15.295  0.00  0.00    +0.000 C 
ATOM      2  C   UNL     1       6.103   4.171  16.760  0.00  0.00    +0.000 C 
ATOM      3  C   UNL     1       7.041   4.976  17.660  0.00  0.00    +0.000 C 
ATOM      4  N   UNL     1       7.016   6.404  17.266  0.00  0.00    +0.000 NA
ATOM      5  C   UNL     1       5.643   6.949  17.407  0.00  0.00    +0.000 C 
ATOM      6  C   UNL     1       4.636   6.156  16.552  0.00  0.00    +0.000 C 
ATOM      7  N   UNL     1       4.762   4.740  16.887  0.00  0.00    +0.000 N 
ENDROOT
BRANCH   7   8
ATOM      8  C   UNL     1       3.661   3.991  17.439  0.00  0.00    +0.000 A 
ATOM      9  C   UNL     1       3.780   2.608  17.708  0.00  0.00    +0.000 A 
ATOM     10  C   UNL     1       2.708   1.884  18.234  0.00  0.00    +0.000 A 
ATOM     11  C   UNL     1       1.492   2.515  18.494  0.00  0.00    +0.000 A 
ATOM     12  C   UNL     1       1.347   3.878  18.232  0.00  0.00    +0.000 A 
ATOM     13  C   UNL     1       2.417   4.611  17.717  0.00  0.00    +0.000 A 
ENDBRANCH   7   8
BRANCH   4  14
ATOM     14  C   UNL     1       7.957   7.212  18.077  0.00  0.00    +0.000 C 
BRANCH  14  15
ATOM     15  C   UNL     1       7.911   8.710  17.731  0.00  0.00    +0.000 C 
BRANCH  15  16
ATOM     16  O   UNL     1       8.732   9.446  18.597  0.00  0.00    +0.000 OA
ATOM     17  H   UNL     1       9.656   9.376  18.239  0.00  0.00    +0.000 HD
ENDBRANCH  15  16
ENDBRANCH  14  15
ENDBRANCH   4  14
TORSDOF 4
ENDMDL
MODEL 7
REMARK VINA RESULT:      -6.1      3.249      5.889
REMARK  Name = 
REMARK  5 active torsions:
REMARK  status: ('A' for Active; 'I' for Inactive)
REMARK    1  A    between atoms: C_1  and  C_2
REMARK    2  A    between atoms: N_4  and  C_5
REMARK    3  A    between atoms: C_5  and  C_6
REMARK    4  A    between atoms: C_6  and  O_7
REMARK    5  A    between atoms: N_10  and  C_11
REMARK                            x       y       z     vdW  Elec       q    Type
REMARK                         _______ _______ _______ _____ _____    ______ ____
ROOT
ATOM      1  C   UNL     1       2.059   6.352  17.987  0.00  0.00    +0.000 C 
ATOM      2  C   UNL     1       3.219   5.840  18.865  0.00  0.00    +0.000 C 
ATOM      3  C   UNL     1       2.760   4.686  19.757  0.00  0.00    +0.000 C 
ATOM      4  N   UNL     1       2.365   3.529  18.921  0.00  0.00    +0.000 NA
ATOM      5  C   UNL     1       3.519   3.068  18.109  0.00  0.00    +0.000 C 
ATOM      6  C   UNL     1       4.057   4.198  17.211  0.00  0.00    +0.000 C 
ATOM      7  N   UNL     1       4.334   5.360  18.051  0.00  0.00    +0.000 N 
ENDROOT
BRANCH   7   8
ATOM      8  C   UNL     1       5.662   5.911  18.168  0.00  0.00    +0.000 A 
ATOM      9  C   UNL     1       6.562   5.442  19.151  0.00  0.00    +0.000 A 
ATOM     10  C   UNL     1       7.845   5.984  19.266  0.00  0.00    +0.000 A 
ATOM     11  C   UNL     1       8.254   7.010  18.416  0.00  0.00    +0.000 A 
ATOM     12  C   UNL     1       7.382   7.495  17.441  0.00  0.00    +0.000 A 
ATOM     13  C   UNL     1       6.103   6.950  17.312  0.00  0.00    +0.000 A 
ENDBRANCH   7   8
BRANCH   4  14
ATOM     14  C   UNL     1       1.858   2.407  19.745  0.00  0.00    +0.000 C 
BRANCH  14  15
ATOM     15  C   UNL     1       1.158   2.878  21.032  0.00  0.00    +0.000 C 
BRANCH  15  16
ATOM     16  O   UNL     1       1.758   2.306  22.163  0.00  0.00    +0.000 OA
ATOM     17  H   UNL     1       2.570   1.830  21.844  0.00  0.00    +0.000 HD
ENDBRANCH  15  16
ENDBRANCH  14  15
ENDBRANCH   4  14
TORSDOF 4
ENDMDL
MODEL 8
REMARK VINA RESULT:      -6.1      2.213      2.989
REMARK  Name = 
REMARK  5 active torsions:
REMARK  status: ('A' for Active; 'I' for Inactive)
REMARK    1  A    between atoms: C_1  and  C_2
REMARK    2  A    between atoms: N_4  and  C_5
REMARK    3  A    between atoms: C_5  and  C_6
REMARK    4  A    between atoms: C_6  and  O_7
REMARK    5  A    between atoms: N_10  and  C_11
REMARK                            x       y       z     vdW  Elec       q    Type
REMARK                         _______ _______ _______ _____ _____    ______ ____
ROOT
ATOM      1  C   UNL     1       5.032   4.226  15.572  0.00  0.00    +0.000 C 
ATOM      2  C   UNL     1       4.906   4.034  17.098  0.00  0.00    +0.000 C 
ATOM      3  C   UNL     1       6.170   4.510  17.814  0.00  0.00    +0.000 C 
ATOM      4  N   UNL     1       6.342   5.969  17.619  0.00  0.00    +0.000 NA
ATOM      5  C   UNL     1       5.179   6.699  18.179  0.00  0.00    +0.000 C 
ATOM      6  C   UNL     1       3.862   6.239  17.526  0.00  0.00    +0.000 C 
ATOM      7  N   UNL     1       3.775   4.786  17.640  0.00  0.00    +0.000 N 
ENDROOT
BRANCH   7   8
ATOM      8  C   UNL     1       2.705   4.145  18.363  0.00  0.00    +0.000 A 
ATOM      9  C   UNL     1       2.162   2.915  17.925  0.00  0.00    +0.000 A 
ATOM     10  C   UNL     1       1.119   2.302  18.624  0.00  0.00    +0.000 A 
ATOM     11  C   UNL     1       0.588   2.902  19.764  0.00  0.00    +0.000 A 
ATOM     12  C   UNL     1       1.103   4.118  20.214  0.00  0.00    +0.000 A 
ATOM     13  C   UNL     1       2.152   4.731  19.528  0.00  0.00    +0.000 A 
ENDBRANCH   7   8
BRANCH   4  14
ATOM     14  C   UNL     1       7.590   6.461  18.249  0.00  0.00    +0.000 C 
BRANCH  14  15
ATOM     15  C   UNL     1       8.251   5.417  19.164  0.00  0.00    +0.000 C 
BRANCH  15  16
ATOM     16  O   UNL     1       7.898   5.634  20.503  0.00  0.00    +0.000 OA
ATOM     17  H   UNL     1       8.155   6.569  20.717  0.00  0.00    +0.000 HD
ENDBRANCH  15  16
ENDBRANCH  14  15
ENDBRANCH   4  14
TORSDOF 4
ENDMDL
MODEL 9
REMARK VINA RESULT:      -6.1      1.626      2.132
REMARK  Name = 
REMARK  5 active torsions:
REMARK  status: ('A' for Active; 'I' for Inactive)
REMARK    1  A    between atoms: C_1  and  C_2
REMARK    2  A    between atoms: N_4  and  C_5
REMARK    3  A    between atoms: C_5  and  C_6
REMARK    4  A    between atoms: C_6  and  O_7
REMARK    5  A    between atoms: N_10  and  C_11
REMARK                            x       y       z     vdW  Elec       q    Type
REMARK                         _______ _______ _______ _____ _____    ______ ____
ROOT
ATOM      1  C   UNL     1       6.143   7.502  17.276  0.00  0.00    +0.000 C 
ATOM      2  C   UNL     1       5.052   6.522  16.797  0.00  0.00    +0.000 C 
ATOM      3  C   UNL     1       5.342   6.034  15.377  0.00  0.00    +0.000 C 
ATOM      4  N   UNL     1       6.601   5.253  15.359  0.00  0.00    +0.000 NA
ATOM      5  C   UNL     1       6.483   4.072  16.250  0.00  0.00    +0.000 C 
ATOM      6  C   UNL     1       6.152   4.492  17.695  0.00  0.00    +0.000 C 
ATOM      7  N   UNL     1       4.970   5.349  17.666  0.00  0.00    +0.000 N 
ENDROOT
BRANCH   7   8
ATOM      8  C   UNL     1       3.752   4.983  18.346  0.00  0.00    +0.000 A 
ATOM      9  C   UNL     1       3.582   5.238  19.726  0.00  0.00    +0.000 A 
ATOM     10  C   UNL     1       2.404   4.875  20.383  0.00  0.00    +0.000 A 
ATOM     11  C   UNL     1       1.376   4.241  19.686  0.00  0.00    +0.000 A 
ATOM     12  C   UNL     1       1.521   3.973  18.324  0.00  0.00    +0.000 A 
ATOM     13  C   UNL     1       2.691   4.344  17.658  0.00  0.00    +0.000 A 
ENDBRANCH   7   8
BRANCH   4  14
ATOM     14  C   UNL     1       6.950   4.810  13.989  0.00  0.00    +0.000 C 
BRANCH  14  15
ATOM     15  C   UNL     1       5.946   3.797  13.413  0.00  0.00    +0.000 C 
BRANCH  15  16
ATOM     16  O   UNL     1       6.550   2.998  12.433  0.00  0.00    +0.000 OA
ATOM     17  H   UNL     1       7.515   3.231  12.432  0.00  0.00    +0.000 HD
ENDBRANCH  15  16
ENDBRANCH  14  15
ENDBRANCH   4  14
TORSDOF 4
ENDMDL
