MODEL 1
REMARK VINA RESULT:      -7.8      0.000      0.000
REMARK  Name = 
REMARK  2 active torsions:
REMARK  status: ('A' for Active; 'I' for Inactive)
REMARK    1  A    between atoms: C_1  and  C_8
REMARK    2  A    between atoms: C_2  and  C_3
REMARK                            x       y       z     vdW  Elec       q    Type
REMARK                         _______ _______ _______ _____ _____    ______ ____
ROOT
ATOM      1  C   UNL     1       4.295   4.871  17.203  0.00  0.00    +0.000 A 
ATOM      2  C   UNL     1       4.797   5.543  18.311  0.00  0.00    +0.000 A 
ATOM      3  C   UNL     1       4.153   5.390  19.534  0.00  0.00    +0.000 A 
ATOM      4  C   UNL     1       3.024   4.568  19.623  0.00  0.00    +0.000 A 
ATOM      5  C   UNL     1       2.345   4.376  20.839  0.00  0.00    +0.000 A 
ATOM      6  C   UNL     1       1.224   3.550  20.894  0.00  0.00    +0.000 A 
ATOM      7  C   UNL     1       0.780   2.917  19.739  0.00  0.00    +0.000 A 
ATOM      8  C   UNL     1       1.459   3.113  18.532  0.00  0.00    +0.000 A 
ATOM      9  C   UNL     1       2.580   3.927  18.448  0.00  0.00    +0.000 A 
ATOM     10  N   UNL     1       3.200   4.077  17.264  0.00  0.00    +0.000 NA
ENDROOT
BRANCH   1  11
ATOM     11  C   UNL     1       4.972   4.999  15.907  0.00  0.00    +0.000 C 
ATOM     12  C   UNL     1       6.032   4.265  15.533  0.00  0.00    +0.000 C 
BRANCH  12  13
ATOM     13  C   UNL     1       6.645   4.475  14.267  0.00  0.00    +0.000 A 
ATOM     14  C   UNL     1       6.387   3.842  13.056  0.00  0.00    +0.000 A 
ATOM     15  C   UNL     1       7.263   4.382  12.084  0.00  0.00    +0.000 A 
ATOM     16  C   UNL     1       8.015   5.321  12.739  0.00  0.00    +0.000 A 
ATOM     17  O   UNL     1       7.655   5.388  14.042  0.00  0.00    +0.000 OA
ENDBRANCH  12  13
ENDBRANCH   1  11
TORSDOF 2
ENDMDL
MODEL 2
REMARK VINA RESULT:      -7.2      1.309      1.479
REMARK  Name = 
REMARK  2 active torsions:
REMARK  status: ('A' for Active; 'I' for Inactive)
REMARK    1  A    between atoms: C_1  and  C_8
REMARK    2  A    between atoms: C_2  and  C_3
REMARK                            x       y       z     vdW  Elec       q    Type
REMARK                         _______ _______ _______ _____ _____    ______ ____
ROOT
ATOM      1  C   UNL     1       4.281   5.138  17.368  0.00  0.00    +0.000 A 
ATOM      2  C   UNL     1       3.632   6.282  17.816  0.00  0.00    +0.000 A 
ATOM      3  C   UNL     1       2.904   6.216  19.000  0.00  0.00    +0.000 A 
ATOM      4  C   UNL     1       2.843   5.012  19.709  0.00  0.00    +0.000 A 
ATOM      5  C   UNL     1       2.126   4.899  20.913  0.00  0.00    +0.000 A 
ATOM      6  C   UNL     1       2.085   3.685  21.595  0.00  0.00    +0.000 A 
ATOM      7  C   UNL     1       2.757   2.584  21.077  0.00  0.00    +0.000 A 
ATOM      8  C   UNL     1       3.467   2.701  19.879  0.00  0.00    +0.000 A 
ATOM      9  C   UNL     1       3.528   3.899  19.179  0.00  0.00    +0.000 A 
ATOM     10  N   UNL     1       4.230   3.960  18.033  0.00  0.00    +0.000 NA
ENDROOT
BRANCH   1  11
ATOM     11  C   UNL     1       5.076   5.189  16.135  0.00  0.00    +0.000 C 
ATOM     12  C   UNL     1       5.370   4.118  15.381  0.00  0.00    +0.000 C 
BRANCH  12  13
ATOM     13  C   UNL     1       6.172   4.254  14.215  0.00  0.00    +0.000 A 
ATOM     14  C   UNL     1       7.244   5.110  13.987  0.00  0.00    +0.000 A 
ATOM     15  C   UNL     1       7.711   4.888  12.670  0.00  0.00    +0.000 A 
ATOM     16  C   UNL     1       6.908   3.906  12.149  0.00  0.00    +0.000 A 
ATOM     17  O   UNL     1       5.987   3.518  13.062  0.00  0.00    +0.000 OA
ENDBRANCH  12  13
ENDBRANCH   1  11
TORSDOF 2
ENDMDL
MODEL 3
REMARK VINA RESULT:      -7.1      1.017      1.628
REMARK  Name = 
REMARK  2 active torsions:
REMARK  status: ('A' for Active; 'I' for Inactive)
REMARK    1  A    between atoms: C_1  and  C_8
REMARK    2  A    between atoms: C_2  and  C_3
REMARK                            x       y       z     vdW  Elec       q    Type
REMARK                         _______ _______ _______ _____ _____    ______ ____
ROOT
ATOM      1  C   UNL     1       4.192   3.993  16.938  0.00  0.00    +0.000 A 
ATOM      2  C   UNL     1       4.092   2.637  17.223  0.00  0.00    +0.000 A 
ATOM      3  C   UNL     1       3.361   2.240  18.338  0.00  0.00    +0.000 A 
ATOM      4  C   UNL     1       2.745   3.206  19.141  0.00  0.00    +0.000 A 
ATOM      5  C   UNL     1       1.989   2.854  20.272  0.00  0.00    +0.000 A 
ATOM      6  C   UNL     1       1.387   3.841  21.051  0.00  0.00    +0.000 A 
ATOM      7  C   UNL     1       1.540   5.178  20.702  0.00  0.00    +0.000 A 
ATOM      8  C   UNL     1       2.293   5.523  19.576  0.00  0.00    +0.000 A 
ATOM      9  C   UNL     1       2.902   4.561  18.781  0.00  0.00    +0.000 A 
ATOM     10  N   UNL     1       3.611   4.945  17.705  0.00  0.00    +0.000 NA
ENDROOT
BRANCH   1  11
ATOM     11  C   UNL     1       4.938   4.434  15.754  0.00  0.00    +0.000 C 
ATOM     12  C   UNL     1       5.982   3.773  15.229  0.00  0.00    +0.000 C 
BRANCH  12  13
ATOM     13  C   UNL     1       6.667   4.288  14.095  0.00  0.00    +0.000 A 
ATOM     14  C   UNL     1       6.537   3.927  12.757  0.00  0.00    +0.000 A 
ATOM     15  C   UNL     1       7.441   4.712  12.002  0.00  0.00    +0.000 A 
ATOM     16  C   UNL     1       8.082   5.519  12.906  0.00  0.00    +0.000 A 
ATOM     17  O   UNL     1       7.628   5.277  14.158  0.00  0.00    +0.000 OA
ENDBRANCH  12  13
ENDBRANCH   1  11
TORSDOF 2
ENDMDL
MODEL 4
REMARK VINA RESULT:      -7.1      7.825      9.920
REMARK  Name = 
REMARK  2 active torsions:
REMARK  status: ('A' for Active; 'I' for Inactive)
REMARK    1  A    between atoms: C_1  and  C_8
REMARK    2  A    between atoms: C_2  and  C_3
REMARK                            x       y       z     vdW  Elec       q    Type
REMARK                         _______ _______ _______ _____ _____    ______ ____
ROOT
ATOM      1  C   UNL     1       9.561  10.659  19.156  0.00  0.00    +0.000 A 
ATOM      2  C   UNL     1       9.655  11.153  20.451  0.00  0.00    +0.000 A 
ATOM      3  C   UNL     1      10.214  12.411  20.648  0.00  0.00    +0.000 A 
ATOM      4  C   UNL     1      10.665  13.148  19.547  0.00  0.00    +0.000 A 
ATOM      5  C   UNL     1      11.230  14.426  19.696  0.00  0.00    +0.000 A 
ATOM      6  C   UNL     1      11.668  15.135  18.578  0.00  0.00    +0.000 A 
ATOM      7  C   UNL     1      11.544  14.568  17.315  0.00  0.00    +0.000 A 
ATOM      8  C   UNL     1      10.983  13.296  17.173  0.00  0.00    +0.000 A 
ATOM      9  C   UNL     1      10.535  12.569  18.268  0.00  0.00    +0.000 A 
ATOM     10  N   UNL     1       9.997  11.351  18.077  0.00  0.00    +0.000 NA
ENDROOT
BRANCH   1  11
ATOM     11  C   UNL     1       8.953   9.345  18.921  0.00  0.00    +0.000 C 
ATOM     12  C   UNL     1       8.225   9.031  17.838  0.00  0.00    +0.000 C 
BRANCH  12  13
ATOM     13  C   UNL     1       7.647   7.739  17.705  0.00  0.00    +0.000 A 
ATOM     14  C   UNL     1       7.851   6.606  18.486  0.00  0.00    +0.000 A 
ATOM     15  C   UNL     1       7.065   5.558  17.952  0.00  0.00    +0.000 A 
ATOM     16  C   UNL     1       6.413   6.092  16.871  0.00  0.00    +0.000 A 
ATOM     17  O   UNL     1       6.751   7.394  16.714  0.00  0.00    +0.000 OA
ENDBRANCH  12  13
ENDBRANCH   1  11
TORSDOF 2
ENDMDL
MODEL 5
REMARK VINA RESULT:      -7.0      1.286      1.754
REMARK  Name = 
REMARK  2 active torsions:
REMARK  status: ('A' for Active; 'I' for Inactive)
REMARK    1  A    between atoms: C_1  and  C_8
REMARK    2  A    between atoms: C_2  and  C_3
REMARK                            x       y       z     vdW  Elec       q    Type
REMARK                         _______ _______ _______ _____ _____    ______ ____
ROOT
ATOM      1  C   UNL     1       3.691   3.684  17.249  0.00  0.00    +0.000 A 
ATOM      2  C   UNL     1       2.452   4.287  17.074  0.00  0.00    +0.000 A 
ATOM      3  C   UNL     1       1.550   4.278  18.132  0.00  0.00    +0.000 A 
ATOM      4  C   UNL     1       1.906   3.670  19.340  0.00  0.00    +0.000 A 
ATOM      5  C   UNL     1       1.031   3.643  20.440  0.00  0.00    +0.000 A 
ATOM      6  C   UNL     1       1.417   3.029  21.630  0.00  0.00    +0.000 A 
ATOM      7  C   UNL     1       2.673   2.441  21.723  0.00  0.00    +0.000 A 
ATOM      8  C   UNL     1       3.539   2.470  20.626  0.00  0.00    +0.000 A 
ATOM      9  C   UNL     1       3.182   3.077  19.430  0.00  0.00    +0.000 A 
ATOM     10  N   UNL     1       4.055   3.082  18.406  0.00  0.00    +0.000 NA
ENDROOT
BRANCH   1  11
ATOM     11  C   UNL     1       4.669   3.702  16.155  0.00  0.00    +0.000 C 
ATOM     12  C   UNL     1       5.214   4.818  15.646  0.00  0.00    +0.000 C 
BRANCH  12  13
ATOM     13  C   UNL     1       6.134   4.744  14.564  0.00  0.00    +0.000 A 
ATOM     14  C   UNL     1       6.079   3.951  13.423  0.00  0.00    +0.000 A 
ATOM     15  C   UNL     1       7.230   4.220  12.646  0.00  0.00    +0.000 A 
ATOM     16  C   UNL     1       7.938   5.167  13.340  0.00  0.00    +0.000 A 
ATOM     17  O   UNL     1       7.293   5.489  14.486  0.00  0.00    +0.000 OA
ENDBRANCH  12  13
ENDBRANCH   1  11
TORSDOF 2
ENDMDL
MODEL 6
REMARK VINA RESULT:      -7.0      5.336      6.457
REMARK  Name = 
REMARK  2 active torsions:
REMARK  status: ('A' for Active; 'I' for Inactive)
REMARK    1  A    between atoms: C_1  and  C_8
REMARK    2  A    between atoms: C_2  and  C_3
REMARK                            x       y       z     vdW  Elec       q    Type
REMARK                         _______ _______ _______ _____ _____    ______ ____
ROOT
ATOM      1  C   UNL     1       7.656   7.868  17.792  0.00  0.00    +0.000 A 
ATOM      2  C   UNL     1       8.171   7.027  18.770  0.00  0.00    +0.000 A 
ATOM      3  C   UNL     1       7.557   5.797  18.984  0.00  0.00    +0.000 A 
ATOM      4  C   UNL     1       6.445   5.435  18.216  0.00  0.00    +0.000 A 
ATOM      5  C   UNL     1       5.796   4.201  18.390  0.00  0.00    +0.000 A 
ATOM      6  C   UNL     1       4.692   3.871  17.607  0.00  0.00    +0.000 A 
ATOM      7  C   UNL     1       4.233   4.771  16.653  0.00  0.00    +0.000 A 
ATOM      8  C   UNL     1       4.882   5.998  16.484  0.00  0.00    +0.000 A 
ATOM      9  C   UNL     1       5.986   6.352  17.247  0.00  0.00    +0.000 A 
ATOM     10  N   UNL     1       6.577   7.543  17.042  0.00  0.00    +0.000 NA
ENDROOT
BRANCH   1  11
ATOM     11  C   UNL     1       8.301   9.160  17.531  0.00  0.00    +0.000 C 
ATOM     12  C   UNL     1       8.901   9.908  18.471  0.00  0.00    +0.000 C 
BRANCH  12  13
ATOM     13  C   UNL     1       9.477  11.164  18.135  0.00  0.00    +0.000 A 
ATOM     14  C   UNL     1       8.849  12.391  17.949  0.00  0.00    +0.000 A 
ATOM     15  C   UNL     1       9.840  13.344  17.613  0.00  0.00    +0.000 A 
ATOM     16  C   UNL     1      11.029  12.663  17.610  0.00  0.00    +0.000 A 
ATOM     17  O   UNL     1      10.827  11.361  17.922  0.00  0.00    +0.000 OA
ENDBRANCH  12  13
ENDBRANCH   1  11
TORSDOF 2
ENDMDL
MODEL 7
REMARK VINA RESULT:      -6.9      7.851      9.731
REMARK  Name = 
REMARK  2 active torsions:
REMARK  status: ('A' for Active; 'I' for Inactive)
REMARK    1  A    between atoms: C_1  and  C_8
REMARK    2  A    between atoms: C_2  and  C_3
REMARK                            x       y       z     vdW  Elec       q    Type
REMARK                         _______ _______ _______ _____ _____    ______ ____
ROOT
ATOM      1  C   UNL     1       9.482  10.784  19.053  0.00  0.00    +0.000 A 
ATOM      2  C   UNL     1      10.198  11.390  18.028  0.00  0.00    +0.000 A 
ATOM      3  C   UNL     1      10.709  12.667  18.234  0.00  0.00    +0.000 A 
ATOM      4  C   UNL     1      10.495  13.309  19.458  0.00  0.00    +0.000 A 
ATOM      5  C   UNL     1      10.998  14.596  19.716  0.00  0.00    +0.000 A 
ATOM      6  C   UNL     1      10.768  15.207  20.947  0.00  0.00    +0.000 A 
ATOM      7  C   UNL     1      10.035  14.536  21.920  0.00  0.00    +0.000 A 
ATOM      8  C   UNL     1       9.536  13.257  21.658  0.00  0.00    +0.000 A 
ATOM      9  C   UNL     1       9.753  12.623  20.442  0.00  0.00    +0.000 A 
ATOM     10  N   UNL     1       9.256  11.389  20.243  0.00  0.00    +0.000 NA
ENDROOT
BRANCH   1  11
ATOM     11  C   UNL     1       8.954   9.428  18.868  0.00  0.00    +0.000 C 
ATOM     12  C   UNL     1       8.201   9.046  17.824  0.00  0.00    +0.000 C 
BRANCH  12  13
ATOM     13  C   UNL     1       7.706   7.716  17.738  0.00  0.00    +0.000 A 
ATOM     14  C   UNL     1       7.936   6.642  18.592  0.00  0.00    +0.000 A 
ATOM     15  C   UNL     1       7.238   5.520  18.083  0.00  0.00    +0.000 A 
ATOM     16  C   UNL     1       6.611   5.955  16.944  0.00  0.00    +0.000 A 
ATOM     17  O   UNL     1       6.881   7.264  16.728  0.00  0.00    +0.000 OA
ENDBRANCH  12  13
ENDBRANCH   1  11
TORSDOF 2
ENDMDL
MODEL 8
REMARK VINA RESULT:      -6.9      1.210      1.849
REMARK  Name = 
REMARK  2 active torsions:
REMARK  status: ('A' for Active; 'I' for Inactive)
REMARK    1  A    between atoms: C_1  and  C_8
REMARK    2  A    between atoms: C_2  and  C_3
REMARK                            x       y       z     vdW  Elec       q    Type
REMARK                         _______ _______ _______ _____ _____    ______ ____
ROOT
ATOM      1  C   UNL     1       4.339   4.881  16.999  0.00  0.00    +0.000 A 
ATOM      2  C   UNL     1       4.130   3.605  17.506  0.00  0.00    +0.000 A 
ATOM      3  C   UNL     1       3.355   3.460  18.652  0.00  0.00    +0.000 A 
ATOM      4  C   UNL     1       2.807   4.592  19.264  0.00  0.00    +0.000 A 
ATOM      5  C   UNL     1       2.012   4.496  20.419  0.00  0.00    +0.000 A 
ATOM      6  C   UNL     1       1.480   5.644  21.004  0.00  0.00    +0.000 A 
ATOM      7  C   UNL     1       1.742   6.886  20.439  0.00  0.00    +0.000 A 
ATOM      8  C   UNL     1       2.534   6.976  19.291  0.00  0.00    +0.000 A 
ATOM      9  C   UNL     1       3.075   5.850  18.685  0.00  0.00    +0.000 A 
ATOM     10  N   UNL     1       3.826   5.991  17.578  0.00  0.00    +0.000 NA
ENDROOT
BRANCH   1  11
ATOM     11  C   UNL     1       5.133   5.057  15.777  0.00  0.00    +0.000 C 
ATOM     12  C   UNL     1       5.632   4.046  15.049  0.00  0.00    +0.000 C 
BRANCH  12  13
ATOM     13  C   UNL     1       6.417   4.307  13.892  0.00  0.00    +0.000 A 
ATOM     14  C   UNL     1       6.392   3.668  12.656  0.00  0.00    +0.000 A 
ATOM     15  C   UNL     1       7.368   4.274  11.830  0.00  0.00    +0.000 A 
ATOM     16  C   UNL     1       7.945   5.257  12.590  0.00  0.00    +0.000 A 
ATOM     17  O   UNL     1       7.385   5.288  13.823  0.00  0.00    +0.000 OA
ENDBRANCH  12  13
ENDBRANCH   1  11
TORSDOF 2
ENDMDL
MODEL 9
REMARK VINA RESULT:      -6.8      4.762      6.798
REMARK  Name = 
REMARK  2 active torsions:
REMARK  status: ('A' for Active; 'I' for Inactive)
REMARK    1  A    between atoms: C_1  and  C_8
REMARK    2  A    between atoms: C_2  and  C_3
REMARK                            x       y       z     vdW  Elec       q    Type
REMARK                         _______ _______ _______ _____ _____    ______ ____
ROOT
ATOM      1  C   UNL     1       7.541   6.799  17.859  0.00  0.00    +0.000 A 
ATOM      2  C   UNL     1       6.902   5.898  18.701  0.00  0.00    +0.000 A 
ATOM      3  C   UNL     1       6.265   4.796  18.140  0.00  0.00    +0.000 A 
ATOM      4  C   UNL     1       6.284   4.618  16.753  0.00  0.00    +0.000 A 
ATOM      5  C   UNL     1       5.661   3.516  16.141  0.00  0.00    +0.000 A 
ATOM      6  C   UNL     1       5.699   3.367  14.756  0.00  0.00    +0.000 A 
ATOM      7  C   UNL     1       6.355   4.317  13.982  0.00  0.00    +0.000 A 
ATOM      8  C   UNL     1       6.971   5.411  14.595  0.00  0.00    +0.000 A 
ATOM      9  C   UNL     1       6.952   5.584  15.973  0.00  0.00    +0.000 A 
ATOM     10  N   UNL     1       7.566   6.651  16.514  0.00  0.00    +0.000 NA
ENDROOT
BRANCH   1  11
ATOM     11  C   UNL     1       8.240   7.957  18.429  0.00  0.00    +0.000 C 
ATOM     12  C   UNL     1       8.208   9.192  17.905  0.00  0.00    +0.000 C 
BRANCH  12  13
ATOM     13  C   UNL     1       8.940  10.252  18.508  0.00  0.00    +0.000 A 
ATOM     14  C   UNL     1       9.280  11.491  17.976  0.00  0.00    +0.000 A 
ATOM     15  C   UNL     1      10.025  12.197  18.951  0.00  0.00    +0.000 A 
ATOM     16  C   UNL     1      10.106  11.363  20.036  0.00  0.00    +0.000 A 
ATOM     17  O   UNL     1       9.461  10.200  19.785  0.00  0.00    +0.000 OA
ENDBRANCH  12  13
ENDBRANCH   1  11
TORSDOF 2
ENDMDL
