MODEL 1
REMARK VINA RESULT:      -7.2      0.000      0.000
REMARK  Name = 
REMARK  3 active torsions:
REMARK  status: ('A' for Active; 'I' for Inactive)
REMARK    1  A    between atoms: C_1  and  C_2
REMARK    2  A    between atoms: C_4  and  C_5
REMARK    3  A    between atoms: C_20  and  C_21
REMARK                            x       y       z     vdW  Elec       q    Type
REMARK                         _______ _______ _______ _____ _____    ______ ____
ROOT
ATOM      1  C   UNL     1      -6.916  11.478  18.559  0.00  0.00    +0.000 C 
ATOM      2  C   UNL     1      -5.584  11.843  19.108  0.00  0.00    +0.000 A 
ATOM      3  N   UNL     1      -5.367  12.370  20.279  0.00  0.00    +0.000 NA
ATOM      4  C   UNL     1      -4.014  12.586  20.368  0.00  0.00    +0.000 A 
ATOM      5  C   UNL     1      -3.361  12.162  19.207  0.00  0.00    +0.000 A 
ATOM      6  C   UNL     1      -2.012  12.082  18.648  0.00  0.00    +0.000 A 
ATOM      7  N   UNL     1      -0.814  12.557  19.203  0.00  0.00    +0.000 N 
ATOM      8  C   UNL     1      -0.706  13.876  19.826  0.00  0.00    +0.000 C 
ATOM      9  C   UNL     1       0.315  13.780  20.989  0.00  0.00    +0.000 C 
ATOM     10  C   UNL     1       1.673  13.529  20.407  0.00  0.00    +0.000 A 
ATOM     11  C   UNL     1       2.806  14.095  20.967  0.00  0.00    +0.000 A 
ATOM     12  C   UNL     1       3.798  14.494  20.100  0.00  0.00    +0.000 A 
ATOM     13  C   UNL     1       3.581  14.311  18.730  0.00  0.00    +0.000 A 
ATOM     14  N   UNL     1       2.619  13.444  18.242  0.00  0.00    +0.000 NA
ATOM     15  C   UNL     1       1.699  12.991  19.125  0.00  0.00    +0.000 A 
ATOM     16  C   UNL     1       0.527  12.031  18.771  0.00  0.00    +0.000 C 
ATOM     17  N   UNL     1      -1.913  11.485  17.491  0.00  0.00    +0.000 NA
ATOM     18  C   UNL     1      -3.024  11.047  16.822  0.00  0.00    +0.000 A 
ATOM     19  N   UNL     1      -4.251  11.112  17.220  0.00  0.00    +0.000 NA
ATOM     20  N   UNL     1      -4.395  11.671  18.430  0.00  0.00    +0.000 N 
ENDROOT
BRANCH   4  21
ATOM     21  C   UNL     1      -3.515  13.191  21.582  0.00  0.00    +0.000 A 
ATOM     22  C   UNL     1      -2.901  12.437  22.579  0.00  0.00    +0.000 A 
ATOM     23  C   UNL     1      -2.341  13.068  23.698  0.00  0.00    +0.000 A 
ATOM     24  C   UNL     1      -2.450  14.446  23.864  0.00  0.00    +0.000 A 
ATOM     25  C   UNL     1      -3.157  15.194  22.930  0.00  0.00    +0.000 A 
ATOM     26  C   UNL     1      -3.676  14.570  21.796  0.00  0.00    +0.000 A 
ATOM     27  F   UNL     1      -4.321  15.344  20.908  0.00  0.00    +0.000 F 
ENDBRANCH   4  21
BRANCH  13  28
ATOM     28  C   UNL     1       4.234  15.359  17.815  0.00  0.00    +0.000 C 
ATOM     29  F   UNL     1       3.494  15.610  16.686  0.00  0.00    +0.000 F 
ATOM     30  F   UNL     1       4.438  16.571  18.391  0.00  0.00    +0.000 F 
ATOM     31  F   UNL     1       5.447  14.944  17.338  0.00  0.00    +0.000 F 
ENDBRANCH  13  28
TORSDOF 2
ENDMDL
MODEL 2
REMARK VINA RESULT:      -7.1      0.851      1.386
REMARK  Name = 
REMARK  3 active torsions:
REMARK  status: ('A' for Active; 'I' for Inactive)
REMARK    1  A    between atoms: C_1  and  C_2
REMARK    2  A    between atoms: C_4  and  C_5
REMARK    3  A    between atoms: C_20  and  C_21
REMARK                            x       y       z     vdW  Elec       q    Type
REMARK                         _______ _______ _______ _____ _____    ______ ____
ROOT
ATOM      1  C   UNL     1      -6.801  11.359  18.616  0.00  0.00    +0.000 C 
ATOM      2  C   UNL     1      -5.497  11.815  19.163  0.00  0.00    +0.000 A 
ATOM      3  N   UNL     1      -5.333  12.487  20.268  0.00  0.00    +0.000 NA
ATOM      4  C   UNL     1      -3.987  12.738  20.378  0.00  0.00    +0.000 A 
ATOM      5  C   UNL     1      -3.284  12.188  19.303  0.00  0.00    +0.000 A 
ATOM      6  C   UNL     1      -1.914  12.067  18.807  0.00  0.00    +0.000 A 
ATOM      7  N   UNL     1      -0.745  12.630  19.342  0.00  0.00    +0.000 N 
ATOM      8  C   UNL     1      -0.681  14.018  19.800  0.00  0.00    +0.000 C 
ATOM      9  C   UNL     1       0.296  14.085  21.003  0.00  0.00    +0.000 C 
ATOM     10  C   UNL     1       1.679  13.791  20.505  0.00  0.00    +0.000 A 
ATOM     11  C   UNL     1       2.781  14.444  21.032  0.00  0.00    +0.000 A 
ATOM     12  C   UNL     1       3.799  14.753  20.159  0.00  0.00    +0.000 A 
ATOM     13  C   UNL     1       3.637  14.399  18.815  0.00  0.00    +0.000 A 
ATOM     14  N   UNL     1       2.708  13.459  18.403  0.00  0.00    +0.000 NA
ATOM     15  C   UNL     1       1.763  13.100  19.302  0.00  0.00    +0.000 A 
ATOM     16  C   UNL     1       0.620  12.081  19.026  0.00  0.00    +0.000 C 
ATOM     17  N   UNL     1      -1.762  11.334  17.737  0.00  0.00    +0.000 NA
ATOM     18  C   UNL     1      -2.839  10.796  17.087  0.00  0.00    +0.000 A 
ATOM     19  N   UNL     1      -4.081  10.884  17.429  0.00  0.00    +0.000 NA
ATOM     20  N   UNL     1      -4.280  11.585  18.555  0.00  0.00    +0.000 N 
ENDROOT
BRANCH   4  21
ATOM     21  C   UNL     1      -3.544  13.497  21.526  0.00  0.00    +0.000 A 
ATOM     22  C   UNL     1      -3.831  14.853  21.663  0.00  0.00    +0.000 A 
ATOM     23  C   UNL     1      -3.473  15.536  22.834  0.00  0.00    +0.000 A 
ATOM     24  C   UNL     1      -2.766  14.888  23.844  0.00  0.00    +0.000 A 
ATOM     25  C   UNL     1      -2.379  13.564  23.669  0.00  0.00    +0.000 A 
ATOM     26  C   UNL     1      -2.774  12.877  22.523  0.00  0.00    +0.000 A 
ATOM     27  F   UNL     1      -2.402  11.590  22.419  0.00  0.00    +0.000 F 
ENDBRANCH   4  21
BRANCH  13  28
ATOM     28  C   UNL     1       4.309  15.339  17.801  0.00  0.00    +0.000 C 
ATOM     29  F   UNL     1       5.528  14.873  17.375  0.00  0.00    +0.000 F 
ATOM     30  F   UNL     1       3.592  15.564  16.670  0.00  0.00    +0.000 F 
ATOM     31  F   UNL     1       4.587  16.566  18.339  0.00  0.00    +0.000 F 
ENDBRANCH  13  28
TORSDOF 2
ENDMDL
MODEL 3
REMARK VINA RESULT:      -7.1      3.685      5.428
REMARK  Name = 
REMARK  3 active torsions:
REMARK  status: ('A' for Active; 'I' for Inactive)
REMARK    1  A    between atoms: C_1  and  C_2
REMARK    2  A    between atoms: C_4  and  C_5
REMARK    3  A    between atoms: C_20  and  C_21
REMARK                            x       y       z     vdW  Elec       q    Type
REMARK                         _______ _______ _______ _____ _____    ______ ____
ROOT
ATOM      1  C   UNL     1      -3.700  10.397  15.169  0.00  0.00    +0.000 C 
ATOM      2  C   UNL     1      -3.884  10.918  16.549  0.00  0.00    +0.000 A 
ATOM      3  N   UNL     1      -5.020  11.279  17.075  0.00  0.00    +0.000 NA
ATOM      4  C   UNL     1      -4.738  11.734  18.341  0.00  0.00    +0.000 A 
ATOM      5  C   UNL     1      -3.372  11.638  18.616  0.00  0.00    +0.000 A 
ATOM      6  C   UNL     1      -2.427  11.911  19.699  0.00  0.00    +0.000 A 
ATOM      7  N   UNL     1      -2.683  12.511  20.942  0.00  0.00    +0.000 N 
ATOM      8  C   UNL     1      -3.513  13.707  21.080  0.00  0.00    +0.000 C 
ATOM      9  C   UNL     1      -4.262  13.620  22.435  0.00  0.00    +0.000 C 
ATOM     10  C   UNL     1      -3.256  13.734  23.540  0.00  0.00    +0.000 A 
ATOM     11  C   UNL     1      -3.556  14.408  24.712  0.00  0.00    +0.000 A 
ATOM     12  C   UNL     1      -2.537  15.125  25.296  0.00  0.00    +0.000 A 
ATOM     13  C   UNL     1      -1.291  15.130  24.658  0.00  0.00    +0.000 A 
ATOM     14  N   UNL     1      -0.942  14.184  23.709  0.00  0.00    +0.000 NA
ATOM     15  C   UNL     1      -1.942  13.426  23.205  0.00  0.00    +0.000 A 
ATOM     16  C   UNL     1      -1.761  12.329  22.117  0.00  0.00    +0.000 C 
ATOM     17  N   UNL     1      -1.195  11.539  19.481  0.00  0.00    +0.000 NA
ATOM     18  C   UNL     1      -0.815  11.011  18.277  0.00  0.00    +0.000 A 
ATOM     19  N   UNL     1      -1.570  10.773  17.256  0.00  0.00    +0.000 NA
ATOM     20  N   UNL     1      -2.858  11.090  17.454  0.00  0.00    +0.000 N 
ENDROOT
BRANCH   4  21
ATOM     21  C   UNL     1      -5.846  12.218  19.134  0.00  0.00    +0.000 A 
ATOM     22  C   UNL     1      -6.351  11.491  20.209  0.00  0.00    +0.000 A 
ATOM     23  C   UNL     1      -7.359  12.034  21.018  0.00  0.00    +0.000 A 
ATOM     24  C   UNL     1      -7.917  13.274  20.719  0.00  0.00    +0.000 A 
ATOM     25  C   UNL     1      -7.496  13.959  19.585  0.00  0.00    +0.000 A 
ATOM     26  C   UNL     1      -6.464  13.436  18.807  0.00  0.00    +0.000 A 
ATOM     27  F   UNL     1      -6.073  14.153  17.741  0.00  0.00    +0.000 F 
ENDBRANCH   4  21
BRANCH  13  28
ATOM     28  C   UNL     1      -0.470  16.418  24.827  0.00  0.00    +0.000 C 
ATOM     29  F   UNL     1       0.202  16.465  26.023  0.00  0.00    +0.000 F 
ATOM     30  F   UNL     1       0.475  16.620  23.873  0.00  0.00    +0.000 F 
ATOM     31  F   UNL     1      -1.258  17.536  24.839  0.00  0.00    +0.000 F 
ENDBRANCH  13  28
TORSDOF 2
ENDMDL
MODEL 4
REMARK VINA RESULT:      -6.7      3.795      5.604
REMARK  Name = 
REMARK  3 active torsions:
REMARK  status: ('A' for Active; 'I' for Inactive)
REMARK    1  A    between atoms: C_1  and  C_2
REMARK    2  A    between atoms: C_4  and  C_5
REMARK    3  A    between atoms: C_20  and  C_21
REMARK                            x       y       z     vdW  Elec       q    Type
REMARK                         _______ _______ _______ _____ _____    ______ ____
ROOT
ATOM      1  C   UNL     1      -3.195  10.188  14.956  0.00  0.00    +0.000 C 
ATOM      2  C   UNL     1      -3.494  10.783  16.284  0.00  0.00    +0.000 A 
ATOM      3  N   UNL     1      -4.639  11.288  16.647  0.00  0.00    +0.000 NA
ATOM      4  C   UNL     1      -4.471  11.762  17.925  0.00  0.00    +0.000 A 
ATOM      5  C   UNL     1      -3.171  11.530  18.380  0.00  0.00    +0.000 A 
ATOM      6  C   UNL     1      -2.347  11.744  19.570  0.00  0.00    +0.000 A 
ATOM      7  N   UNL     1      -2.689  12.420  20.751  0.00  0.00    +0.000 N 
ATOM      8  C   UNL     1      -3.389  13.704  20.746  0.00  0.00    +0.000 C 
ATOM      9  C   UNL     1      -4.310  13.758  21.992  0.00  0.00    +0.000 C 
ATOM     10  C   UNL     1      -3.448  13.807  23.216  0.00  0.00    +0.000 A 
ATOM     11  C   UNL     1      -3.816  14.560  24.320  0.00  0.00    +0.000 A 
ATOM     12  C   UNL     1      -2.805  15.186  25.013  0.00  0.00    +0.000 A 
ATOM     13  C   UNL     1      -1.495  15.027  24.544  0.00  0.00    +0.000 A 
ATOM     14  N   UNL     1      -1.138  14.010  23.676  0.00  0.00    +0.000 NA
ATOM     15  C   UNL     1      -2.145  13.345  23.066  0.00  0.00    +0.000 A 
ATOM     16  C   UNL     1      -1.952  12.189  22.042  0.00  0.00    +0.000 C 
ATOM     17  N   UNL     1      -1.147  11.232  19.526  0.00  0.00    +0.000 NA
ATOM     18  C   UNL     1      -0.679  10.615  18.398  0.00  0.00    +0.000 A 
ATOM     19  N   UNL     1      -1.320  10.418  17.294  0.00  0.00    +0.000 NA
ATOM     20  N   UNL     1      -2.578  10.881  17.312  0.00  0.00    +0.000 N 
ENDROOT
BRANCH   4  21
ATOM     21  C   UNL     1      -5.609  12.397  18.553  0.00  0.00    +0.000 A 
ATOM     22  C   UNL     1      -5.977  13.706  18.252  0.00  0.00    +0.000 A 
ATOM     23  C   UNL     1      -7.142  14.257  18.804  0.00  0.00    +0.000 A 
ATOM     24  C   UNL     1      -7.908  13.531  19.711  0.00  0.00    +0.000 A 
ATOM     25  C   UNL     1      -7.490  12.264  20.102  0.00  0.00    +0.000 A 
ATOM     26  C   UNL     1      -6.355  11.703  19.520  0.00  0.00    +0.000 A 
ATOM     27  F   UNL     1      -6.013  10.463  19.908  0.00  0.00    +0.000 F 
ENDBRANCH   4  21
BRANCH  13  28
ATOM     28  C   UNL     1      -0.562  16.225  24.783  0.00  0.00    +0.000 C 
ATOM     29  F   UNL     1       0.448  16.301  23.856  0.00  0.00    +0.000 F 
ATOM     30  F   UNL     1      -1.171  17.437  24.756  0.00  0.00    +0.000 F 
ATOM     31  F   UNL     1       0.089  16.141  25.984  0.00  0.00    +0.000 F 
ENDBRANCH  13  28
TORSDOF 2
ENDMDL
MODEL 5
REMARK VINA RESULT:      -6.7      3.191      4.419
REMARK  Name = 
REMARK  3 active torsions:
REMARK  status: ('A' for Active; 'I' for Inactive)
REMARK    1  A    between atoms: C_1  and  C_2
REMARK    2  A    between atoms: C_4  and  C_5
REMARK    3  A    between atoms: C_20  and  C_21
REMARK                            x       y       z     vdW  Elec       q    Type
REMARK                         _______ _______ _______ _____ _____    ______ ____
ROOT
ATOM      1  C   UNL     1      -4.467  12.613  24.705  0.00  0.00    +0.000 C 
ATOM      2  C   UNL     1      -3.338  12.595  23.739  0.00  0.00    +0.000 A 
ATOM      3  N   UNL     1      -2.694  11.533  23.347  0.00  0.00    +0.000 NA
ATOM      4  C   UNL     1      -1.708  11.964  22.494  0.00  0.00    +0.000 A 
ATOM      5  C   UNL     1      -1.749  13.352  22.340  0.00  0.00    +0.000 A 
ATOM      6  C   UNL     1      -1.053  14.419  21.622  0.00  0.00    +0.000 A 
ATOM      7  N   UNL     1       0.085  14.317  20.807  0.00  0.00    +0.000 N 
ATOM      8  C   UNL     1       1.252  13.521  21.186  0.00  0.00    +0.000 C 
ATOM      9  C   UNL     1       1.876  12.933  19.894  0.00  0.00    +0.000 C 
ATOM     10  C   UNL     1       2.440  14.062  19.084  0.00  0.00    +0.000 A 
ATOM     11  C   UNL     1       3.612  13.908  18.363  0.00  0.00    +0.000 A 
ATOM     12  C   UNL     1       4.453  14.996  18.300  0.00  0.00    +0.000 A 
ATOM     13  C   UNL     1       4.069  16.159  18.977  0.00  0.00    +0.000 A 
ATOM     14  N   UNL     1       2.763  16.385  19.379  0.00  0.00    +0.000 NA
ATOM     15  C   UNL     1       1.924  15.325  19.353  0.00  0.00    +0.000 A 
ATOM     16  C   UNL     1       0.430  15.367  19.786  0.00  0.00    +0.000 C 
ATOM     17  N   UNL     1      -1.564  15.614  21.750  0.00  0.00    +0.000 NA
ATOM     18  C   UNL     1      -2.628  15.846  22.578  0.00  0.00    +0.000 A 
ATOM     19  N   UNL     1      -3.277  14.974  23.277  0.00  0.00    +0.000 NA
ATOM     20  N   UNL     1      -2.820  13.722  23.135  0.00  0.00    +0.000 N 
ENDROOT
BRANCH   4  21
ATOM     21  C   UNL     1      -0.831  10.962  21.932  0.00  0.00    +0.000 A 
ATOM     22  C   UNL     1       0.014  10.195  22.730  0.00  0.00    +0.000 A 
ATOM     23  C   UNL     1       0.778   9.165  22.164  0.00  0.00    +0.000 A 
ATOM     24  C   UNL     1       0.757   8.939  20.790  0.00  0.00    +0.000 A 
ATOM     25  C   UNL     1       0.002   9.770  19.971  0.00  0.00    +0.000 A 
ATOM     26  C   UNL     1      -0.790  10.766  20.541  0.00  0.00    +0.000 A 
ATOM     27  F   UNL     1      -1.526  11.520  19.708  0.00  0.00    +0.000 F 
ENDBRANCH   4  21
BRANCH  13  28
ATOM     28  C   UNL     1       5.222  17.008  19.534  0.00  0.00    +0.000 C 
ATOM     29  F   UNL     1       4.783  18.114  20.220  0.00  0.00    +0.000 F 
ATOM     30  F   UNL     1       6.048  16.355  20.391  0.00  0.00    +0.000 F 
ATOM     31  F   UNL     1       6.014  17.519  18.542  0.00  0.00    +0.000 F 
ENDBRANCH  13  28
TORSDOF 2
ENDMDL
MODEL 6
REMARK VINA RESULT:      -6.5      1.360      1.711
REMARK  Name = 
REMARK  3 active torsions:
REMARK  status: ('A' for Active; 'I' for Inactive)
REMARK    1  A    between atoms: C_1  and  C_2
REMARK    2  A    between atoms: C_4  and  C_5
REMARK    3  A    between atoms: C_20  and  C_21
REMARK                            x       y       z     vdW  Elec       q    Type
REMARK                         _______ _______ _______ _____ _____    ______ ____
ROOT
ATOM      1  C   UNL     1      -7.485  11.651  19.727  0.00  0.00    +0.000 C 
ATOM      2  C   UNL     1      -6.166  12.171  20.173  0.00  0.00    +0.000 A 
ATOM      3  N   UNL     1      -5.954  12.870  21.252  0.00  0.00    +0.000 NA
ATOM      4  C   UNL     1      -4.616  13.178  21.263  0.00  0.00    +0.000 A 
ATOM      5  C   UNL     1      -3.967  12.637  20.150  0.00  0.00    +0.000 A 
ATOM      6  C   UNL     1      -2.631  12.562  19.561  0.00  0.00    +0.000 A 
ATOM      7  N   UNL     1      -1.452  13.183  20.003  0.00  0.00    +0.000 N 
ATOM      8  C   UNL     1      -1.415  14.580  20.433  0.00  0.00    +0.000 C 
ATOM      9  C   UNL     1      -0.360  14.711  21.562  0.00  0.00    +0.000 C 
ATOM     10  C   UNL     1       0.996  14.465  20.973  0.00  0.00    +0.000 A 
ATOM     11  C   UNL     1       2.104  15.173  21.410  0.00  0.00    +0.000 A 
ATOM     12  C   UNL     1       3.044  15.505  20.462  0.00  0.00    +0.000 A 
ATOM     13  C   UNL     1       2.804  15.119  19.139  0.00  0.00    +0.000 A 
ATOM     14  N   UNL     1       1.889  14.134  18.810  0.00  0.00    +0.000 NA
ATOM     15  C   UNL     1       1.024  13.754  19.778  0.00  0.00    +0.000 A 
ATOM     16  C   UNL     1      -0.091  12.684  19.601  0.00  0.00    +0.000 C 
ATOM     17  N   UNL     1      -2.523  11.815  18.496  0.00  0.00    +0.000 NA
ATOM     18  C   UNL     1      -3.619  11.220  17.932  0.00  0.00    +0.000 A 
ATOM     19  N   UNL     1      -4.837  11.265  18.360  0.00  0.00    +0.000 NA
ATOM     20  N   UNL     1      -4.986  11.979  19.485  0.00  0.00    +0.000 N 
ENDROOT
BRANCH   4  21
ATOM     21  C   UNL     1      -4.127  13.977  22.364  0.00  0.00    +0.000 A 
ATOM     22  C   UNL     1      -4.362  15.348  22.437  0.00  0.00    +0.000 A 
ATOM     23  C   UNL     1      -3.960  16.075  23.566  0.00  0.00    +0.000 A 
ATOM     24  C   UNL     1      -3.260  15.453  24.597  0.00  0.00    +0.000 A 
ATOM     25  C   UNL     1      -2.924  14.109  24.483  0.00  0.00    +0.000 A 
ATOM     26  C   UNL     1      -3.362  13.380  23.379  0.00  0.00    +0.000 A 
ATOM     27  F   UNL     1      -3.039  12.077  23.335  0.00  0.00    +0.000 F 
ENDBRANCH   4  21
BRANCH  13  28
ATOM     28  C   UNL     1       3.363  16.066  18.065  0.00  0.00    +0.000 C 
ATOM     29  F   UNL     1       2.400  16.879  17.522  0.00  0.00    +0.000 F 
ATOM     30  F   UNL     1       4.342  16.902  18.497  0.00  0.00    +0.000 F 
ATOM     31  F   UNL     1       3.875  15.387  16.993  0.00  0.00    +0.000 F 
ENDBRANCH  13  28
TORSDOF 2
ENDMDL
MODEL 7
REMARK VINA RESULT:      -6.5      3.962      7.009
REMARK  Name = 
REMARK  3 active torsions:
REMARK  status: ('A' for Active; 'I' for Inactive)
REMARK    1  A    between atoms: C_1  and  C_2
REMARK    2  A    between atoms: C_4  and  C_5
REMARK    3  A    between atoms: C_20  and  C_21
REMARK                            x       y       z     vdW  Elec       q    Type
REMARK                         _______ _______ _______ _____ _____    ______ ____
ROOT
ATOM      1  C   UNL     1       1.471   9.446  18.343  0.00  0.00    +0.000 C 
ATOM      2  C   UNL     1       1.093  10.733  18.982  0.00  0.00    +0.000 A 
ATOM      3  N   UNL     1       1.206  11.911  18.436  0.00  0.00    +0.000 NA
ATOM      4  C   UNL     1       0.786  12.821  19.376  0.00  0.00    +0.000 A 
ATOM      5  C   UNL     1       0.384  12.180  20.550  0.00  0.00    +0.000 A 
ATOM      6  C   UNL     1      -0.151  12.501  21.873  0.00  0.00    +0.000 A 
ATOM      7  N   UNL     1      -0.377  13.768  22.432  0.00  0.00    +0.000 N 
ATOM      8  C   UNL     1       0.594  14.856  22.328  0.00  0.00    +0.000 C 
ATOM      9  C   UNL     1      -0.186  16.194  22.244  0.00  0.00    +0.000 C 
ATOM     10  C   UNL     1      -0.869  16.427  23.557  0.00  0.00    +0.000 A 
ATOM     11  C   UNL     1      -0.988  17.703  24.084  0.00  0.00    +0.000 A 
ATOM     12  C   UNL     1      -0.883  17.825  25.450  0.00  0.00    +0.000 A 
ATOM     13  C   UNL     1      -0.651  16.663  26.195  0.00  0.00    +0.000 A 
ATOM     14  N   UNL     1      -0.886  15.397  25.685  0.00  0.00    +0.000 NA
ATOM     15  C   UNL     1      -1.073  15.302  24.348  0.00  0.00    +0.000 A 
ATOM     16  C   UNL     1      -1.327  13.972  23.581  0.00  0.00    +0.000 C 
ATOM     17  N   UNL     1      -0.466  11.477  22.619  0.00  0.00    +0.000 NA
ATOM     18  C   UNL     1      -0.221  10.196  22.207  0.00  0.00    +0.000 A 
ATOM     19  N   UNL     1       0.283   9.822  21.077  0.00  0.00    +0.000 NA
ATOM     20  N   UNL     1       0.573  10.841  20.255  0.00  0.00    +0.000 N 
ENDROOT
BRANCH   4  21
ATOM     21  C   UNL     1       0.836  14.220  19.014  0.00  0.00    +0.000 A 
ATOM     22  C   UNL     1      -0.319  14.947  18.740  0.00  0.00    +0.000 A 
ATOM     23  C   UNL     1      -0.244  16.325  18.490  0.00  0.00    +0.000 A 
ATOM     24  C   UNL     1       0.989  16.970  18.444  0.00  0.00    +0.000 A 
ATOM     25  C   UNL     1       2.155  16.232  18.608  0.00  0.00    +0.000 A 
ATOM     26  C   UNL     1       2.075  14.871  18.898  0.00  0.00    +0.000 A 
ATOM     27  F   UNL     1       3.230  14.211  19.080  0.00  0.00    +0.000 F 
ENDBRANCH   4  21
BRANCH  13  28
ATOM     28  C   UNL     1       0.179  16.855  27.474  0.00  0.00    +0.000 C 
ATOM     29  F   UNL     1      -0.475  17.602  28.422  0.00  0.00    +0.000 F 
ATOM     30  F   UNL     1       0.534  15.704  28.101  0.00  0.00    +0.000 F 
ATOM     31  F   UNL     1       1.336  17.546  27.240  0.00  0.00    +0.000 F 
ENDBRANCH  13  28
TORSDOF 2
ENDMDL
MODEL 8
REMARK VINA RESULT:      -6.4      3.684      5.949
REMARK  Name = 
REMARK  3 active torsions:
REMARK  status: ('A' for Active; 'I' for Inactive)
REMARK    1  A    between atoms: C_1  and  C_2
REMARK    2  A    between atoms: C_4  and  C_5
REMARK    3  A    between atoms: C_20  and  C_21
REMARK                            x       y       z     vdW  Elec       q    Type
REMARK                         _______ _______ _______ _____ _____    ______ ____
ROOT
ATOM      1  C   UNL     1      -0.634  17.637  26.539  0.00  0.00    +0.000 C 
ATOM      2  C   UNL     1      -1.025  16.707  25.447  0.00  0.00    +0.000 A 
ATOM      3  N   UNL     1      -2.165  16.082  25.359  0.00  0.00    +0.000 NA
ATOM      4  C   UNL     1      -2.096  15.300  24.231  0.00  0.00    +0.000 A 
ATOM      5  C   UNL     1      -0.867  15.457  23.586  0.00  0.00    +0.000 A 
ATOM      6  C   UNL     1      -0.156  14.975  22.402  0.00  0.00    +0.000 A 
ATOM      7  N   UNL     1      -0.570  14.003  21.478  0.00  0.00    +0.000 N 
ATOM      8  C   UNL     1      -1.178  12.738  21.888  0.00  0.00    +0.000 C 
ATOM      9  C   UNL     1      -2.215  12.329  20.810  0.00  0.00    +0.000 C 
ATOM     10  C   UNL     1      -1.479  11.998  19.547  0.00  0.00    +0.000 A 
ATOM     11  C   UNL     1      -1.906  10.972  18.719  0.00  0.00    +0.000 A 
ATOM     12  C   UNL     1      -0.931  10.228  18.096  0.00  0.00    +0.000 A 
ATOM     13  C   UNL     1       0.406  10.552  18.355  0.00  0.00    +0.000 A 
ATOM     14  N   UNL     1       0.781  11.772  18.891  0.00  0.00    +0.000 NA
ATOM     15  C   UNL     1      -0.202  12.534  19.425  0.00  0.00    +0.000 A 
ATOM     16  C   UNL     1       0.016  13.921  20.094  0.00  0.00    +0.000 C 
ATOM     17  N   UNL     1       1.006  15.527  22.176  0.00  0.00    +0.000 NA
ATOM     18  C   UNL     1       1.543  16.432  23.051  0.00  0.00    +0.000 A 
ATOM     19  N   UNL     1       1.006  16.883  24.135  0.00  0.00    +0.000 NA
ATOM     20  N   UNL     1      -0.214  16.382  24.380  0.00  0.00    +0.000 N 
ENDROOT
BRANCH   4  21
ATOM     21  C   UNL     1      -3.246  14.481  23.920  0.00  0.00    +0.000 A 
ATOM     22  C   UNL     1      -3.531  13.317  24.628  0.00  0.00    +0.000 A 
ATOM     23  C   UNL     1      -4.707  12.600  24.366  0.00  0.00    +0.000 A 
ATOM     24  C   UNL     1      -5.570  13.001  23.350  0.00  0.00    +0.000 A 
ATOM     25  C   UNL     1      -5.239  14.099  22.564  0.00  0.00    +0.000 A 
ATOM     26  C   UNL     1      -4.091  14.835  22.855  0.00  0.00    +0.000 A 
ATOM     27  F   UNL     1      -3.836  15.906  22.086  0.00  0.00    +0.000 F 
ENDBRANCH   4  21
BRANCH  13  28
ATOM     28  C   UNL     1       1.389   9.371  18.320  0.00  0.00    +0.000 C 
ATOM     29  F   UNL     1       1.532   8.766  19.545  0.00  0.00    +0.000 F 
ATOM     30  F   UNL     1       1.052   8.375  17.461  0.00  0.00    +0.000 F 
ATOM     31  F   UNL     1       2.656   9.763  17.987  0.00  0.00    +0.000 F 
ENDBRANCH  13  28
TORSDOF 2
ENDMDL
MODEL 9
REMARK VINA RESULT:      -6.4      3.676      5.285
REMARK  Name = 
REMARK  3 active torsions:
REMARK  status: ('A' for Active; 'I' for Inactive)
REMARK    1  A    between atoms: C_1  and  C_2
REMARK    2  A    between atoms: C_4  and  C_5
REMARK    3  A    between atoms: C_20  and  C_21
REMARK                            x       y       z     vdW  Elec       q    Type
REMARK                         _______ _______ _______ _____ _____    ______ ____
ROOT
ATOM      1  C   UNL     1      -3.836  10.688  16.119  0.00  0.00    +0.000 C 
ATOM      2  C   UNL     1      -3.929  11.302  17.469  0.00  0.00    +0.000 A 
ATOM      3  N   UNL     1      -5.029  11.692  18.048  0.00  0.00    +0.000 NA
ATOM      4  C   UNL     1      -4.665  12.235  19.256  0.00  0.00    +0.000 A 
ATOM      5  C   UNL     1      -3.282  12.169  19.440  0.00  0.00    +0.000 A 
ATOM      6  C   UNL     1      -2.266  12.523  20.431  0.00  0.00    +0.000 A 
ATOM      7  N   UNL     1      -2.441  13.206  21.645  0.00  0.00    +0.000 N 
ATOM      8  C   UNL     1      -3.273  14.403  21.759  0.00  0.00    +0.000 C 
ATOM      9  C   UNL     1      -3.925  14.407  23.166  0.00  0.00    +0.000 C 
ATOM     10  C   UNL     1      -2.845  14.604  24.187  0.00  0.00    +0.000 A 
ATOM     11  C   UNL     1      -3.069  15.357  25.328  0.00  0.00    +0.000 A 
ATOM     12  C   UNL     1      -2.021  16.120  25.787  0.00  0.00    +0.000 A 
ATOM     13  C   UNL     1      -0.823  16.088  25.064  0.00  0.00    +0.000 A 
ATOM     14  N   UNL     1      -0.530  15.081  24.160  0.00  0.00    +0.000 NA
ATOM     15  C   UNL     1      -1.554  14.283  23.782  0.00  0.00    +0.000 A 
ATOM     16  C   UNL     1      -1.437  13.114  22.761  0.00  0.00    +0.000 C 
ATOM     17  N   UNL     1      -1.048  12.146  20.153  0.00  0.00    +0.000 NA
ATOM     18  C   UNL     1      -0.747  11.538  18.965  0.00  0.00    +0.000 A 
ATOM     19  N   UNL     1      -1.569  11.224  18.019  0.00  0.00    +0.000 NA
ATOM     20  N   UNL     1      -2.843  11.545  18.285  0.00  0.00    +0.000 N 
ENDROOT
BRANCH   4  21
ATOM     21  C   UNL     1      -5.719  12.766  20.091  0.00  0.00    +0.000 A 
ATOM     22  C   UNL     1      -6.140  12.112  21.246  0.00  0.00    +0.000 A 
ATOM     23  C   UNL     1      -7.094  12.703  22.085  0.00  0.00    +0.000 A 
ATOM     24  C   UNL     1      -7.686  13.916  21.742  0.00  0.00    +0.000 A 
ATOM     25  C   UNL     1      -7.354  14.523  20.536  0.00  0.00    +0.000 A 
ATOM     26  C   UNL     1      -6.373  13.954  19.725  0.00  0.00    +0.000 A 
ATOM     27  F   UNL     1      -6.065  14.599  18.588  0.00  0.00    +0.000 F 
ENDBRANCH   4  21
BRANCH  13  28
ATOM     28  C   UNL     1      -0.007  17.391  25.084  0.00  0.00    +0.000 C 
ATOM     29  F   UNL     1      -0.156  18.126  23.934  0.00  0.00    +0.000 F 
ATOM     30  F   UNL     1      -0.314  18.239  26.099  0.00  0.00    +0.000 F 
ATOM     31  F   UNL     1       1.338  17.157  25.163  0.00  0.00    +0.000 F 
ENDBRANCH  13  28
TORSDOF 2
ENDMDL
