MODEL 1
REMARK VINA RESULT:      -8.1      0.000      0.000
REMARK  Name = 
REMARK  5 active torsions:
REMARK  status: ('A' for Active; 'I' for Inactive)
REMARK    1  A    between atoms: C_4  and  C_6
REMARK    2  A    between atoms: N_14  and  C_15
REMARK    3  A    between atoms: C_19  and  O_20
REMARK    4  A    between atoms: O_20  and  C_21
REMARK    5  A    between atoms: C_21  and  C_24
REMARK                            x       y       z     vdW  Elec       q    Type
REMARK                         _______ _______ _______ _____ _____    ______ ____
ROOT
ATOM      1  O   UNL     1       0.096   9.855  18.668  0.00  0.00    +0.000 OA
ATOM      2  C   UNL     1       0.288   9.884  19.879  0.00  0.00    +0.000 C 
ATOM      3  N   UNL     1      -0.263  10.923  20.599  0.00  0.00    +0.000 N 
ATOM      4  C   UNL     1      -0.166  11.162  21.955  0.00  0.00    +0.000 C 
ATOM      5  O   UNL     1       0.363  10.377  22.736  0.00  0.00    +0.000 OA
ATOM      6  N   UNL     1       0.998   8.969  20.618  0.00  0.00    +0.000 N 
ATOM      7  H   UNL     1      -0.780  11.564  20.009  0.00  0.00    +0.000 HD
ATOM      8  H   UNL     1       0.908   9.077  21.628  0.00  0.00    +0.000 HD
ENDROOT
BRANCH   4   9
ATOM      9  C   UNL     1      -0.760  12.420  22.463  0.00  0.00    +0.000 A 
ATOM     10  C   UNL     1      -0.186  13.667  22.211  0.00  0.00    +0.000 A 
ATOM     11  F   UNL     1       0.962  13.764  21.524  0.00  0.00    +0.000 F 
ATOM     12  C   UNL     1      -0.789  14.841  22.661  0.00  0.00    +0.000 A 
ATOM     13  C   UNL     1      -1.980  14.778  23.380  0.00  0.00    +0.000 A 
ATOM     14  C   UNL     1      -2.558  13.538  23.653  0.00  0.00    +0.000 A 
ATOM     15  C   UNL     1      -1.947  12.371  23.193  0.00  0.00    +0.000 A 
ATOM     16  F   UNL     1      -2.522  11.201  23.504  0.00  0.00    +0.000 F 
ENDBRANCH   4   9
BRANCH   6  17
ATOM     17  C   UNL     1       1.663   7.827  20.144  0.00  0.00    +0.000 A 
ATOM     18  C   UNL     1       2.525   7.849  19.051  0.00  0.00    +0.000 A 
ATOM     19  C   UNL     1       3.106   6.671  18.549  0.00  0.00    +0.000 A 
ATOM     20 CL   UNL     1       4.018   6.887  17.096  0.00  0.00    +0.000 Cl
ATOM     21  C   UNL     1       2.857   5.439  19.171  0.00  0.00    +0.000 A 
ATOM     22  C   UNL     1       2.006   5.437  20.295  0.00  0.00    +0.000 A 
ATOM     23 CL   UNL     1       1.604   3.959  21.109  0.00  0.00    +0.000 Cl
ATOM     24  C   UNL     1       1.429   6.614  20.787  0.00  0.00    +0.000 A 
BRANCH  21  25
ATOM     25  O   UNL     1       3.271   4.197  18.767  0.00  0.00    +0.000 OA
BRANCH  25  26
ATOM     26  C   UNL     1       2.695   3.570  17.622  0.00  0.00    +0.000 C 
ATOM     27  F   UNL     1       1.546   4.232  17.330  0.00  0.00    +0.000 F 
ATOM     28  F   UNL     1       3.532   3.651  16.559  0.00  0.00    +0.000 F 
BRANCH  26  29
ATOM     29  C   UNL     1       2.360   2.108  17.917  0.00  0.00    +0.000 C 
ATOM     30  F   UNL     1       3.311   1.539  18.708  0.00  0.00    +0.000 F 
ATOM     31  F   UNL     1       1.186   2.000  18.598  0.00  0.00    +0.000 F 
ENDBRANCH  26  29
ENDBRANCH  25  26
ENDBRANCH  21  25
ENDBRANCH   6  17
TORSDOF 5
ENDMDL
MODEL 2
REMARK VINA RESULT:      -8.1      0.184      1.546
REMARK  Name = 
REMARK  5 active torsions:
REMARK  status: ('A' for Active; 'I' for Inactive)
REMARK    1  A    between atoms: C_4  and  C_6
REMARK    2  A    between atoms: N_14  and  C_15
REMARK    3  A    between atoms: C_19  and  O_20
REMARK    4  A    between atoms: O_20  and  C_21
REMARK    5  A    between atoms: C_21  and  C_24
REMARK                            x       y       z     vdW  Elec       q    Type
REMARK                         _______ _______ _______ _____ _____    ______ ____
ROOT
ATOM      1  O   UNL     1      -0.053   9.892  18.717  0.00  0.00    +0.000 OA
ATOM      2  C   UNL     1       0.179   9.942  19.920  0.00  0.00    +0.000 C 
ATOM      3  N   UNL     1      -0.367  10.981  20.644  0.00  0.00    +0.000 N 
ATOM      4  C   UNL     1      -0.231  11.240  21.992  0.00  0.00    +0.000 C 
ATOM      5  O   UNL     1       0.338  10.476  22.766  0.00  0.00    +0.000 OA
ATOM      6  N   UNL     1       0.929   9.050  20.647  0.00  0.00    +0.000 N 
ATOM      7  H   UNL     1      -0.915  11.604  20.063  0.00  0.00    +0.000 HD
ATOM      8  H   UNL     1       0.870   9.170  21.658  0.00  0.00    +0.000 HD
ENDROOT
BRANCH   4   9
ATOM      9  C   UNL     1      -0.831  12.495  22.503  0.00  0.00    +0.000 A 
ATOM     10  C   UNL     1      -2.013  12.505  23.243  0.00  0.00    +0.000 A 
ATOM     11  F   UNL     1      -2.677  11.365  23.486  0.00  0.00    +0.000 F 
ATOM     12  C   UNL     1      -2.534  13.694  23.752  0.00  0.00    +0.000 A 
ATOM     13  C   UNL     1      -1.874  14.897  23.517  0.00  0.00    +0.000 A 
ATOM     14  C   UNL     1      -0.699  14.906  22.765  0.00  0.00    +0.000 A 
ATOM     15  C   UNL     1      -0.185  13.707  22.265  0.00  0.00    +0.000 A 
ATOM     16  F   UNL     1       0.930  13.767  21.524  0.00  0.00    +0.000 F 
ENDBRANCH   4   9
BRANCH   6  17
ATOM     17  C   UNL     1       1.599   7.913  20.167  0.00  0.00    +0.000 A 
ATOM     18  C   UNL     1       2.456   7.944  19.070  0.00  0.00    +0.000 A 
ATOM     19  C   UNL     1       3.042   6.771  18.562  0.00  0.00    +0.000 A 
ATOM     20 CL   UNL     1       3.946   6.997  17.106  0.00  0.00    +0.000 Cl
ATOM     21  C   UNL     1       2.803   5.535  19.182  0.00  0.00    +0.000 A 
ATOM     22  C   UNL     1       1.958   5.525  20.309  0.00  0.00    +0.000 A 
ATOM     23 CL   UNL     1       1.568   4.042  21.120  0.00  0.00    +0.000 Cl
ATOM     24  C   UNL     1       1.375   6.698  20.807  0.00  0.00    +0.000 A 
BRANCH  21  25
ATOM     25  O   UNL     1       3.223   4.298  18.772  0.00  0.00    +0.000 OA
BRANCH  25  26
ATOM     26  C   UNL     1       2.600   3.641  17.669  0.00  0.00    +0.000 C 
ATOM     27  F   UNL     1       1.477   4.340  17.360  0.00  0.00    +0.000 F 
ATOM     28  F   UNL     1       3.421   3.629  16.591  0.00  0.00    +0.000 F 
BRANCH  26  29
ATOM     29  C   UNL     1       2.203   2.213  18.043  0.00  0.00    +0.000 C 
ATOM     30  F   UNL     1       2.931   1.765  19.103  0.00  0.00    +0.000 F 
ATOM     31  F   UNL     1       0.898   2.149  18.427  0.00  0.00    +0.000 F 
ENDBRANCH  26  29
ENDBRANCH  25  26
ENDBRANCH  21  25
ENDBRANCH   6  17
TORSDOF 5
ENDMDL
MODEL 3
REMARK VINA RESULT:      -7.9      0.668      1.827
REMARK  Name = 
REMARK  5 active torsions:
REMARK  status: ('A' for Active; 'I' for Inactive)
REMARK    1  A    between atoms: C_4  and  C_6
REMARK    2  A    between atoms: N_14  and  C_15
REMARK    3  A    between atoms: C_19  and  O_20
REMARK    4  A    between atoms: O_20  and  C_21
REMARK    5  A    between atoms: C_21  and  C_24
REMARK                            x       y       z     vdW  Elec       q    Type
REMARK                         _______ _______ _______ _____ _____    ______ ____
ROOT
ATOM      1  O   UNL     1       0.449   9.600  18.413  0.00  0.00    +0.000 OA
ATOM      2  C   UNL     1       0.601   9.635  19.630  0.00  0.00    +0.000 C 
ATOM      3  N   UNL     1       0.078  10.709  20.319  0.00  0.00    +0.000 N 
ATOM      4  C   UNL     1       0.139  10.959  21.675  0.00  0.00    +0.000 C 
ATOM      5  O   UNL     1       0.603  10.159  22.482  0.00  0.00    +0.000 OA
ATOM      6  N   UNL     1       1.240   8.696  20.403  0.00  0.00    +0.000 N 
ATOM      7  H   UNL     1      -0.387  11.366  19.705  0.00  0.00    +0.000 HD
ATOM      8  H   UNL     1       1.120   8.820  21.408  0.00  0.00    +0.000 HD
ENDROOT
BRANCH   4   9
ATOM      9  C   UNL     1      -0.410  12.251  22.148  0.00  0.00    +0.000 A 
ATOM     10  C   UNL     1       0.155  13.475  21.787  0.00  0.00    +0.000 A 
ATOM     11  F   UNL     1       1.254  13.520  21.019  0.00  0.00    +0.000 F 
ATOM     12  C   UNL     1      -0.408  14.679  22.207  0.00  0.00    +0.000 A 
ATOM     13  C   UNL     1      -1.547  14.670  23.008  0.00  0.00    +0.000 A 
ATOM     14  C   UNL     1      -2.114  13.455  23.391  0.00  0.00    +0.000 A 
ATOM     15  C   UNL     1      -1.544  12.256  22.958  0.00  0.00    +0.000 A 
ATOM     16  F   UNL     1      -2.106  11.112  23.374  0.00  0.00    +0.000 F 
ENDBRANCH   4   9
BRANCH   6  17
ATOM     17  C   UNL     1       1.865   7.517  19.964  0.00  0.00    +0.000 A 
ATOM     18  C   UNL     1       1.736   6.298  20.625  0.00  0.00    +0.000 A 
ATOM     19  C   UNL     1       2.445   5.158  20.209  0.00  0.00    +0.000 A 
ATOM     20 CL   UNL     1       2.272   3.789  21.250  0.00  0.00    +0.000 Cl
ATOM     21  C   UNL     1       3.278   5.215  19.081  0.00  0.00    +0.000 A 
ATOM     22  C   UNL     1       3.374   6.448  18.406  0.00  0.00    +0.000 A 
ATOM     23 CL   UNL     1       4.409   6.632  17.026  0.00  0.00    +0.000 Cl
ATOM     24  C   UNL     1       2.667   7.580  18.829  0.00  0.00    +0.000 A 
BRANCH  21  25
ATOM     25  O   UNL     1       4.097   4.232  18.593  0.00  0.00    +0.000 OA
BRANCH  25  26
ATOM     26  C   UNL     1       3.612   3.277  17.650  0.00  0.00    +0.000 C 
ATOM     27  F   UNL     1       2.412   3.724  17.198  0.00  0.00    +0.000 F 
ATOM     28  F   UNL     1       4.462   3.164  16.601  0.00  0.00    +0.000 F 
BRANCH  26  29
ATOM     29  C   UNL     1       3.412   1.914  18.313  0.00  0.00    +0.000 C 
ATOM     30  F   UNL     1       4.154   1.811  19.450  0.00  0.00    +0.000 F 
ATOM     31  F   UNL     1       2.116   1.736  18.690  0.00  0.00    +0.000 F 
ENDBRANCH  26  29
ENDBRANCH  25  26
ENDBRANCH  21  25
ENDBRANCH   6  17
TORSDOF 5
ENDMDL
MODEL 4
REMARK VINA RESULT:      -7.8      0.517      2.347
REMARK  Name = 
REMARK  5 active torsions:
REMARK  status: ('A' for Active; 'I' for Inactive)
REMARK    1  A    between atoms: C_4  and  C_6
REMARK    2  A    between atoms: N_14  and  C_15
REMARK    3  A    between atoms: C_19  and  O_20
REMARK    4  A    between atoms: O_20  and  C_21
REMARK    5  A    between atoms: C_21  and  C_24
REMARK                            x       y       z     vdW  Elec       q    Type
REMARK                         _______ _______ _______ _____ _____    ______ ____
ROOT
ATOM      1  O   UNL     1      -0.402   9.777  18.797  0.00  0.00    +0.000 OA
ATOM      2  C   UNL     1      -0.049   9.890  19.966  0.00  0.00    +0.000 C 
ATOM      3  N   UNL     1      -0.549  10.947  20.696  0.00  0.00    +0.000 N 
ATOM      4  C   UNL     1      -0.281  11.274  22.010  0.00  0.00    +0.000 C 
ATOM      5  O   UNL     1       0.389  10.563  22.752  0.00  0.00    +0.000 OA
ATOM      6  N   UNL     1       0.801   9.055  20.649  0.00  0.00    +0.000 N 
ATOM      7  H   UNL     1      -1.174  11.527  20.149  0.00  0.00    +0.000 HD
ATOM      8  H   UNL     1       0.844   9.221  21.655  0.00  0.00    +0.000 HD
ENDROOT
BRANCH   4   9
ATOM      9  C   UNL     1      -0.865  12.535  22.525  0.00  0.00    +0.000 A 
ATOM     10  C   UNL     1      -2.049  12.558  23.263  0.00  0.00    +0.000 A 
ATOM     11  F   UNL     1      -2.728  11.426  23.500  0.00  0.00    +0.000 F 
ATOM     12  C   UNL     1      -2.553  13.752  23.776  0.00  0.00    +0.000 A 
ATOM     13  C   UNL     1      -1.876  14.947  23.547  0.00  0.00    +0.000 A 
ATOM     14  C   UNL     1      -0.700  14.942  22.797  0.00  0.00    +0.000 A 
ATOM     15  C   UNL     1      -0.202  13.739  22.294  0.00  0.00    +0.000 A 
ATOM     16  F   UNL     1       0.915  13.786  21.555  0.00  0.00    +0.000 F 
ENDBRANCH   4   9
BRANCH   6  17
ATOM     17  C   UNL     1       1.454   7.915  20.152  0.00  0.00    +0.000 A 
ATOM     18  C   UNL     1       1.350   6.660  20.746  0.00  0.00    +0.000 A 
ATOM     19  C   UNL     1       2.087   5.559  20.273  0.00  0.00    +0.000 A 
ATOM     20 CL   UNL     1       1.941   4.133  21.240  0.00  0.00    +0.000 Cl
ATOM     21  C   UNL     1       2.922   5.695  19.154  0.00  0.00    +0.000 A 
ATOM     22  C   UNL     1       2.993   6.964  18.546  0.00  0.00    +0.000 A 
ATOM     23 CL   UNL     1       4.028   7.244  17.182  0.00  0.00    +0.000 Cl
ATOM     24  C   UNL     1       2.259   8.056  19.025  0.00  0.00    +0.000 A 
BRANCH  21  25
ATOM     25  O   UNL     1       3.764   4.758  18.618  0.00  0.00    +0.000 OA
BRANCH  25  26
ATOM     26  C   UNL     1       3.320   3.881  17.584  0.00  0.00    +0.000 C 
ATOM     27  F   UNL     1       2.007   4.144  17.362  0.00  0.00    +0.000 F 
ATOM     28  F   UNL     1       4.012   4.099  16.439  0.00  0.00    +0.000 F 
BRANCH  26  29
ATOM     29  C   UNL     1       3.464   2.420  18.014  0.00  0.00    +0.000 C 
ATOM     30  F   UNL     1       3.784   2.330  19.334  0.00  0.00    +0.000 F 
ATOM     31  F   UNL     1       2.291   1.745  17.862  0.00  0.00    +0.000 F 
ENDBRANCH  26  29
ENDBRANCH  25  26
ENDBRANCH  21  25
ENDBRANCH   6  17
TORSDOF 5
ENDMDL
MODEL 5
REMARK VINA RESULT:      -7.8      1.205      2.253
REMARK  Name = 
REMARK  5 active torsions:
REMARK  status: ('A' for Active; 'I' for Inactive)
REMARK    1  A    between atoms: C_4  and  C_6
REMARK    2  A    between atoms: N_14  and  C_15
REMARK    3  A    between atoms: C_19  and  O_20
REMARK    4  A    between atoms: O_20  and  C_21
REMARK    5  A    between atoms: C_21  and  C_24
REMARK                            x       y       z     vdW  Elec       q    Type
REMARK                         _______ _______ _______ _____ _____    ______ ____
ROOT
ATOM      1  O   UNL     1       1.938   9.275  22.592  0.00  0.00    +0.000 OA
ATOM      2  C   UNL     1       1.100   9.528  21.732  0.00  0.00    +0.000 C 
ATOM      3  N   UNL     1       0.290  10.629  21.919  0.00  0.00    +0.000 N 
ATOM      4  C   UNL     1      -0.718  11.090  21.097  0.00  0.00    +0.000 C 
ATOM      5  O   UNL     1      -0.953  10.609  19.993  0.00  0.00    +0.000 OA
ATOM      6  N   UNL     1       0.882   8.830  20.570  0.00  0.00    +0.000 N 
ATOM      7  H   UNL     1       0.496  11.111  22.786  0.00  0.00    +0.000 HD
ATOM      8  H   UNL     1       0.256   9.289  19.908  0.00  0.00    +0.000 HD
ENDROOT
BRANCH   4   9
ATOM      9  C   UNL     1      -1.518  12.236  21.589  0.00  0.00    +0.000 A 
ATOM     10  C   UNL     1      -1.607  13.437  20.884  0.00  0.00    +0.000 A 
ATOM     11  F   UNL     1      -0.928  13.609  19.740  0.00  0.00    +0.000 F 
ATOM     12  C   UNL     1      -2.404  14.485  21.344  0.00  0.00    +0.000 A 
ATOM     13  C   UNL     1      -3.120  14.343  22.530  0.00  0.00    +0.000 A 
ATOM     14  C   UNL     1      -3.028  13.154  23.255  0.00  0.00    +0.000 A 
ATOM     15  C   UNL     1      -2.231  12.111  22.780  0.00  0.00    +0.000 A 
ATOM     16  F   UNL     1      -2.151  10.999  23.524  0.00  0.00    +0.000 F 
ENDBRANCH   4   9
BRANCH   6  17
ATOM     17  C   UNL     1       1.553   7.676  20.133  0.00  0.00    +0.000 A 
ATOM     18  C   UNL     1       1.460   6.450  20.787  0.00  0.00    +0.000 A 
ATOM     19  C   UNL     1       2.214   5.337  20.374  0.00  0.00    +0.000 A 
ATOM     20 CL   UNL     1       2.077   3.957  21.407  0.00  0.00    +0.000 Cl
ATOM     21  C   UNL     1       3.057   5.430  19.257  0.00  0.00    +0.000 A 
ATOM     22  C   UNL     1       3.118   6.669  18.589  0.00  0.00    +0.000 A 
ATOM     23 CL   UNL     1       4.162   6.896  17.222  0.00  0.00    +0.000 Cl
ATOM     24  C   UNL     1       2.366   7.773  19.008  0.00  0.00    +0.000 A 
BRANCH  21  25
ATOM     25  O   UNL     1       3.916   4.478  18.774  0.00  0.00    +0.000 OA
BRANCH  25  26
ATOM     26  C   UNL     1       3.462   3.475  17.866  0.00  0.00    +0.000 C 
ATOM     27  F   UNL     1       2.187   3.787  17.519  0.00  0.00    +0.000 F 
ATOM     28  F   UNL     1       4.230   3.454  16.750  0.00  0.00    +0.000 F 
BRANCH  26  29
ATOM     29  C   UNL     1       3.467   2.099  18.534  0.00  0.00    +0.000 C 
ATOM     30  F   UNL     1       4.279   2.090  19.627  0.00  0.00    +0.000 F 
ATOM     31  F   UNL     1       2.225   1.765  18.982  0.00  0.00    +0.000 F 
ENDBRANCH  26  29
ENDBRANCH  25  26
ENDBRANCH  21  25
ENDBRANCH   6  17
TORSDOF 5
ENDMDL
MODEL 6
REMARK VINA RESULT:      -7.7      1.145      2.003
REMARK  Name = 
REMARK  5 active torsions:
REMARK  status: ('A' for Active; 'I' for Inactive)
REMARK    1  A    between atoms: C_4  and  C_6
REMARK    2  A    between atoms: N_14  and  C_15
REMARK    3  A    between atoms: C_19  and  O_20
REMARK    4  A    between atoms: O_20  and  C_21
REMARK    5  A    between atoms: C_21  and  C_24
REMARK                            x       y       z     vdW  Elec       q    Type
REMARK                         _______ _______ _______ _____ _____    ______ ____
ROOT
ATOM      1  O   UNL     1       1.857   9.402  22.622  0.00  0.00    +0.000 OA
ATOM      2  C   UNL     1       1.040   9.655  21.744  0.00  0.00    +0.000 C 
ATOM      3  N   UNL     1       0.205  10.737  21.925  0.00  0.00    +0.000 N 
ATOM      4  C   UNL     1      -0.787  11.195  21.082  0.00  0.00    +0.000 C 
ATOM      5  O   UNL     1      -0.982  10.728  19.964  0.00  0.00    +0.000 OA
ATOM      6  N   UNL     1       0.867   8.972  20.564  0.00  0.00    +0.000 N 
ATOM      7  H   UNL     1       0.378  11.209  22.805  0.00  0.00    +0.000 HD
ATOM      8  H   UNL     1       0.252   9.431  19.893  0.00  0.00    +0.000 HD
ENDROOT
BRANCH   4   9
ATOM      9  C   UNL     1      -1.621  12.318  21.569  0.00  0.00    +0.000 A 
ATOM     10  C   UNL     1      -2.354  12.240  22.754  0.00  0.00    +0.000 A 
ATOM     11  F   UNL     1      -2.358  11.113  23.481  0.00  0.00    +0.000 F 
ATOM     12  C   UNL     1      -3.095  13.327  23.216  0.00  0.00    +0.000 A 
ATOM     13  C   UNL     1      -3.116  14.512  22.485  0.00  0.00    +0.000 A 
ATOM     14  C   UNL     1      -2.402  14.601  21.291  0.00  0.00    +0.000 A 
ATOM     15  C   UNL     1      -1.660  13.507  20.842  0.00  0.00    +0.000 A 
ATOM     16  F   UNL     1      -1.013  13.628  19.675  0.00  0.00    +0.000 F 
ENDBRANCH   4   9
BRANCH   6  17
ATOM     17  C   UNL     1       1.571   7.837  20.129  0.00  0.00    +0.000 A 
ATOM     18  C   UNL     1       2.453   7.857  19.051  0.00  0.00    +0.000 A 
ATOM     19  C   UNL     1       3.074   6.684  18.587  0.00  0.00    +0.000 A 
ATOM     20 CL   UNL     1       4.007   6.891  17.146  0.00  0.00    +0.000 Cl
ATOM     21  C   UNL     1       2.846   5.460  19.233  0.00  0.00    +0.000 A 
ATOM     22  C   UNL     1       1.975   5.462  20.341  0.00  0.00    +0.000 A 
ATOM     23 CL   UNL     1       1.596   3.992  21.182  0.00  0.00    +0.000 Cl
ATOM     24  C   UNL     1       1.357   6.634  20.795  0.00  0.00    +0.000 A 
BRANCH  21  25
ATOM     25  O   UNL     1       3.299   4.222  18.866  0.00  0.00    +0.000 OA
BRANCH  25  26
ATOM     26  C   UNL     1       2.783   3.566  17.708  0.00  0.00    +0.000 C 
ATOM     27  F   UNL     1       1.554   4.087  17.460  0.00  0.00    +0.000 F 
ATOM     28  F   UNL     1       3.580   3.788  16.635  0.00  0.00    +0.000 F 
BRANCH  26  29
ATOM     29  C   UNL     1       2.640   2.064  17.956  0.00  0.00    +0.000 C 
ATOM     30  F   UNL     1       3.798   1.409  17.665  0.00  0.00    +0.000 F 
ATOM     31  F   UNL     1       2.377   1.804  19.266  0.00  0.00    +0.000 F 
ENDBRANCH  26  29
ENDBRANCH  25  26
ENDBRANCH  21  25
ENDBRANCH   6  17
TORSDOF 5
ENDMDL
MODEL 7
REMARK VINA RESULT:      -7.6      1.291      2.725
REMARK  Name = 
REMARK  5 active torsions:
REMARK  status: ('A' for Active; 'I' for Inactive)
REMARK    1  A    between atoms: C_4  and  C_6
REMARK    2  A    between atoms: N_14  and  C_15
REMARK    3  A    between atoms: C_19  and  O_20
REMARK    4  A    between atoms: O_20  and  C_21
REMARK    5  A    between atoms: C_21  and  C_24
REMARK                            x       y       z     vdW  Elec       q    Type
REMARK                         _______ _______ _______ _____ _____    ______ ____
ROOT
ATOM      1  O   UNL     1       1.894   9.372  22.554  0.00  0.00    +0.000 OA
ATOM      2  C   UNL     1       1.055   9.601  21.689  0.00  0.00    +0.000 C 
ATOM      3  N   UNL     1       0.224  10.689  21.861  0.00  0.00    +0.000 N 
ATOM      4  C   UNL     1      -0.788  11.123  21.030  0.00  0.00    +0.000 C 
ATOM      5  O   UNL     1      -1.010  10.626  19.931  0.00  0.00    +0.000 OA
ATOM      6  N   UNL     1       0.855   8.887  20.533  0.00  0.00    +0.000 N 
ATOM      7  H   UNL     1       0.418  11.184  22.723  0.00  0.00    +0.000 HD
ATOM      8  H   UNL     1       0.223   9.327  19.865  0.00  0.00    +0.000 HD
ENDROOT
BRANCH   4   9
ATOM      9  C   UNL     1      -1.611  12.259  21.507  0.00  0.00    +0.000 A 
ATOM     10  C   UNL     1      -2.298  12.221  22.721  0.00  0.00    +0.000 A 
ATOM     11  F   UNL     1      -2.266  11.122  23.489  0.00  0.00    +0.000 F 
ATOM     12  C   UNL     1      -3.028  13.321  23.170  0.00  0.00    +0.000 A 
ATOM     13  C   UNL     1      -3.086  14.477  22.397  0.00  0.00    +0.000 A 
ATOM     14  C   UNL     1      -2.418  14.526  21.173  0.00  0.00    +0.000 A 
ATOM     15  C   UNL     1      -1.686  13.419  20.738  0.00  0.00    +0.000 A 
ATOM     16  F   UNL     1      -1.084  13.500  19.543  0.00  0.00    +0.000 F 
ENDBRANCH   4   9
BRANCH   6  17
ATOM     17  C   UNL     1       1.549   7.740  20.112  0.00  0.00    +0.000 A 
ATOM     18  C   UNL     1       1.485   6.523  20.785  0.00  0.00    +0.000 A 
ATOM     19  C   UNL     1       2.262   5.421  20.387  0.00  0.00    +0.000 A 
ATOM     20 CL   UNL     1       2.160   4.056  21.442  0.00  0.00    +0.000 Cl
ATOM     21  C   UNL     1       3.098   5.514  19.264  0.00  0.00    +0.000 A 
ATOM     22  C   UNL     1       3.128   6.743  18.576  0.00  0.00    +0.000 A 
ATOM     23 CL   UNL     1       4.160   6.971  17.200  0.00  0.00    +0.000 Cl
ATOM     24  C   UNL     1       2.354   7.837  18.981  0.00  0.00    +0.000 A 
BRANCH  21  25
ATOM     25  O   UNL     1       3.975   4.574  18.792  0.00  0.00    +0.000 OA
BRANCH  25  26
ATOM     26  C   UNL     1       3.520   3.488  17.985  0.00  0.00    +0.000 C 
ATOM     27  F   UNL     1       2.248   3.770  17.602  0.00  0.00    +0.000 F 
ATOM     28  F   UNL     1       4.292   3.354  16.880  0.00  0.00    +0.000 F 
BRANCH  26  29
ATOM     29  C   UNL     1       3.516   2.184  18.785  0.00  0.00    +0.000 C 
ATOM     30  F   UNL     1       3.680   1.109  17.967  0.00  0.00    +0.000 F 
ATOM     31  F   UNL     1       4.550   2.148  19.670  0.00  0.00    +0.000 F 
ENDBRANCH  26  29
ENDBRANCH  25  26
ENDBRANCH  21  25
ENDBRANCH   6  17
TORSDOF 5
ENDMDL
MODEL 8
REMARK VINA RESULT:      -7.6      1.128      2.031
REMARK  Name = 
REMARK  5 active torsions:
REMARK  status: ('A' for Active; 'I' for Inactive)
REMARK    1  A    between atoms: C_4  and  C_6
REMARK    2  A    between atoms: N_14  and  C_15
REMARK    3  A    between atoms: C_19  and  O_20
REMARK    4  A    between atoms: O_20  and  C_21
REMARK    5  A    between atoms: C_21  and  C_24
REMARK                            x       y       z     vdW  Elec       q    Type
REMARK                         _______ _______ _______ _____ _____    ______ ____
ROOT
ATOM      1  O   UNL     1       0.178   9.805  18.537  0.00  0.00    +0.000 OA
ATOM      2  C   UNL     1       0.362   9.843  19.749  0.00  0.00    +0.000 C 
ATOM      3  N   UNL     1      -0.156  10.911  20.452  0.00  0.00    +0.000 N 
ATOM      4  C   UNL     1      -0.060  11.164  21.805  0.00  0.00    +0.000 C 
ATOM      5  O   UNL     1       0.434  10.370  22.600  0.00  0.00    +0.000 OA
ATOM      6  N   UNL     1       1.033   8.913  20.506  0.00  0.00    +0.000 N 
ATOM      7  H   UNL     1      -0.644  11.563  19.849  0.00  0.00    +0.000 HD
ATOM      8  H   UNL     1       0.939   9.037  21.514  0.00  0.00    +0.000 HD
ENDROOT
BRANCH   4   9
ATOM      9  C   UNL     1      -0.612  12.450  22.292  0.00  0.00    +0.000 A 
ATOM     10  C   UNL     1      -1.763  12.514  23.078  0.00  0.00    +0.000 A 
ATOM     11  F   UNL     1      -2.440  11.399  23.390  0.00  0.00    +0.000 F 
ATOM     12  C   UNL     1      -2.236  13.732  23.563  0.00  0.00    +0.000 A 
ATOM     13  C   UNL     1      -1.560  14.911  23.257  0.00  0.00    +0.000 A 
ATOM     14  C   UNL     1      -0.417  14.865  22.459  0.00  0.00    +0.000 A 
ATOM     15  C   UNL     1       0.049  13.638  21.984  0.00  0.00    +0.000 A 
ATOM     16  F   UNL     1       1.134  13.645  21.197  0.00  0.00    +0.000 F 
ENDBRANCH   4   9
BRANCH   6  17
ATOM     17  C   UNL     1       1.659   7.741  20.052  0.00  0.00    +0.000 A 
ATOM     18  C   UNL     1       2.561   7.724  18.991  0.00  0.00    +0.000 A 
ATOM     19  C   UNL     1       3.102   6.520  18.505  0.00  0.00    +0.000 A 
ATOM     20 CL   UNL     1       4.076   6.695  17.087  0.00  0.00    +0.000 Cl
ATOM     21  C   UNL     1       2.772   5.300  19.114  0.00  0.00    +0.000 A 
ATOM     22  C   UNL     1       1.882   5.337  20.205  0.00  0.00    +0.000 A 
ATOM     23 CL   UNL     1       1.381   3.879  20.999  0.00  0.00    +0.000 Cl
ATOM     24  C   UNL     1       1.345   6.540  20.681  0.00  0.00    +0.000 A 
BRANCH  21  25
ATOM     25  O   UNL     1       3.141   4.041  18.720  0.00  0.00    +0.000 OA
BRANCH  25  26
ATOM     26  C   UNL     1       4.481   3.583  18.891  0.00  0.00    +0.000 C 
ATOM     27  F   UNL     1       5.041   3.492  17.657  0.00  0.00    +0.000 F 
ATOM     28  F   UNL     1       5.198   4.459  19.636  0.00  0.00    +0.000 F 
BRANCH  26  29
ATOM     29  C   UNL     1       4.501   2.200  19.544  0.00  0.00    +0.000 C 
ATOM     30  F   UNL     1       4.022   2.254  20.817  0.00  0.00    +0.000 F 
ATOM     31  F   UNL     1       3.697   1.329  18.874  0.00  0.00    +0.000 F 
ENDBRANCH  26  29
ENDBRANCH  25  26
ENDBRANCH  21  25
ENDBRANCH   6  17
TORSDOF 5
ENDMDL
MODEL 9
REMARK VINA RESULT:      -7.5      1.100      1.307
REMARK  Name = 
REMARK  5 active torsions:
REMARK  status: ('A' for Active; 'I' for Inactive)
REMARK    1  A    between atoms: C_4  and  C_6
REMARK    2  A    between atoms: N_14  and  C_15
REMARK    3  A    between atoms: C_19  and  O_20
REMARK    4  A    between atoms: O_20  and  C_21
REMARK    5  A    between atoms: C_21  and  C_24
REMARK                            x       y       z     vdW  Elec       q    Type
REMARK                         _______ _______ _______ _____ _____    ______ ____
ROOT
ATOM      1  O   UNL     1       0.271   9.908  18.495  0.00  0.00    +0.000 OA
ATOM      2  C   UNL     1       0.426   9.907  19.711  0.00  0.00    +0.000 C 
ATOM      3  N   UNL     1      -0.095  10.961  20.433  0.00  0.00    +0.000 N 
ATOM      4  C   UNL     1      -0.030  11.170  21.796  0.00  0.00    +0.000 C 
ATOM      5  O   UNL     1       0.434  10.346  22.578  0.00  0.00    +0.000 OA
ATOM      6  N   UNL     1       1.064   8.945  20.455  0.00  0.00    +0.000 N 
ATOM      7  H   UNL     1      -0.560  11.637  19.840  0.00  0.00    +0.000 HD
ATOM      8  H   UNL     1       0.947   9.039  21.464  0.00  0.00    +0.000 HD
ENDROOT
BRANCH   4   9
ATOM      9  C   UNL     1      -0.576  12.448  22.308  0.00  0.00    +0.000 A 
ATOM     10  C   UNL     1       0.036  13.675  22.049  0.00  0.00    +0.000 A 
ATOM     11  F   UNL     1       1.179  13.733  21.349  0.00  0.00    +0.000 F 
ATOM     12  C   UNL     1      -0.523  14.869  22.503  0.00  0.00    +0.000 A 
ATOM     13  C   UNL     1      -1.707  14.846  23.235  0.00  0.00    +0.000 A 
ATOM     14  C   UNL     1      -2.323  13.627  23.517  0.00  0.00    +0.000 A 
ATOM     15  C   UNL     1      -1.756  12.439  23.051  0.00  0.00    +0.000 A 
ATOM     16  F   UNL     1      -2.367  11.289  23.370  0.00  0.00    +0.000 F 
ENDBRANCH   4   9
BRANCH   6  17
ATOM     17  C   UNL     1       1.687   7.779  19.980  0.00  0.00    +0.000 A 
ATOM     18  C   UNL     1       2.576   7.774  18.909  0.00  0.00    +0.000 A 
ATOM     19  C   UNL     1       3.113   6.577  18.404  0.00  0.00    +0.000 A 
ATOM     20 CL   UNL     1       4.070   6.768  16.977  0.00  0.00    +0.000 Cl
ATOM     21  C   UNL     1       2.790   5.349  19.002  0.00  0.00    +0.000 A 
ATOM     22  C   UNL     1       1.912   5.373  20.104  0.00  0.00    +0.000 A 
ATOM     23 CL   UNL     1       1.420   3.905  20.886  0.00  0.00    +0.000 Cl
ATOM     24  C   UNL     1       1.379   6.570  20.599  0.00  0.00    +0.000 A 
BRANCH  21  25
ATOM     25  O   UNL     1       3.154   4.095  18.590  0.00  0.00    +0.000 OA
BRANCH  25  26
ATOM     26  C   UNL     1       4.451   3.576  18.883  0.00  0.00    +0.000 C 
ATOM     27  F   UNL     1       5.145   3.532  17.716  0.00  0.00    +0.000 F 
ATOM     28  F   UNL     1       5.106   4.381  19.754  0.00  0.00    +0.000 F 
BRANCH  26  29
ATOM     29  C   UNL     1       4.351   2.159  19.449  0.00  0.00    +0.000 C 
ATOM     30  F   UNL     1       4.501   2.162  20.802  0.00  0.00    +0.000 F 
ATOM     31  F   UNL     1       3.126   1.617  19.205  0.00  0.00    +0.000 F 
ENDBRANCH  26  29
ENDBRANCH  25  26
ENDBRANCH  21  25
ENDBRANCH   6  17
TORSDOF 5
ENDMDL
