MODEL 1
REMARK VINA RESULT:      -6.7      0.000      0.000
REMARK  Name = 
REMARK  18 active torsions:
REMARK  status: ('A' for Active; 'I' for Inactive)
REMARK    1  A    between atoms: C_1  and  C_2
REMARK    2  A    between atoms: C_2  and  C_3
REMARK    3  A    between atoms: C_3  and  C_4
REMARK    4  A    between atoms: C_4  and  C_5
REMARK    5  A    between atoms: C_5  and  C_6
REMARK    6  A    between atoms: C_6  and  C_7
REMARK    7  A    between atoms: C_7  and  C_8
REMARK    8  A    between atoms: C_8  and  C_9
REMARK    9  A    between atoms: C_9  and  C_10
REMARK   10  A    between atoms: C_10  and  C_11
REMARK   11  A    between atoms: C_11  and  C_12
REMARK   12  A    between atoms: C_14  and  C_15
REMARK   13  A    between atoms: C_15  and  C_16
REMARK   14  A    between atoms: C_16  and  C_17
REMARK   15  A    between atoms: C_17  and  C_18
REMARK   16  A    between atoms: C_18  and  C_19
REMARK   17  A    between atoms: C_19  and  O_21
REMARK   18  A    between atoms: O_21  and  N_22
REMARK                            x       y       z     vdW  Elec       q    Type
REMARK                         _______ _______ _______ _____ _____    ______ ____
ROOT
ATOM      1  C   UNL     1       8.720   8.671  18.515  0.00  0.00    +0.000 C 
ENDROOT
BRANCH   1   2
ATOM      2  C   UNL     1       7.575   8.241  17.595  0.00  0.00    +0.000 C 
BRANCH   2   3
ATOM      3  C   UNL     1       7.119   6.802  17.846  0.00  0.00    +0.000 C 
BRANCH   3   4
ATOM      4  C   UNL     1       6.640   6.166  16.558  0.00  0.00    +0.000 C 
ATOM      5  O   UNL     1       7.359   5.602  15.747  0.00  0.00    +0.000 OA
BRANCH   4   6
ATOM      6  O   UNL     1       5.292   6.373  16.422  0.00  0.00    +0.000 OA
BRANCH   6   7
ATOM      7  N   UNL     1       4.553   5.400  17.133  0.00  0.00    +0.000 N 
ATOM      8  N   UNL     1       4.724   4.097  16.773  0.00  0.00    +0.000 NA
ATOM      9  N   UNL     1       4.112   3.183  17.354  0.00  0.00    +0.000 NA
ATOM     10  C   UNL     1       3.185   3.502  18.351  0.00  0.00    +0.000 A 
ATOM     11  C   UNL     1       2.574   2.451  19.043  0.00  0.00    +0.000 A 
ATOM     12  C   UNL     1       1.614   2.705  20.020  0.00  0.00    +0.000 A 
ATOM     13  C   UNL     1       1.238   4.018  20.300  0.00  0.00    +0.000 A 
ATOM     14  C   UNL     1       1.844   5.078  19.623  0.00  0.00    +0.000 A 
ATOM     15  C   UNL     1       2.831   4.810  18.667  0.00  0.00    +0.000 A 
ATOM     16  C   UNL     1       3.575   5.878  17.981  0.00  0.00    +0.000 A 
ATOM     17  O   UNL     1       3.317   7.053  18.205  0.00  0.00    +0.000 OA
ENDBRANCH   6   7
ENDBRANCH   4   6
ENDBRANCH   3   4
ENDBRANCH   2   3
ENDBRANCH   1   2
BRANCH   1  18
ATOM     18  C   UNL     1       8.761  10.191  18.718  0.00  0.00    +0.000 C 
BRANCH  18  21
ATOM     19  C   UNL     1      10.400  12.183  19.041  0.00  0.00    +0.000 C 
ATOM     20  C   UNL     1      10.680  11.627  17.666  0.00  0.00    +0.000 C 
ATOM     21  C   UNL     1      10.167  10.717  18.749  0.00  0.00    +0.000 C 
BRANCH  19  22
ATOM     22  C   UNL     1      11.501  12.591  19.975  0.00  0.00    +0.000 C 
BRANCH  22  23
ATOM     23  C   UNL     1      12.271  13.813  19.488  0.00  0.00    +0.000 C 
BRANCH  23  24
ATOM     24  C   UNL     1      11.389  15.052  19.340  0.00  0.00    +0.000 C 
BRANCH  24  25
ATOM     25  C   UNL     1      11.764  16.095  20.386  0.00  0.00    +0.000 C 
BRANCH  25  26
ATOM     26  C   UNL     1      10.978  15.876  21.672  0.00  0.00    +0.000 C 
BRANCH  26  27
ATOM     27  C   UNL     1       9.526  15.541  21.358  0.00  0.00    +0.000 C 
BRANCH  27  28
ATOM     28  C   UNL     1       8.908  14.734  22.491  0.00  0.00    +0.000 C 
BRANCH  28  29
ATOM     29  C   UNL     1       8.104  13.561  21.943  0.00  0.00    +0.000 C 
BRANCH  29  30
ATOM     30  C   UNL     1       8.750  12.239  22.341  0.00  0.00    +0.000 C 
BRANCH  30  32
ATOM     31  C   UNL     1       6.513  12.026  23.449  0.00  0.00    +0.000 C 
ATOM     32  C   UNL     1       7.955  11.552  23.446  0.00  0.00    +0.000 C 
ENDBRANCH  30  32
ENDBRANCH  29  30
ENDBRANCH  28  29
ENDBRANCH  27  28
ENDBRANCH  26  27
ENDBRANCH  25  26
ENDBRANCH  24  25
ENDBRANCH  23  24
ENDBRANCH  22  23
ENDBRANCH  19  22
ENDBRANCH  18  21
ENDBRANCH   1  18
TORSDOF 17
ENDMDL
MODEL 2
REMARK VINA RESULT:      -6.6      6.484      8.674
REMARK  Name = 
REMARK  18 active torsions:
REMARK  status: ('A' for Active; 'I' for Inactive)
REMARK    1  A    between atoms: C_1  and  C_2
REMARK    2  A    between atoms: C_2  and  C_3
REMARK    3  A    between atoms: C_3  and  C_4
REMARK    4  A    between atoms: C_4  and  C_5
REMARK    5  A    between atoms: C_5  and  C_6
REMARK    6  A    between atoms: C_6  and  C_7
REMARK    7  A    between atoms: C_7  and  C_8
REMARK    8  A    between atoms: C_8  and  C_9
REMARK    9  A    between atoms: C_9  and  C_10
REMARK   10  A    between atoms: C_10  and  C_11
REMARK   11  A    between atoms: C_11  and  C_12
REMARK   12  A    between atoms: C_14  and  C_15
REMARK   13  A    between atoms: C_15  and  C_16
REMARK   14  A    between atoms: C_16  and  C_17
REMARK   15  A    between atoms: C_17  and  C_18
REMARK   16  A    between atoms: C_18  and  C_19
REMARK   17  A    between atoms: C_19  and  O_21
REMARK   18  A    between atoms: O_21  and  N_22
REMARK                            x       y       z     vdW  Elec       q    Type
REMARK                         _______ _______ _______ _____ _____    ______ ____
ROOT
ATOM      1  C   UNL     1       2.276   5.475  20.322  0.00  0.00    +0.000 C 
ENDROOT
BRANCH   1   2
ATOM      2  C   UNL     1       1.074   4.600  20.688  0.00  0.00    +0.000 C 
BRANCH   2   3
ATOM      3  C   UNL     1       1.183   3.179  20.133  0.00  0.00    +0.000 C 
BRANCH   3   4
ATOM      4  C   UNL     1       2.433   2.501  20.652  0.00  0.00    +0.000 C 
ATOM      5  O   UNL     1       2.823   2.544  21.810  0.00  0.00    +0.000 OA
BRANCH   4   6
ATOM      6  O   UNL     1       3.083   1.887  19.613  0.00  0.00    +0.000 OA
BRANCH   6   7
ATOM      7  N   UNL     1       4.017   2.759  19.009  0.00  0.00    +0.000 N 
ATOM      8  N   UNL     1       4.986   3.290  19.807  0.00  0.00    +0.000 NA
ATOM      9  N   UNL     1       5.846   4.063  19.347  0.00  0.00    +0.000 NA
ATOM     10  C   UNL     1       5.781   4.443  18.003  0.00  0.00    +0.000 A 
ATOM     11  C   UNL     1       6.807   5.246  17.495  0.00  0.00    +0.000 A 
ATOM     12  C   UNL     1       6.777   5.688  16.174  0.00  0.00    +0.000 A 
ATOM     13  C   UNL     1       5.703   5.349  15.352  0.00  0.00    +0.000 A 
ATOM     14  C   UNL     1       4.675   4.542  15.843  0.00  0.00    +0.000 A 
ATOM     15  C   UNL     1       4.734   4.077  17.161  0.00  0.00    +0.000 A 
ATOM     16  C   UNL     1       3.734   3.152  17.717  0.00  0.00    +0.000 A 
ATOM     17  O   UNL     1       2.783   2.788  17.038  0.00  0.00    +0.000 OA
ENDBRANCH   6   7
ENDBRANCH   4   6
ENDBRANCH   3   4
ENDBRANCH   2   3
ENDBRANCH   1   2
BRANCH   1  18
ATOM     18  C   UNL     1       2.192   6.004  18.884  0.00  0.00    +0.000 C 
BRANCH  18  21
ATOM     19  C   UNL     1       1.667   8.266  17.716  0.00  0.00    +0.000 C 
ATOM     20  C   UNL     1       3.171   8.147  17.743  0.00  0.00    +0.000 C 
ATOM     21  C   UNL     1       2.351   7.496  18.824  0.00  0.00    +0.000 C 
BRANCH  19  22
ATOM     22  C   UNL     1       0.963   9.554  18.028  0.00  0.00    +0.000 C 
BRANCH  22  23
ATOM     23  C   UNL     1       1.178  10.014  19.466  0.00  0.00    +0.000 C 
BRANCH  23  24
ATOM     24  C   UNL     1      -0.130  10.312  20.197  0.00  0.00    +0.000 C 
BRANCH  24  25
ATOM     25  C   UNL     1      -0.142   9.629  21.559  0.00  0.00    +0.000 C 
BRANCH  25  26
ATOM     26  C   UNL     1      -0.705  10.560  22.625  0.00  0.00    +0.000 C 
BRANCH  26  27
ATOM     27  C   UNL     1      -0.411  12.012  22.272  0.00  0.00    +0.000 C 
BRANCH  27  28
ATOM     28  C   UNL     1      -1.560  12.910  22.707  0.00  0.00    +0.000 C 
BRANCH  28  29
ATOM     29  C   UNL     1      -2.856  12.115  22.815  0.00  0.00    +0.000 C 
BRANCH  29  30
ATOM     30  C   UNL     1      -3.669  12.577  24.019  0.00  0.00    +0.000 C 
BRANCH  30  32
ATOM     31  C   UNL     1      -5.527  14.235  23.737  0.00  0.00    +0.000 C 
ATOM     32  C   UNL     1      -4.028  14.054  23.903  0.00  0.00    +0.000 C 
ENDBRANCH  30  32
ENDBRANCH  29  30
ENDBRANCH  28  29
ENDBRANCH  27  28
ENDBRANCH  26  27
ENDBRANCH  25  26
ENDBRANCH  24  25
ENDBRANCH  23  24
ENDBRANCH  22  23
ENDBRANCH  19  22
ENDBRANCH  18  21
ENDBRANCH   1  18
TORSDOF 17
ENDMDL
MODEL 3
REMARK VINA RESULT:      -6.5      6.357      8.016
REMARK  Name = 
REMARK  18 active torsions:
REMARK  status: ('A' for Active; 'I' for Inactive)
REMARK    1  A    between atoms: C_1  and  C_2
REMARK    2  A    between atoms: C_2  and  C_3
REMARK    3  A    between atoms: C_3  and  C_4
REMARK    4  A    between atoms: C_4  and  C_5
REMARK    5  A    between atoms: C_5  and  C_6
REMARK    6  A    between atoms: C_6  and  C_7
REMARK    7  A    between atoms: C_7  and  C_8
REMARK    8  A    between atoms: C_8  and  C_9
REMARK    9  A    between atoms: C_9  and  C_10
REMARK   10  A    between atoms: C_10  and  C_11
REMARK   11  A    between atoms: C_11  and  C_12
REMARK   12  A    between atoms: C_14  and  C_15
REMARK   13  A    between atoms: C_15  and  C_16
REMARK   14  A    between atoms: C_16  and  C_17
REMARK   15  A    between atoms: C_17  and  C_18
REMARK   16  A    between atoms: C_18  and  C_19
REMARK   17  A    between atoms: C_19  and  O_21
REMARK   18  A    between atoms: O_21  and  N_22
REMARK                            x       y       z     vdW  Elec       q    Type
REMARK                         _______ _______ _______ _____ _____    ______ ____
ROOT
ATOM      1  C   UNL     1       3.768   7.739  17.488  0.00  0.00    +0.000 C 
ENDROOT
BRANCH   1   2
ATOM      2  C   UNL     1       4.673   6.510  17.595  0.00  0.00    +0.000 C 
BRANCH   2   3
ATOM      3  C   UNL     1       4.985   5.880  16.236  0.00  0.00    +0.000 C 
BRANCH   3   4
ATOM      4  C   UNL     1       5.861   4.657  16.407  0.00  0.00    +0.000 C 
ATOM      5  O   UNL     1       7.081   4.675  16.477  0.00  0.00    +0.000 OA
BRANCH   4   6
ATOM      6  O   UNL     1       5.077   3.533  16.411  0.00  0.00    +0.000 OA
BRANCH   6   7
ATOM      7  N   UNL     1       4.430   3.367  17.657  0.00  0.00    +0.000 N 
ATOM      8  N   UNL     1       5.215   3.122  18.743  0.00  0.00    +0.000 NA
ATOM      9  N   UNL     1       4.720   2.970  19.874  0.00  0.00    +0.000 NA
ATOM     10  C   UNL     1       3.330   2.987  20.024  0.00  0.00    +0.000 A 
ATOM     11  C   UNL     1       2.806   2.896  21.317  0.00  0.00    +0.000 A 
ATOM     12  C   UNL     1       1.428   2.870  21.527  0.00  0.00    +0.000 A 
ATOM     13  C   UNL     1       0.559   2.912  20.438  0.00  0.00    +0.000 A 
ATOM     14  C   UNL     1       1.067   3.010  19.141  0.00  0.00    +0.000 A 
ATOM     15  C   UNL     1       2.451   3.069  18.947  0.00  0.00    +0.000 A 
ATOM     16  C   UNL     1       3.055   3.264  17.619  0.00  0.00    +0.000 A 
ATOM     17  O   UNL     1       2.346   3.342  16.624  0.00  0.00    +0.000 OA
ENDBRANCH   6   7
ENDBRANCH   4   6
ENDBRANCH   3   4
ENDBRANCH   2   3
ENDBRANCH   1   2
BRANCH   1  18
ATOM     18  C   UNL     1       2.440   7.549  18.232  0.00  0.00    +0.000 C 
BRANCH  18  21
ATOM     19  C   UNL     1       0.771   9.500  17.831  0.00  0.00    +0.000 C 
ATOM     20  C   UNL     1       2.139  10.131  17.927  0.00  0.00    +0.000 C 
ATOM     21  C   UNL     1       1.850   8.856  18.673  0.00  0.00    +0.000 C 
BRANCH  19  22
ATOM     22  C   UNL     1      -0.433  10.102  18.496  0.00  0.00    +0.000 C 
BRANCH  22  23
ATOM     23  C   UNL     1      -1.635  10.207  17.564  0.00  0.00    +0.000 C 
BRANCH  23  24
ATOM     24  C   UNL     1      -2.296  11.583  17.598  0.00  0.00    +0.000 C 
BRANCH  24  25
ATOM     25  C   UNL     1      -3.642  11.506  18.310  0.00  0.00    +0.000 C 
BRANCH  25  26
ATOM     26  C   UNL     1      -3.686  12.470  19.488  0.00  0.00    +0.000 C 
BRANCH  26  27
ATOM     27  C   UNL     1      -2.821  11.953  20.630  0.00  0.00    +0.000 C 
BRANCH  27  28
ATOM     28  C   UNL     1      -1.740  12.966  20.981  0.00  0.00    +0.000 C 
BRANCH  28  29
ATOM     29  C   UNL     1      -0.569  12.286  21.680  0.00  0.00    +0.000 C 
BRANCH  29  30
ATOM     30  C   UNL     1      -1.019  11.676  23.004  0.00  0.00    +0.000 C 
BRANCH  30  32
ATOM     31  C   UNL     1       0.315   9.756  22.101  0.00  0.00    +0.000 C 
ATOM     32  C   UNL     1      -0.842  10.161  22.997  0.00  0.00    +0.000 C 
ENDBRANCH  30  32
ENDBRANCH  29  30
ENDBRANCH  28  29
ENDBRANCH  27  28
ENDBRANCH  26  27
ENDBRANCH  25  26
ENDBRANCH  24  25
ENDBRANCH  23  24
ENDBRANCH  22  23
ENDBRANCH  19  22
ENDBRANCH  18  21
ENDBRANCH   1  18
TORSDOF 17
ENDMDL
MODEL 4
REMARK VINA RESULT:      -6.5      1.609      2.379
REMARK  Name = 
REMARK  18 active torsions:
REMARK  status: ('A' for Active; 'I' for Inactive)
REMARK    1  A    between atoms: C_1  and  C_2
REMARK    2  A    between atoms: C_2  and  C_3
REMARK    3  A    between atoms: C_3  and  C_4
REMARK    4  A    between atoms: C_4  and  C_5
REMARK    5  A    between atoms: C_5  and  C_6
REMARK    6  A    between atoms: C_6  and  C_7
REMARK    7  A    between atoms: C_7  and  C_8
REMARK    8  A    between atoms: C_8  and  C_9
REMARK    9  A    between atoms: C_9  and  C_10
REMARK   10  A    between atoms: C_10  and  C_11
REMARK   11  A    between atoms: C_11  and  C_12
REMARK   12  A    between atoms: C_14  and  C_15
REMARK   13  A    between atoms: C_15  and  C_16
REMARK   14  A    between atoms: C_16  and  C_17
REMARK   15  A    between atoms: C_17  and  C_18
REMARK   16  A    between atoms: C_18  and  C_19
REMARK   17  A    between atoms: C_19  and  O_21
REMARK   18  A    between atoms: O_21  and  N_22
REMARK                            x       y       z     vdW  Elec       q    Type
REMARK                         _______ _______ _______ _____ _____    ______ ____
ROOT
ATOM      1  C   UNL     1       8.930  10.486  19.345  0.00  0.00    +0.000 C 
ENDROOT
BRANCH   1   2
ATOM      2  C   UNL     1       9.078   9.157  18.600  0.00  0.00    +0.000 C 
BRANCH   2   3
ATOM      3  C   UNL     1       7.843   8.798  17.773  0.00  0.00    +0.000 C 
BRANCH   3   4
ATOM      4  C   UNL     1       7.594   7.306  17.812  0.00  0.00    +0.000 C 
ATOM      5  O   UNL     1       7.982   6.555  18.696  0.00  0.00    +0.000 OA
BRANCH   4   6
ATOM      6  O   UNL     1       6.920   6.926  16.680  0.00  0.00    +0.000 OA
BRANCH   6   7
ATOM      7  N   UNL     1       5.663   6.366  16.999  0.00  0.00    +0.000 N 
ATOM      8  N   UNL     1       4.719   7.200  17.521  0.00  0.00    +0.000 NA
ATOM      9  N   UNL     1       3.587   6.781  17.822  0.00  0.00    +0.000 NA
ATOM     10  C   UNL     1       3.297   5.421  17.683  0.00  0.00    +0.000 A 
ATOM     11  C   UNL     1       1.992   4.995  17.952  0.00  0.00    +0.000 A 
ATOM     12  C   UNL     1       1.652   3.646  17.867  0.00  0.00    +0.000 A 
ATOM     13  C   UNL     1       2.624   2.704  17.534  0.00  0.00    +0.000 A 
ATOM     14  C   UNL     1       3.930   3.115  17.256  0.00  0.00    +0.000 A 
ATOM     15  C   UNL     1       4.249   4.476  17.312  0.00  0.00    +0.000 A 
ATOM     16  C   UNL     1       5.579   4.990  16.945  0.00  0.00    +0.000 A 
ATOM     17  O   UNL     1       6.469   4.219  16.612  0.00  0.00    +0.000 OA
ENDBRANCH   6   7
ENDBRANCH   4   6
ENDBRANCH   3   4
ENDBRANCH   2   3
ENDBRANCH   1   2
BRANCH   1  18
ATOM     18  C   UNL     1      10.137  11.410  19.130  0.00  0.00    +0.000 C 
BRANCH  18  21
ATOM     19  C   UNL     1       9.147  13.715  18.451  0.00  0.00    +0.000 C 
ATOM     20  C   UNL     1       8.480  12.695  17.563  0.00  0.00    +0.000 C 
ATOM     21  C   UNL     1       9.873  12.443  18.073  0.00  0.00    +0.000 C 
BRANCH  19  22
ATOM     22  C   UNL     1       9.633  15.034  17.924  0.00  0.00    +0.000 C 
BRANCH  22  23
ATOM     23  C   UNL     1       9.971  16.028  19.031  0.00  0.00    +0.000 C 
BRANCH  23  24
ATOM     24  C   UNL     1      11.248  15.664  19.787  0.00  0.00    +0.000 C 
BRANCH  24  25
ATOM     25  C   UNL     1      10.968  15.569  21.282  0.00  0.00    +0.000 C 
BRANCH  25  26
ATOM     26  C   UNL     1       9.737  16.385  21.654  0.00  0.00    +0.000 C 
BRANCH  26  27
ATOM     27  C   UNL     1       8.741  15.526  22.422  0.00  0.00    +0.000 C 
BRANCH  27  28
ATOM     28  C   UNL     1       9.195  14.074  22.443  0.00  0.00    +0.000 C 
BRANCH  28  29
ATOM     29  C   UNL     1       8.121  13.164  21.859  0.00  0.00    +0.000 C 
BRANCH  29  30
ATOM     30  C   UNL     1       8.089  11.832  22.599  0.00  0.00    +0.000 C 
BRANCH  30  32
ATOM     31  C   UNL     1       7.271  11.764  24.967  0.00  0.00    +0.000 C 
ATOM     32  C   UNL     1       6.865  11.738  23.504  0.00  0.00    +0.000 C 
ENDBRANCH  30  32
ENDBRANCH  29  30
ENDBRANCH  28  29
ENDBRANCH  27  28
ENDBRANCH  26  27
ENDBRANCH  25  26
ENDBRANCH  24  25
ENDBRANCH  23  24
ENDBRANCH  22  23
ENDBRANCH  19  22
ENDBRANCH  18  21
ENDBRANCH   1  18
TORSDOF 17
ENDMDL
MODEL 5
REMARK VINA RESULT:      -6.4      6.442      9.419
REMARK  Name = 
REMARK  18 active torsions:
REMARK  status: ('A' for Active; 'I' for Inactive)
REMARK    1  A    between atoms: C_1  and  C_2
REMARK    2  A    between atoms: C_2  and  C_3
REMARK    3  A    between atoms: C_3  and  C_4
REMARK    4  A    between atoms: C_4  and  C_5
REMARK    5  A    between atoms: C_5  and  C_6
REMARK    6  A    between atoms: C_6  and  C_7
REMARK    7  A    between atoms: C_7  and  C_8
REMARK    8  A    between atoms: C_8  and  C_9
REMARK    9  A    between atoms: C_9  and  C_10
REMARK   10  A    between atoms: C_10  and  C_11
REMARK   11  A    between atoms: C_11  and  C_12
REMARK   12  A    between atoms: C_14  and  C_15
REMARK   13  A    between atoms: C_15  and  C_16
REMARK   14  A    between atoms: C_16  and  C_17
REMARK   15  A    between atoms: C_17  and  C_18
REMARK   16  A    between atoms: C_18  and  C_19
REMARK   17  A    between atoms: C_19  and  O_21
REMARK   18  A    between atoms: O_21  and  N_22
REMARK                            x       y       z     vdW  Elec       q    Type
REMARK                         _______ _______ _______ _____ _____    ______ ____
ROOT
ATOM      1  C   UNL     1       4.751   3.635  19.308  0.00  0.00    +0.000 C 
ENDROOT
BRANCH   1   2
ATOM      2  C   UNL     1       5.241   5.083  19.393  0.00  0.00    +0.000 C 
BRANCH   2   3
ATOM      3  C   UNL     1       6.766   5.195  19.388  0.00  0.00    +0.000 C 
BRANCH   3   4
ATOM      4  C   UNL     1       7.310   4.972  17.993  0.00  0.00    +0.000 C 
ATOM      5  O   UNL     1       8.209   4.194  17.709  0.00  0.00    +0.000 OA
BRANCH   4   6
ATOM      6  O   UNL     1       6.680   5.818  17.118  0.00  0.00    +0.000 OA
BRANCH   6   7
ATOM      7  N   UNL     1       6.778   5.342  15.790  0.00  0.00    +0.000 N 
ATOM      8  N   UNL     1       7.823   5.789  15.040  0.00  0.00    +0.000 NA
ATOM      9  N   UNL     1       7.980   5.413  13.864  0.00  0.00    +0.000 NA
ATOM     10  C   UNL     1       7.032   4.565  13.282  0.00  0.00    +0.000 A 
ATOM     11  C   UNL     1       7.277   4.094  11.989  0.00  0.00    +0.000 A 
ATOM     12  C   UNL     1       6.351   3.277  11.342  0.00  0.00    +0.000 A 
ATOM     13  C   UNL     1       5.156   2.942  11.977  0.00  0.00    +0.000 A 
ATOM     14  C   UNL     1       4.901   3.400  13.272  0.00  0.00    +0.000 A 
ATOM     15  C   UNL     1       5.853   4.192  13.922  0.00  0.00    +0.000 A 
ATOM     16  C   UNL     1       5.692   4.634  15.317  0.00  0.00    +0.000 A 
ATOM     17  O   UNL     1       4.681   4.347  15.943  0.00  0.00    +0.000 OA
ENDBRANCH   6   7
ENDBRANCH   4   6
ENDBRANCH   3   4
ENDBRANCH   2   3
ENDBRANCH   1   2
BRANCH   1  18
ATOM     18  C   UNL     1       3.342   3.464  19.892  0.00  0.00    +0.000 C 
BRANCH  18  21
ATOM     19  C   UNL     1       2.185   5.667  20.643  0.00  0.00    +0.000 C 
ATOM     20  C   UNL     1       1.081   4.752  20.173  0.00  0.00    +0.000 C 
ATOM     21  C   UNL     1       2.455   4.632  19.573  0.00  0.00    +0.000 C 
BRANCH  19  22
ATOM     22  C   UNL     1       2.215   7.126  20.293  0.00  0.00    +0.000 C 
BRANCH  22  23
ATOM     23  C   UNL     1       1.095   7.919  20.960  0.00  0.00    +0.000 C 
BRANCH  23  24
ATOM     24  C   UNL     1       0.842   9.269  20.290  0.00  0.00    +0.000 C 
BRANCH  24  25
ATOM     25  C   UNL     1      -0.580   9.738  20.568  0.00  0.00    +0.000 C 
BRANCH  25  26
ATOM     26  C   UNL     1      -0.974  10.861  19.617  0.00  0.00    +0.000 C 
BRANCH  26  27
ATOM     27  C   UNL     1      -1.133  10.325  18.200  0.00  0.00    +0.000 C 
BRANCH  27  28
ATOM     28  C   UNL     1      -2.123  11.176  17.417  0.00  0.00    +0.000 C 
BRANCH  28  29
ATOM     29  C   UNL     1      -3.336  10.350  17.004  0.00  0.00    +0.000 C 
BRANCH  29  30
ATOM     30  C   UNL     1      -4.480  11.261  16.571  0.00  0.00    +0.000 C 
BRANCH  30  32
ATOM     31  C   UNL     1      -6.004  10.752  18.494  0.00  0.00    +0.000 C 
ATOM     32  C   UNL     1      -5.213  11.833  17.779  0.00  0.00    +0.000 C 
ENDBRANCH  30  32
ENDBRANCH  29  30
ENDBRANCH  28  29
ENDBRANCH  27  28
ENDBRANCH  26  27
ENDBRANCH  25  26
ENDBRANCH  24  25
ENDBRANCH  23  24
ENDBRANCH  22  23
ENDBRANCH  19  22
ENDBRANCH  18  21
ENDBRANCH   1  18
TORSDOF 17
ENDMDL
MODEL 6
REMARK VINA RESULT:      -6.3      1.292      1.914
REMARK  Name = 
REMARK  18 active torsions:
REMARK  status: ('A' for Active; 'I' for Inactive)
REMARK    1  A    between atoms: C_1  and  C_2
REMARK    2  A    between atoms: C_2  and  C_3
REMARK    3  A    between atoms: C_3  and  C_4
REMARK    4  A    between atoms: C_4  and  C_5
REMARK    5  A    between atoms: C_5  and  C_6
REMARK    6  A    between atoms: C_6  and  C_7
REMARK    7  A    between atoms: C_7  and  C_8
REMARK    8  A    between atoms: C_8  and  C_9
REMARK    9  A    between atoms: C_9  and  C_10
REMARK   10  A    between atoms: C_10  and  C_11
REMARK   11  A    between atoms: C_11  and  C_12
REMARK   12  A    between atoms: C_14  and  C_15
REMARK   13  A    between atoms: C_15  and  C_16
REMARK   14  A    between atoms: C_16  and  C_17
REMARK   15  A    between atoms: C_17  and  C_18
REMARK   16  A    between atoms: C_18  and  C_19
REMARK   17  A    between atoms: C_19  and  O_21
REMARK   18  A    between atoms: O_21  and  N_22
REMARK                            x       y       z     vdW  Elec       q    Type
REMARK                         _______ _______ _______ _____ _____    ______ ____
ROOT
ATOM      1  C   UNL     1       8.213   9.772  18.270  0.00  0.00    +0.000 C 
ENDROOT
BRANCH   1   2
ATOM      2  C   UNL     1       8.157   8.437  17.523  0.00  0.00    +0.000 C 
BRANCH   2   3
ATOM      3  C   UNL     1       6.771   7.790  17.565  0.00  0.00    +0.000 C 
BRANCH   3   4
ATOM      4  C   UNL     1       6.810   6.413  16.936  0.00  0.00    +0.000 C 
ATOM      5  O   UNL     1       7.698   5.591  17.107  0.00  0.00    +0.000 OA
BRANCH   4   6
ATOM      6  O   UNL     1       5.729   6.261  16.106  0.00  0.00    +0.000 OA
BRANCH   6   7
ATOM      7  N   UNL     1       4.634   5.692  16.795  0.00  0.00    +0.000 N 
ATOM      8  N   UNL     1       3.872   6.525  17.558  0.00  0.00    +0.000 NA
ATOM      9  N   UNL     1       2.888   6.098  18.190  0.00  0.00    +0.000 NA
ATOM     10  C   UNL     1       2.597   4.731  18.169  0.00  0.00    +0.000 A 
ATOM     11  C   UNL     1       1.440   4.294  18.821  0.00  0.00    +0.000 A 
ATOM     12  C   UNL     1       1.118   2.939  18.866  0.00  0.00    +0.000 A 
ATOM     13  C   UNL     1       1.966   2.002  18.277  0.00  0.00    +0.000 A 
ATOM     14  C   UNL     1       3.122   2.424  17.616  0.00  0.00    +0.000 A 
ATOM     15  C   UNL     1       3.416   3.790  17.549  0.00  0.00    +0.000 A 
ATOM     16  C   UNL     1       4.566   4.314  16.794  0.00  0.00    +0.000 A 
ATOM     17  O   UNL     1       5.332   3.548  16.226  0.00  0.00    +0.000 OA
ENDBRANCH   6   7
ENDBRANCH   4   6
ENDBRANCH   3   4
ENDBRANCH   2   3
ENDBRANCH   1   2
BRANCH   1  18
ATOM     18  C   UNL     1       9.482   9.907  19.121  0.00  0.00    +0.000 C 
BRANCH  18  21
ATOM     19  C   UNL     1      10.933  11.708  17.935  0.00  0.00    +0.000 C 
ATOM     20  C   UNL     1      11.500  11.563  19.326  0.00  0.00    +0.000 C 
ATOM     21  C   UNL     1      10.038  11.301  19.084  0.00  0.00    +0.000 C 
BRANCH  19  22
ATOM     22  C   UNL     1      10.749  13.049  17.286  0.00  0.00    +0.000 C 
BRANCH  22  23
ATOM     23  C   UNL     1      12.021  13.891  17.291  0.00  0.00    +0.000 C 
BRANCH  23  24
ATOM     24  C   UNL     1      11.938  15.088  18.237  0.00  0.00    +0.000 C 
BRANCH  24  25
ATOM     25  C   UNL     1      10.531  15.213  18.808  0.00  0.00    +0.000 C 
BRANCH  25  26
ATOM     26  C   UNL     1      10.520  14.881  20.294  0.00  0.00    +0.000 C 
BRANCH  26  27
ATOM     27  C   UNL     1       9.401  15.637  20.999  0.00  0.00    +0.000 C 
BRANCH  27  28
ATOM     28  C   UNL     1       8.591  14.694  21.877  0.00  0.00    +0.000 C 
BRANCH  28  29
ATOM     29  C   UNL     1       8.647  13.271  21.336  0.00  0.00    +0.000 C 
BRANCH  29  30
ATOM     30  C   UNL     1       9.010  12.291  22.446  0.00  0.00    +0.000 C 
BRANCH  30  32
ATOM     31  C   UNL     1       8.378  12.290  24.871  0.00  0.00    +0.000 C 
ATOM     32  C   UNL     1       7.869  12.151  23.448  0.00  0.00    +0.000 C 
ENDBRANCH  30  32
ENDBRANCH  29  30
ENDBRANCH  28  29
ENDBRANCH  27  28
ENDBRANCH  26  27
ENDBRANCH  25  26
ENDBRANCH  24  25
ENDBRANCH  23  24
ENDBRANCH  22  23
ENDBRANCH  19  22
ENDBRANCH  18  21
ENDBRANCH   1  18
TORSDOF 17
ENDMDL
MODEL 7
REMARK VINA RESULT:      -6.3      6.141     10.811
REMARK  Name = 
REMARK  18 active torsions:
REMARK  status: ('A' for Active; 'I' for Inactive)
REMARK    1  A    between atoms: C_1  and  C_2
REMARK    2  A    between atoms: C_2  and  C_3
REMARK    3  A    between atoms: C_3  and  C_4
REMARK    4  A    between atoms: C_4  and  C_5
REMARK    5  A    between atoms: C_5  and  C_6
REMARK    6  A    between atoms: C_6  and  C_7
REMARK    7  A    between atoms: C_7  and  C_8
REMARK    8  A    between atoms: C_8  and  C_9
REMARK    9  A    between atoms: C_9  and  C_10
REMARK   10  A    between atoms: C_10  and  C_11
REMARK   11  A    between atoms: C_11  and  C_12
REMARK   12  A    between atoms: C_14  and  C_15
REMARK   13  A    between atoms: C_15  and  C_16
REMARK   14  A    between atoms: C_16  and  C_17
REMARK   15  A    between atoms: C_17  and  C_18
REMARK   16  A    between atoms: C_18  and  C_19
REMARK   17  A    between atoms: C_19  and  O_21
REMARK   18  A    between atoms: O_21  and  N_22
REMARK                            x       y       z     vdW  Elec       q    Type
REMARK                         _______ _______ _______ _____ _____    ______ ____
ROOT
ATOM      1  C   UNL     1       1.861   7.218  17.988  0.00  0.00    +0.000 C 
ENDROOT
BRANCH   1   2
ATOM      2  C   UNL     1       1.964   8.716  17.692  0.00  0.00    +0.000 C 
BRANCH   2   3
ATOM      3  C   UNL     1       1.591   9.586  18.893  0.00  0.00    +0.000 C 
BRANCH   3   4
ATOM      4  C   UNL     1       0.700  10.733  18.462  0.00  0.00    +0.000 C 
ATOM      5  O   UNL     1       0.896  11.909  18.730  0.00  0.00    +0.000 OA
BRANCH   4   6
ATOM      6  O   UNL     1      -0.381  10.238  17.781  0.00  0.00    +0.000 OA
BRANCH   6   7
ATOM      7  N   UNL     1      -1.574  10.881  18.182  0.00  0.00    +0.000 N 
ATOM      8  N   UNL     1      -1.677  11.252  19.489  0.00  0.00    +0.000 NA
ATOM      9  N   UNL     1      -2.695  11.827  19.917  0.00  0.00    +0.000 NA
ATOM     10  C   UNL     1      -3.776  12.041  19.057  0.00  0.00    +0.000 A 
ATOM     11  C   UNL     1      -4.871  12.762  19.543  0.00  0.00    +0.000 A 
ATOM     12  C   UNL     1      -5.995  12.974  18.746  0.00  0.00    +0.000 A 
ATOM     13  C   UNL     1      -6.042  12.444  17.457  0.00  0.00    +0.000 A 
ATOM     14  C   UNL     1      -4.953  11.727  16.955  0.00  0.00    +0.000 A 
ATOM     15  C   UNL     1      -3.819  11.551  17.755  0.00  0.00    +0.000 A 
ATOM     16  C   UNL     1      -2.601  10.886  17.261  0.00  0.00    +0.000 A 
ATOM     17  O   UNL     1      -2.565  10.427  16.127  0.00  0.00    +0.000 OA
ENDBRANCH   6   7
ENDBRANCH   4   6
ENDBRANCH   3   4
ENDBRANCH   2   3
ENDBRANCH   1   2
BRANCH   1  18
ATOM     18  C   UNL     1       3.120   6.675  18.677  0.00  0.00    +0.000 C 
BRANCH  18  21
ATOM     19  C   UNL     1       1.694   5.141  20.215  0.00  0.00    +0.000 C 
ATOM     20  C   UNL     1       1.576   6.533  20.786  0.00  0.00    +0.000 C 
ATOM     21  C   UNL     1       2.823   6.133  20.044  0.00  0.00    +0.000 C 
BRANCH  19  22
ATOM     22  C   UNL     1       1.886   3.936  21.088  0.00  0.00    +0.000 C 
BRANCH  22  23
ATOM     23  C   UNL     1       1.252   2.676  20.508  0.00  0.00    +0.000 C 
BRANCH  23  24
ATOM     24  C   UNL     1       0.910   2.810  19.025  0.00  0.00    +0.000 C 
BRANCH  24  25
ATOM     25  C   UNL     1       2.021   2.212  18.171  0.00  0.00    +0.000 C 
BRANCH  25  26
ATOM     26  C   UNL     1       2.658   3.279  17.289  0.00  0.00    +0.000 C 
BRANCH  26  27
ATOM     27  C   UNL     1       4.147   3.392  17.585  0.00  0.00    +0.000 C 
BRANCH  27  28
ATOM     28  C   UNL     1       4.835   4.258  16.538  0.00  0.00    +0.000 C 
BRANCH  28  29
ATOM     29  C   UNL     1       6.303   4.464  16.888  0.00  0.00    +0.000 C 
BRANCH  29  30
ATOM     30  C   UNL     1       6.803   5.794  16.335  0.00  0.00    +0.000 C 
BRANCH  30  32
ATOM     31  C   UNL     1       7.763   7.734  17.597  0.00  0.00    +0.000 C 
ATOM     32  C   UNL     1       6.506   6.936  17.301  0.00  0.00    +0.000 C 
ENDBRANCH  30  32
ENDBRANCH  29  30
ENDBRANCH  28  29
ENDBRANCH  27  28
ENDBRANCH  26  27
ENDBRANCH  25  26
ENDBRANCH  24  25
ENDBRANCH  23  24
ENDBRANCH  22  23
ENDBRANCH  19  22
ENDBRANCH  18  21
ENDBRANCH   1  18
TORSDOF 17
ENDMDL
MODEL 8
REMARK VINA RESULT:      -6.3      6.593      9.055
REMARK  Name = 
REMARK  18 active torsions:
REMARK  status: ('A' for Active; 'I' for Inactive)
REMARK    1  A    between atoms: C_1  and  C_2
REMARK    2  A    between atoms: C_2  and  C_3
REMARK    3  A    between atoms: C_3  and  C_4
REMARK    4  A    between atoms: C_4  and  C_5
REMARK    5  A    between atoms: C_5  and  C_6
REMARK    6  A    between atoms: C_6  and  C_7
REMARK    7  A    between atoms: C_7  and  C_8
REMARK    8  A    between atoms: C_8  and  C_9
REMARK    9  A    between atoms: C_9  and  C_10
REMARK   10  A    between atoms: C_10  and  C_11
REMARK   11  A    between atoms: C_11  and  C_12
REMARK   12  A    between atoms: C_14  and  C_15
REMARK   13  A    between atoms: C_15  and  C_16
REMARK   14  A    between atoms: C_16  and  C_17
REMARK   15  A    between atoms: C_17  and  C_18
REMARK   16  A    between atoms: C_18  and  C_19
REMARK   17  A    between atoms: C_19  and  O_21
REMARK   18  A    between atoms: O_21  and  N_22
REMARK                            x       y       z     vdW  Elec       q    Type
REMARK                         _______ _______ _______ _____ _____    ______ ____
ROOT
ATOM      1  C   UNL     1       2.175   7.072  18.169  0.00  0.00    +0.000 C 
ENDROOT
BRANCH   1   2
ATOM      2  C   UNL     1       2.331   6.924  19.685  0.00  0.00    +0.000 C 
BRANCH   2   3
ATOM      3  C   UNL     1       3.184   5.718  20.080  0.00  0.00    +0.000 C 
BRANCH   3   4
ATOM      4  C   UNL     1       2.383   4.439  19.960  0.00  0.00    +0.000 C 
ATOM      5  O   UNL     1       1.169   4.361  20.076  0.00  0.00    +0.000 OA
BRANCH   4   6
ATOM      6  O   UNL     1       3.236   3.385  19.759  0.00  0.00    +0.000 OA
BRANCH   6   7
ATOM      7  N   UNL     1       4.266   3.728  18.855  0.00  0.00    +0.000 N 
ATOM      8  N   UNL     1       5.454   4.134  19.382  0.00  0.00    +0.000 NA
ATOM      9  N   UNL     1       6.410   4.449  18.650  0.00  0.00    +0.000 NA
ATOM     10  C   UNL     1       6.243   4.445  17.262  0.00  0.00    +0.000 A 
ATOM     11  C   UNL     1       7.357   4.723  16.464  0.00  0.00    +0.000 A 
ATOM     12  C   UNL     1       7.244   4.771  15.076  0.00  0.00    +0.000 A 
ATOM     13  C   UNL     1       6.005   4.564  14.472  0.00  0.00    +0.000 A 
ATOM     14  C   UNL     1       4.885   4.278  15.255  0.00  0.00    +0.000 A 
ATOM     15  C   UNL     1       5.019   4.200  16.646  0.00  0.00    +0.000 A 
ATOM     16  C   UNL     1       3.904   3.816  17.526  0.00  0.00    +0.000 A 
ATOM     17  O   UNL     1       2.797   3.588  17.057  0.00  0.00    +0.000 OA
ENDBRANCH   6   7
ENDBRANCH   4   6
ENDBRANCH   3   4
ENDBRANCH   2   3
ENDBRANCH   1   2
BRANCH   1  18
ATOM     18  C   UNL     1       1.685   8.470  17.770  0.00  0.00    +0.000 C 
BRANCH  18  21
ATOM     19  C   UNL     1       0.467   9.721  19.695  0.00  0.00    +0.000 C 
ATOM     20  C   UNL     1       1.088  10.789  18.828  0.00  0.00    +0.000 C 
ATOM     21  C   UNL     1       1.734   9.433  18.920  0.00  0.00    +0.000 C 
BRANCH  19  22
ATOM     22  C   UNL     1       0.508   9.788  21.193  0.00  0.00    +0.000 C 
BRANCH  22  23
ATOM     23  C   UNL     1      -0.795  10.295  21.802  0.00  0.00    +0.000 C 
BRANCH  23  24
ATOM     24  C   UNL     1      -0.642  11.648  22.493  0.00  0.00    +0.000 C 
BRANCH  24  25
ATOM     25  C   UNL     1      -1.714  12.615  22.006  0.00  0.00    +0.000 C 
BRANCH  25  26
ATOM     26  C   UNL     1      -1.647  12.777  20.493  0.00  0.00    +0.000 C 
BRANCH  26  27
ATOM     27  C   UNL     1      -2.997  12.456  19.865  0.00  0.00    +0.000 C 
BRANCH  27  28
ATOM     28  C   UNL     1      -2.810  11.848  18.482  0.00  0.00    +0.000 C 
BRANCH  28  29
ATOM     29  C   UNL     1      -3.833  10.745  18.235  0.00  0.00    +0.000 C 
BRANCH  29  30
ATOM     30  C   UNL     1      -3.213   9.614  17.422  0.00  0.00    +0.000 C 
BRANCH  30  32
ATOM     31  C   UNL     1      -2.898  10.189  15.004  0.00  0.00    +0.000 C 
ATOM     32  C   UNL     1      -2.247  10.157  16.375  0.00  0.00    +0.000 C 
ENDBRANCH  30  32
ENDBRANCH  29  30
ENDBRANCH  28  29
ENDBRANCH  27  28
ENDBRANCH  26  27
ENDBRANCH  25  26
ENDBRANCH  24  25
ENDBRANCH  23  24
ENDBRANCH  22  23
ENDBRANCH  19  22
ENDBRANCH  18  21
ENDBRANCH   1  18
TORSDOF 17
ENDMDL
MODEL 9
REMARK VINA RESULT:      -6.3      6.571      9.100
REMARK  Name = 
REMARK  18 active torsions:
REMARK  status: ('A' for Active; 'I' for Inactive)
REMARK    1  A    between atoms: C_1  and  C_2
REMARK    2  A    between atoms: C_2  and  C_3
REMARK    3  A    between atoms: C_3  and  C_4
REMARK    4  A    between atoms: C_4  and  C_5
REMARK    5  A    between atoms: C_5  and  C_6
REMARK    6  A    between atoms: C_6  and  C_7
REMARK    7  A    between atoms: C_7  and  C_8
REMARK    8  A    between atoms: C_8  and  C_9
REMARK    9  A    between atoms: C_9  and  C_10
REMARK   10  A    between atoms: C_10  and  C_11
REMARK   11  A    between atoms: C_11  and  C_12
REMARK   12  A    between atoms: C_14  and  C_15
REMARK   13  A    between atoms: C_15  and  C_16
REMARK   14  A    between atoms: C_16  and  C_17
REMARK   15  A    between atoms: C_17  and  C_18
REMARK   16  A    between atoms: C_18  and  C_19
REMARK   17  A    between atoms: C_19  and  O_21
REMARK   18  A    between atoms: O_21  and  N_22
REMARK                            x       y       z     vdW  Elec       q    Type
REMARK                         _______ _______ _______ _____ _____    ______ ____
ROOT
ATOM      1  C   UNL     1       1.846   5.331  19.084  0.00  0.00    +0.000 C 
ENDROOT
BRANCH   1   2
ATOM      2  C   UNL     1       1.159   4.624  20.255  0.00  0.00    +0.000 C 
BRANCH   2   3
ATOM      3  C   UNL     1       1.157   3.101  20.112  0.00  0.00    +0.000 C 
BRANCH   3   4
ATOM      4  C   UNL     1       2.448   2.517  20.647  0.00  0.00    +0.000 C 
ATOM      5  O   UNL     1       2.865   2.669  21.786  0.00  0.00    +0.000 OA
BRANCH   4   6
ATOM      6  O   UNL     1       3.095   1.847  19.642  0.00  0.00    +0.000 OA
BRANCH   6   7
ATOM      7  N   UNL     1       4.041   2.679  19.002  0.00  0.00    +0.000 N 
ATOM      8  N   UNL     1       5.006   3.245  19.780  0.00  0.00    +0.000 NA
ATOM      9  N   UNL     1       5.877   3.986  19.288  0.00  0.00    +0.000 NA
ATOM     10  C   UNL     1       5.828   4.294  17.926  0.00  0.00    +0.000 A 
ATOM     11  C   UNL     1       6.865   5.062  17.386  0.00  0.00    +0.000 A 
ATOM     12  C   UNL     1       6.852   5.433  16.043  0.00  0.00    +0.000 A 
ATOM     13  C   UNL     1       5.784   5.058  15.229  0.00  0.00    +0.000 A 
ATOM     14  C   UNL     1       4.744   4.286  15.752  0.00  0.00    +0.000 A 
ATOM     15  C   UNL     1       4.787   3.892  17.093  0.00  0.00    +0.000 A 
ATOM     16  C   UNL     1       3.774   3.004  17.688  0.00  0.00    +0.000 A 
ATOM     17  O   UNL     1       2.828   2.612  17.019  0.00  0.00    +0.000 OA
ENDBRANCH   6   7
ENDBRANCH   4   6
ENDBRANCH   3   4
ENDBRANCH   2   3
ENDBRANCH   1   2
BRANCH   1  18
ATOM     18  C   UNL     1       2.982   6.251  19.548  0.00  0.00    +0.000 C 
BRANCH  18  21
ATOM     19  C   UNL     1       1.801   8.008  18.041  0.00  0.00    +0.000 C 
ATOM     20  C   UNL     1       2.966   7.483  17.238  0.00  0.00    +0.000 C 
ATOM     21  C   UNL     1       3.048   7.515  18.740  0.00  0.00    +0.000 C 
BRANCH  19  22
ATOM     22  C   UNL     1       1.454   9.468  18.079  0.00  0.00    +0.000 C 
BRANCH  22  23
ATOM     23  C   UNL     1       1.019   9.939  19.462  0.00  0.00    +0.000 C 
BRANCH  23  24
ATOM     24  C   UNL     1       0.471  11.365  19.460  0.00  0.00    +0.000 C 
BRANCH  24  25
ATOM     25  C   UNL     1      -0.651  11.501  20.482  0.00  0.00    +0.000 C 
BRANCH  25  26
ATOM     26  C   UNL     1      -1.812  12.301  19.906  0.00  0.00    +0.000 C 
BRANCH  26  27
ATOM     27  C   UNL     1      -1.894  12.108  18.397  0.00  0.00    +0.000 C 
BRANCH  27  28
ATOM     28  C   UNL     1      -2.773  10.911  18.060  0.00  0.00    +0.000 C 
BRANCH  28  29
ATOM     29  C   UNL     1      -3.588  11.178  16.801  0.00  0.00    +0.000 C 
BRANCH  29  30
ATOM     30  C   UNL     1      -2.739  10.945  15.555  0.00  0.00    +0.000 C 
BRANCH  30  32
ATOM     31  C   UNL     1      -3.727   9.985  13.462  0.00  0.00    +0.000 C 
ATOM     32  C   UNL     1      -3.161   9.669  14.835  0.00  0.00    +0.000 C 
ENDBRANCH  30  32
ENDBRANCH  29  30
ENDBRANCH  28  29
ENDBRANCH  27  28
ENDBRANCH  26  27
ENDBRANCH  25  26
ENDBRANCH  24  25
ENDBRANCH  23  24
ENDBRANCH  22  23
ENDBRANCH  19  22
ENDBRANCH  18  21
ENDBRANCH   1  18
TORSDOF 17
ENDMDL
