MODEL 1
REMARK VINA RESULT:      -6.4      0.000      0.000
REMARK  Name = 
REMARK  1 active torsions:
REMARK  status: ('A' for Active; 'I' for Inactive)
REMARK    1  A    between atoms: C_5  and  C_6
REMARK                            x       y       z     vdW  Elec       q    Type
REMARK                         _______ _______ _______ _____ _____    ______ ____
ROOT
ATOM      1  C   UNL     1       2.272   7.415  19.251  0.00  0.00    +0.000 A 
ATOM      2  C   UNL     1       2.550   7.967  17.999  0.00  0.00    +0.000 A 
ATOM      3  S   UNL     1       1.852   9.504  17.899  0.00  0.00    +0.000 S 
ATOM      4  C   UNL     1       1.174   9.463  19.435  0.00  0.00    +0.000 A 
ATOM      5  C   UNL     1       0.367  10.429  20.050  0.00  0.00    +0.000 A 
ATOM      6  C   UNL     1      -0.122  10.161  21.337  0.00  0.00    +0.000 A 
ATOM      7  C   UNL     1       0.210   8.958  21.986  0.00  0.00    +0.000 A 
ATOM      8  C   UNL     1       1.020   8.004  21.347  0.00  0.00    +0.000 A 
ATOM      9  C   UNL     1       1.499   8.280  20.050  0.00  0.00    +0.000 A 
ENDROOT
BRANCH   1  14
ATOM     10  C   UNL     1       3.810   2.048  19.322  0.00  0.00    +0.000 C 
ATOM     11  C   UNL     1       4.628   3.161  19.247  0.00  0.00    +0.000 C 
ATOM     12  N   UNL     1       3.932   4.308  18.860  0.00  0.00    +0.000 N 
ATOM     13  C   UNL     1       4.120   5.630  19.388  0.00  0.00    +0.000 C 
ATOM     14  C   UNL     1       2.659   6.044  19.702  0.00  0.00    +0.000 C 
ATOM     15  N   UNL     1       1.830   4.973  19.183  0.00  0.00    +0.000 NA
ATOM     16  C   UNL     1       2.581   4.045  18.751  0.00  0.00    +0.000 C 
ATOM     17  S   UNL     1       2.106   2.327  18.763  0.00  0.00    +0.000 S 
ENDBRANCH   1  14
TORSDOF 1
ENDMDL
MODEL 2
REMARK VINA RESULT:      -6.4      3.969      6.254
REMARK  Name = 
REMARK  1 active torsions:
REMARK  status: ('A' for Active; 'I' for Inactive)
REMARK    1  A    between atoms: C_5  and  C_6
REMARK                            x       y       z     vdW  Elec       q    Type
REMARK                         _______ _______ _______ _____ _____    ______ ____
ROOT
ATOM      1  C   UNL     1       5.309   4.628  17.899  0.00  0.00    +0.000 A 
ATOM      2  C   UNL     1       6.180   5.339  18.726  0.00  0.00    +0.000 A 
ATOM      3  S   UNL     1       7.449   5.960  17.796  0.00  0.00    +0.000 S 
ATOM      4  C   UNL     1       6.910   5.306  16.346  0.00  0.00    +0.000 A 
ATOM      5  C   UNL     1       7.521   5.371  15.088  0.00  0.00    +0.000 A 
ATOM      6  C   UNL     1       6.902   4.711  14.016  0.00  0.00    +0.000 A 
ATOM      7  C   UNL     1       5.692   4.019  14.211  0.00  0.00    +0.000 A 
ATOM      8  C   UNL     1       5.100   3.967  15.485  0.00  0.00    +0.000 A 
ATOM      9  C   UNL     1       5.735   4.627  16.556  0.00  0.00    +0.000 A 
ENDROOT
BRANCH   1  14
ATOM     10  C   UNL     1       0.841   2.932  20.788  0.00  0.00    +0.000 C 
ATOM     11  C   UNL     1       0.893   3.906  19.806  0.00  0.00    +0.000 C 
ATOM     12  N   UNL     1       2.195   4.355  19.570  0.00  0.00    +0.000 N 
ATOM     13  C   UNL     1       2.765   4.659  18.288  0.00  0.00    +0.000 C 
ATOM     14  C   UNL     1       4.101   3.875  18.354  0.00  0.00    +0.000 C 
ATOM     15  N   UNL     1       4.179   3.350  19.703  0.00  0.00    +0.000 NA
ATOM     16  C   UNL     1       3.102   3.629  20.316  0.00  0.00    +0.000 C 
ATOM     17  S   UNL     1       2.426   2.603  21.607  0.00  0.00    +0.000 S 
ENDBRANCH   1  14
TORSDOF 1
ENDMDL
MODEL 3
REMARK VINA RESULT:      -6.0      1.010      1.010
REMARK  Name = 
REMARK  1 active torsions:
REMARK  status: ('A' for Active; 'I' for Inactive)
REMARK    1  A    between atoms: C_5  and  C_6
REMARK                            x       y       z     vdW  Elec       q    Type
REMARK                         _______ _______ _______ _____ _____    ______ ____
ROOT
ATOM      1  C   UNL     1       2.002   7.793  19.623  0.00  0.00    +0.000 A 
ATOM      2  C   UNL     1       2.033   8.187  18.284  0.00  0.00    +0.000 A 
ATOM      3  S   UNL     1       1.184   9.640  18.111  0.00  0.00    +0.000 S 
ATOM      4  C   UNL     1       0.754   9.759  19.729  0.00  0.00    +0.000 A 
ATOM      5  C   UNL     1      -0.040  10.736  20.343  0.00  0.00    +0.000 A 
ATOM      6  C   UNL     1      -0.301  10.611  21.716  0.00  0.00    +0.000 A 
ATOM      7  C   UNL     1       0.240   9.537  22.446  0.00  0.00    +0.000 A 
ATOM      8  C   UNL     1       1.032   8.568  21.806  0.00  0.00    +0.000 A 
ATOM      9  C   UNL     1       1.280   8.699  20.425  0.00  0.00    +0.000 A 
ENDROOT
BRANCH   1  14
ATOM     10  C   UNL     1       3.302   2.425  20.446  0.00  0.00    +0.000 C 
ATOM     11  C   UNL     1       3.919   3.324  19.594  0.00  0.00    +0.000 C 
ATOM     12  N   UNL     1       3.126   4.444  19.335  0.00  0.00    +0.000 N 
ATOM     13  C   UNL     1       3.584   5.801  19.239  0.00  0.00    +0.000 C 
ATOM     14  C   UNL     1       2.583   6.529  20.171  0.00  0.00    +0.000 C 
ATOM     15  N   UNL     1       1.610   5.527  20.558  0.00  0.00    +0.000 NA
ATOM     16  C   UNL     1       1.968   4.403  20.086  0.00  0.00    +0.000 C 
ATOM     17  S   UNL     1       1.593   2.853  20.882  0.00  0.00    +0.000 S 
ENDBRANCH   1  14
TORSDOF 1
ENDMDL
MODEL 4
REMARK VINA RESULT:      -6.0      3.549      6.124
REMARK  Name = 
REMARK  1 active torsions:
REMARK  status: ('A' for Active; 'I' for Inactive)
REMARK    1  A    between atoms: C_5  and  C_6
REMARK                            x       y       z     vdW  Elec       q    Type
REMARK                         _______ _______ _______ _____ _____    ______ ____
ROOT
ATOM      1  C   UNL     1       5.004   5.503  17.445  0.00  0.00    +0.000 A 
ATOM      2  C   UNL     1       5.943   6.211  18.197  0.00  0.00    +0.000 A 
ATOM      3  S   UNL     1       7.369   6.369  17.302  0.00  0.00    +0.000 S 
ATOM      4  C   UNL     1       6.807   5.517  15.969  0.00  0.00    +0.000 A 
ATOM      5  C   UNL     1       7.501   5.188  14.797  0.00  0.00    +0.000 A 
ATOM      6  C   UNL     1       6.835   4.428  13.824  0.00  0.00    +0.000 A 
ATOM      7  C   UNL     1       5.501   4.028  14.026  0.00  0.00    +0.000 A 
ATOM      8  C   UNL     1       4.828   4.369  15.211  0.00  0.00    +0.000 A 
ATOM      9  C   UNL     1       5.510   5.125  16.186  0.00  0.00    +0.000 A 
ENDROOT
BRANCH   1  14
ATOM     10  C   UNL     1       0.783   3.410  20.443  0.00  0.00    +0.000 C 
ATOM     11  C   UNL     1       1.370   4.657  20.565  0.00  0.00    +0.000 C 
ATOM     12  N   UNL     1       2.623   4.718  19.951  0.00  0.00    +0.000 N 
ATOM     13  C   UNL     1       3.139   5.820  19.190  0.00  0.00    +0.000 C 
ATOM     14  C   UNL     1       3.642   5.101  17.913  0.00  0.00    +0.000 C 
ATOM     15  N   UNL     1       3.479   3.684  18.172  0.00  0.00    +0.000 NA
ATOM     16  C   UNL     1       2.901   3.536  19.294  0.00  0.00    +0.000 C 
ATOM     17  S   UNL     1       1.836   2.155  19.663  0.00  0.00    +0.000 S 
ENDBRANCH   1  14
TORSDOF 1
ENDMDL
MODEL 5
REMARK VINA RESULT:      -6.0      4.010      5.530
REMARK  Name = 
REMARK  1 active torsions:
REMARK  status: ('A' for Active; 'I' for Inactive)
REMARK    1  A    between atoms: C_5  and  C_6
REMARK                            x       y       z     vdW  Elec       q    Type
REMARK                         _______ _______ _______ _____ _____    ______ ____
ROOT
ATOM      1  C   UNL     1       3.608   4.433  18.322  0.00  0.00    +0.000 A 
ATOM      2  C   UNL     1       3.464   3.655  17.172  0.00  0.00    +0.000 A 
ATOM      3  S   UNL     1       2.381   2.394  17.483  0.00  0.00    +0.000 S 
ATOM      4  C   UNL     1       2.112   2.817  19.086  0.00  0.00    +0.000 A 
ATOM      5  C   UNL     1       1.321   2.156  20.034  0.00  0.00    +0.000 A 
ATOM      6  C   UNL     1       1.274   2.676  21.336  0.00  0.00    +0.000 A 
ATOM      7  C   UNL     1       1.995   3.839  21.662  0.00  0.00    +0.000 A 
ATOM      8  C   UNL     1       2.783   4.483  20.693  0.00  0.00    +0.000 A 
ATOM      9  C   UNL     1       2.830   3.947  19.390  0.00  0.00    +0.000 A 
ENDROOT
BRANCH   1  14
ATOM     10  C   UNL     1       8.046   7.812  18.049  0.00  0.00    +0.000 C 
ATOM     11  C   UNL     1       7.042   7.656  17.109  0.00  0.00    +0.000 C 
ATOM     12  N   UNL     1       6.315   6.478  17.296  0.00  0.00    +0.000 N 
ATOM     13  C   UNL     1       4.895   6.329  17.151  0.00  0.00    +0.000 C 
ATOM     14  C   UNL     1       4.527   5.602  18.470  0.00  0.00    +0.000 C 
ATOM     15  N   UNL     1       5.790   5.308  19.118  0.00  0.00    +0.000 NA
ATOM     16  C   UNL     1       6.731   5.827  18.440  0.00  0.00    +0.000 C 
ATOM     17  S   UNL     1       8.252   6.400  19.170  0.00  0.00    +0.000 S 
ENDBRANCH   1  14
TORSDOF 1
ENDMDL
MODEL 6
REMARK VINA RESULT:      -5.9      2.279      6.086
REMARK  Name = 
REMARK  1 active torsions:
REMARK  status: ('A' for Active; 'I' for Inactive)
REMARK    1  A    between atoms: C_5  and  C_6
REMARK                            x       y       z     vdW  Elec       q    Type
REMARK                         _______ _______ _______ _____ _____    ______ ____
ROOT
ATOM      1  C   UNL     1       2.973   6.323  17.957  0.00  0.00    +0.000 A 
ATOM      2  C   UNL     1       4.246   6.752  17.575  0.00  0.00    +0.000 A 
ATOM      3  S   UNL     1       5.191   5.408  17.176  0.00  0.00    +0.000 S 
ATOM      4  C   UNL     1       3.996   4.277  17.511  0.00  0.00    +0.000 A 
ATOM      5  C   UNL     1       4.086   2.880  17.451  0.00  0.00    +0.000 A 
ATOM      6  C   UNL     1       2.959   2.128  17.815  0.00  0.00    +0.000 A 
ATOM      7  C   UNL     1       1.773   2.772  18.212  0.00  0.00    +0.000 A 
ATOM      8  C   UNL     1       1.709   4.175  18.266  0.00  0.00    +0.000 A 
ATOM      9  C   UNL     1       2.850   4.921  17.906  0.00  0.00    +0.000 A 
ENDROOT
BRANCH   1  14
ATOM     10  C   UNL     1       0.108  10.442  20.407  0.00  0.00    +0.000 C 
ATOM     11  C   UNL     1       0.680  10.443  19.147  0.00  0.00    +0.000 C 
ATOM     12  N   UNL     1       1.637   9.438  18.995  0.00  0.00    +0.000 N 
ATOM     13  C   UNL     1       1.834   8.627  17.827  0.00  0.00    +0.000 C 
ATOM     14  C   UNL     1       1.869   7.205  18.443  0.00  0.00    +0.000 C 
ATOM     15  N   UNL     1       1.832   7.401  19.879  0.00  0.00    +0.000 NA
ATOM     16  C   UNL     1       1.686   8.639  20.121  0.00  0.00    +0.000 C 
ATOM     17  S   UNL     1       0.842   9.255  21.566  0.00  0.00    +0.000 S 
ENDBRANCH   1  14
TORSDOF 1
ENDMDL
MODEL 7
REMARK VINA RESULT:      -5.9      2.682      4.336
REMARK  Name = 
REMARK  1 active torsions:
REMARK  status: ('A' for Active; 'I' for Inactive)
REMARK    1  A    between atoms: C_5  and  C_6
REMARK                            x       y       z     vdW  Elec       q    Type
REMARK                         _______ _______ _______ _____ _____    ______ ____
ROOT
ATOM      1  C   UNL     1       3.552   3.838  19.374  0.00  0.00    +0.000 A 
ATOM      2  C   UNL     1       3.126   2.887  20.304  0.00  0.00    +0.000 A 
ATOM      3  S   UNL     1       1.983   3.588  21.334  0.00  0.00    +0.000 S 
ATOM      4  C   UNL     1       2.044   5.106  20.619  0.00  0.00    +0.000 A 
ATOM      5  C   UNL     1       1.362   6.269  20.999  0.00  0.00    +0.000 A 
ATOM      6  C   UNL     1       1.600   7.444  20.270  0.00  0.00    +0.000 A 
ATOM      7  C   UNL     1       2.489   7.436  19.180  0.00  0.00    +0.000 A 
ATOM      8  C   UNL     1       3.163   6.256  18.820  0.00  0.00    +0.000 A 
ATOM      9  C   UNL     1       2.923   5.084  19.565  0.00  0.00    +0.000 A 
ENDROOT
BRANCH   1  14
ATOM     10  C   UNL     1       7.088   4.583  15.117  0.00  0.00    +0.000 C 
ATOM     11  C   UNL     1       7.285   4.909  16.447  0.00  0.00    +0.000 C 
ATOM     12  N   UNL     1       6.089   4.958  17.167  0.00  0.00    +0.000 N 
ATOM     13  C   UNL     1       5.888   4.479  18.505  0.00  0.00    +0.000 C 
ATOM     14  C   UNL     1       4.605   3.625  18.335  0.00  0.00    +0.000 C 
ATOM     15  N   UNL     1       4.170   3.843  16.970  0.00  0.00    +0.000 NA
ATOM     16  C   UNL     1       5.029   4.565  16.374  0.00  0.00    +0.000 C 
ATOM     17  S   UNL     1       5.347   4.452  14.624  0.00  0.00    +0.000 S 
ENDBRANCH   1  14
TORSDOF 1
ENDMDL
MODEL 8
REMARK VINA RESULT:      -5.9      1.091      1.099
REMARK  Name = 
REMARK  1 active torsions:
REMARK  status: ('A' for Active; 'I' for Inactive)
REMARK    1  A    between atoms: C_5  and  C_6
REMARK                            x       y       z     vdW  Elec       q    Type
REMARK                         _______ _______ _______ _____ _____    ______ ____
ROOT
ATOM      1  C   UNL     1       2.089   8.045  18.832  0.00  0.00    +0.000 A 
ATOM      2  C   UNL     1       2.017   8.827  17.678  0.00  0.00    +0.000 A 
ATOM      3  S   UNL     1       1.113  10.219  18.002  0.00  0.00    +0.000 S 
ATOM      4  C   UNL     1       0.789   9.820  19.601  0.00  0.00    +0.000 A 
ATOM      5  C   UNL     1       0.008  10.524  20.526  0.00  0.00    +0.000 A 
ATOM      6  C   UNL     1      -0.156   9.976  21.807  0.00  0.00    +0.000 A 
ATOM      7  C   UNL     1       0.467   8.760  22.144  0.00  0.00    +0.000 A 
ATOM      8  C   UNL     1       1.244   8.072  21.197  0.00  0.00    +0.000 A 
ATOM      9  C   UNL     1       1.394   8.628  19.910  0.00  0.00    +0.000 A 
ENDROOT
BRANCH   1  14
ATOM     10  C   UNL     1       3.802   2.837  17.773  0.00  0.00    +0.000 C 
ATOM     11  C   UNL     1       4.386   4.020  17.357  0.00  0.00    +0.000 C 
ATOM     12  N   UNL     1       3.514   5.107  17.453  0.00  0.00    +0.000 N 
ATOM     13  C   UNL     1       3.858   6.431  17.891  0.00  0.00    +0.000 C 
ATOM     14  C   UNL     1       2.746   6.707  18.934  0.00  0.00    +0.000 C 
ATOM     15  N   UNL     1       1.843   5.575  18.851  0.00  0.00    +0.000 NA
ATOM     16  C   UNL     1       2.323   4.725  18.039  0.00  0.00    +0.000 C 
ATOM     17  S   UNL     1       2.041   2.972  18.188  0.00  0.00    +0.000 S 
ENDBRANCH   1  14
TORSDOF 1
ENDMDL
MODEL 9
REMARK VINA RESULT:      -5.8      2.252      6.277
REMARK  Name = 
REMARK  1 active torsions:
REMARK  status: ('A' for Active; 'I' for Inactive)
REMARK    1  A    between atoms: C_5  and  C_6
REMARK                            x       y       z     vdW  Elec       q    Type
REMARK                         _______ _______ _______ _____ _____    ______ ____
ROOT
ATOM      1  C   UNL     1       2.713   6.058  18.791  0.00  0.00    +0.000 A 
ATOM      2  C   UNL     1       1.829   5.001  19.015  0.00  0.00    +0.000 A 
ATOM      3  S   UNL     1       2.286   3.681  18.062  0.00  0.00    +0.000 S 
ATOM      4  C   UNL     1       3.591   4.456  17.344  0.00  0.00    +0.000 A 
ATOM      5  C   UNL     1       4.454   3.963  16.357  0.00  0.00    +0.000 A 
ATOM      6  C   UNL     1       5.461   4.811  15.874  0.00  0.00    +0.000 A 
ATOM      7  C   UNL     1       5.600   6.114  16.388  0.00  0.00    +0.000 A 
ATOM      8  C   UNL     1       4.720   6.585  17.377  0.00  0.00    +0.000 A 
ATOM      9  C   UNL     1       3.706   5.728  17.849  0.00  0.00    +0.000 A 
ENDROOT
BRANCH   1  14
ATOM     10  C   UNL     1       0.758  10.958  20.622  0.00  0.00    +0.000 C 
ATOM     11  C   UNL     1       0.768   9.748  21.293  0.00  0.00    +0.000 C 
ATOM     12  N   UNL     1       0.958   8.664  20.433  0.00  0.00    +0.000 N 
ATOM     13  C   UNL     1       1.766   7.507  20.696  0.00  0.00    +0.000 C 
ATOM     14  C   UNL     1       2.608   7.421  19.397  0.00  0.00    +0.000 C 
ATOM     15  N   UNL     1       2.073   8.441  18.517  0.00  0.00    +0.000 NA
ATOM     16  C   UNL     1       1.186   9.100  19.143  0.00  0.00    +0.000 C 
ATOM     17  S   UNL     1       0.840  10.818  18.815  0.00  0.00    +0.000 S 
ENDBRANCH   1  14
TORSDOF 1
ENDMDL
