MODEL 1
REMARK VINA RESULT:      -7.3      0.000      0.000
REMARK  Name = 
REMARK  7 active torsions:
REMARK  status: ('A' for Active; 'I' for Inactive)
REMARK    1  A    between atoms: C_1  and  C_2
REMARK    2  A    between atoms: C_2  and  N_3
REMARK    3  A    between atoms: N_3  and  C_4
REMARK    4  A    between atoms: C_7  and  C_8
REMARK    5  A    between atoms: C_9  and  C_10
REMARK    6  A    between atoms: C_12  and  O_13
REMARK    7  A    between atoms: C_15  and  O_16
REMARK                            x       y       z     vdW  Elec       q    Type
REMARK                         _______ _______ _______ _____ _____    ______ ____
ROOT
ATOM      1  C   UNL     1       8.365   7.973  18.528  0.00  0.00    +0.000 C 
ATOM      2  C   UNL     1       8.353   9.265  18.158  0.00  0.00    +0.000 C 
ENDROOT
BRANCH   1   6
ATOM      3  C   UNL     1       5.678   5.021  16.890  0.00  0.00    +0.000 A 
ATOM      4  C   UNL     1       5.516   6.390  16.651  0.00  0.00    +0.000 A 
ATOM      5  C   UNL     1       6.419   7.331  17.161  0.00  0.00    +0.000 A 
ATOM      6  C   UNL     1       7.490   6.932  17.964  0.00  0.00    +0.000 A 
ATOM      7  C   UNL     1       7.665   5.567  18.205  0.00  0.00    +0.000 A 
ATOM      8  C   UNL     1       6.758   4.627  17.686  0.00  0.00    +0.000 A 
BRANCH   3   9
ATOM      9  N   UNL     1       4.685   4.141  16.443  0.00  0.00    +0.000 N 
ATOM     10  H   UNL     1       4.983   3.627  15.619  0.00  0.00    +0.000 HD
BRANCH   9  12
ATOM     11  C   UNL     1       2.507   3.594  17.372  0.00  0.00    +0.000 C 
ATOM     12  C   UNL     1       3.999   3.300  17.415  0.00  0.00    +0.000 C 
ENDBRANCH   9  12
ENDBRANCH   3   9
ENDBRANCH   1   6
BRANCH   2  13
ATOM     13  C   UNL     1       9.344  10.258  18.611  0.00  0.00    +0.000 A 
ATOM     14  C   UNL     1       9.318  10.661  19.956  0.00  0.00    +0.000 A 
ATOM     15  C   UNL     1      10.202  11.640  20.411  0.00  0.00    +0.000 A 
ATOM     16  C   UNL     1      11.133  12.217  19.557  0.00  0.00    +0.000 A 
ATOM     17  C   UNL     1      11.174  11.801  18.233  0.00  0.00    +0.000 A 
ATOM     18  C   UNL     1      10.301  10.825  17.759  0.00  0.00    +0.000 A 
BRANCH  15  19
ATOM     19  O   UNL     1      10.170  12.080  21.702  0.00  0.00    +0.000 OA
ATOM     20  H   UNL     1      10.282  11.317  22.293  0.00  0.00    +0.000 HD
ENDBRANCH  15  19
BRANCH  17  21
ATOM     21  O   UNL     1      12.058  12.344  17.345  0.00  0.00    +0.000 OA
ATOM     22  H   UNL     1      12.403  11.632  16.781  0.00  0.00    +0.000 HD
ENDBRANCH  17  21
ENDBRANCH   2  13
TORSDOF 6
ENDMDL
MODEL 2
REMARK VINA RESULT:      -7.2      0.429      1.954
REMARK  Name = 
REMARK  7 active torsions:
REMARK  status: ('A' for Active; 'I' for Inactive)
REMARK    1  A    between atoms: C_1  and  C_2
REMARK    2  A    between atoms: C_2  and  N_3
REMARK    3  A    between atoms: N_3  and  C_4
REMARK    4  A    between atoms: C_7  and  C_8
REMARK    5  A    between atoms: C_9  and  C_10
REMARK    6  A    between atoms: C_12  and  O_13
REMARK    7  A    between atoms: C_15  and  O_16
REMARK                            x       y       z     vdW  Elec       q    Type
REMARK                         _______ _______ _______ _____ _____    ______ ____
ROOT
ATOM      1  C   UNL     1       8.377   7.996  18.694  0.00  0.00    +0.000 C 
ATOM      2  C   UNL     1       8.435   9.231  18.165  0.00  0.00    +0.000 C 
ENDROOT
BRANCH   1   6
ATOM      3  C   UNL     1       6.048   4.792  16.983  0.00  0.00    +0.000 A 
ATOM      4  C   UNL     1       5.881   6.126  16.594  0.00  0.00    +0.000 A 
ATOM      5  C   UNL     1       6.671   7.148  17.133  0.00  0.00    +0.000 A 
ATOM      6  C   UNL     1       7.626   6.871  18.115  0.00  0.00    +0.000 A 
ATOM      7  C   UNL     1       7.806   5.542  18.507  0.00  0.00    +0.000 A 
ATOM      8  C   UNL     1       7.014   4.520  17.958  0.00  0.00    +0.000 A 
BRANCH   3   9
ATOM      9  N   UNL     1       5.159   3.833  16.486  0.00  0.00    +0.000 N 
ATOM     10  H   UNL     1       5.588   2.914  16.436  0.00  0.00    +0.000 HD
BRANCH   9  12
ATOM     11  C   UNL     1       3.644   2.579  17.916  0.00  0.00    +0.000 C 
ATOM     12  C   UNL     1       3.800   3.793  17.012  0.00  0.00    +0.000 C 
ENDBRANCH   9  12
ENDBRANCH   3   9
ENDBRANCH   1   6
BRANCH   2  13
ATOM     13  C   UNL     1       9.322  10.297  18.665  0.00  0.00    +0.000 A 
ATOM     14  C   UNL     1      10.242  10.872  17.775  0.00  0.00    +0.000 A 
ATOM     15  C   UNL     1      11.138  11.843  18.224  0.00  0.00    +0.000 A 
ATOM     16  C   UNL     1      11.124  12.275  19.544  0.00  0.00    +0.000 A 
ATOM     17  C   UNL     1      10.198  11.723  20.419  0.00  0.00    +0.000 A 
ATOM     18  C   UNL     1       9.296  10.752  19.991  0.00  0.00    +0.000 A 
BRANCH  15  19
ATOM     19  O   UNL     1      12.069  12.388  17.390  0.00  0.00    +0.000 OA
ATOM     20  H   UNL     1      11.713  13.214  17.022  0.00  0.00    +0.000 HD
ENDBRANCH  15  19
BRANCH  17  21
ATOM     21  O   UNL     1      10.149  12.097  21.730  0.00  0.00    +0.000 OA
ATOM     22  H   UNL     1       9.830  11.343  22.254  0.00  0.00    +0.000 HD
ENDBRANCH  17  21
ENDBRANCH   2  13
TORSDOF 6
ENDMDL
MODEL 3
REMARK VINA RESULT:      -7.2      0.417      2.220
REMARK  Name = 
REMARK  7 active torsions:
REMARK  status: ('A' for Active; 'I' for Inactive)
REMARK    1  A    between atoms: C_1  and  C_2
REMARK    2  A    between atoms: C_2  and  N_3
REMARK    3  A    between atoms: N_3  and  C_4
REMARK    4  A    between atoms: C_7  and  C_8
REMARK    5  A    between atoms: C_9  and  C_10
REMARK    6  A    between atoms: C_12  and  O_13
REMARK    7  A    between atoms: C_15  and  O_16
REMARK                            x       y       z     vdW  Elec       q    Type
REMARK                         _______ _______ _______ _____ _____    ______ ____
ROOT
ATOM      1  C   UNL     1       8.398   8.122  18.645  0.00  0.00    +0.000 C 
ATOM      2  C   UNL     1       8.424   9.384  18.185  0.00  0.00    +0.000 C 
ENDROOT
BRANCH   1   6
ATOM      3  C   UNL     1       6.073   4.860  17.041  0.00  0.00    +0.000 A 
ATOM      4  C   UNL     1       6.975   4.685  18.097  0.00  0.00    +0.000 A 
ATOM      5  C   UNL     1       7.693   5.761  18.629  0.00  0.00    +0.000 A 
ATOM      6  C   UNL     1       7.564   7.044  18.089  0.00  0.00    +0.000 A 
ATOM      7  C   UNL     1       6.663   7.232  17.037  0.00  0.00    +0.000 A 
ATOM      8  C   UNL     1       5.940   6.148  16.512  0.00  0.00    +0.000 A 
BRANCH   3   9
ATOM      9  N   UNL     1       5.464   3.729  16.485  0.00  0.00    +0.000 N 
ATOM     10  H   UNL     1       6.151   3.044  16.183  0.00  0.00    +0.000 HD
BRANCH   9  12
ATOM     11  C   UNL     1       3.267   4.183  17.420  0.00  0.00    +0.000 C 
ATOM     12  C   UNL     1       4.333   3.125  17.177  0.00  0.00    +0.000 C 
ENDBRANCH   9  12
ENDBRANCH   3   9
ENDBRANCH   1   6
BRANCH   2  13
ATOM     13  C   UNL     1       9.382  10.406  18.644  0.00  0.00    +0.000 A 
ATOM     14  C   UNL     1      10.304  10.920  17.719  0.00  0.00    +0.000 A 
ATOM     15  C   UNL     1      11.264  11.846  18.128  0.00  0.00    +0.000 A 
ATOM     16  C   UNL     1      11.315  12.292  19.442  0.00  0.00    +0.000 A 
ATOM     17  C   UNL     1      10.388  11.801  20.352  0.00  0.00    +0.000 A 
ATOM     18  C   UNL     1       9.421  10.876  19.964  0.00  0.00    +0.000 A 
BRANCH  15  19
ATOM     19  O   UNL     1      12.198  12.330  17.260  0.00  0.00    +0.000 OA
ATOM     20  H   UNL     1      12.043  13.281  17.134  0.00  0.00    +0.000 HD
ENDBRANCH  15  19
BRANCH  17  21
ATOM     21  O   UNL     1      10.400  12.192  21.660  0.00  0.00    +0.000 OA
ATOM     22  H   UNL     1      10.683  13.121  21.701  0.00  0.00    +0.000 HD
ENDBRANCH  17  21
ENDBRANCH   2  13
TORSDOF 6
ENDMDL
MODEL 4
REMARK VINA RESULT:      -7.2      0.492      1.204
REMARK  Name = 
REMARK  7 active torsions:
REMARK  status: ('A' for Active; 'I' for Inactive)
REMARK    1  A    between atoms: C_1  and  C_2
REMARK    2  A    between atoms: C_2  and  N_3
REMARK    3  A    between atoms: N_3  and  C_4
REMARK    4  A    between atoms: C_7  and  C_8
REMARK    5  A    between atoms: C_9  and  C_10
REMARK    6  A    between atoms: C_12  and  O_13
REMARK    7  A    between atoms: C_15  and  O_16
REMARK                            x       y       z     vdW  Elec       q    Type
REMARK                         _______ _______ _______ _____ _____    ______ ____
ROOT
ATOM      1  C   UNL     1       8.473   8.094  18.629  0.00  0.00    +0.000 C 
ATOM      2  C   UNL     1       8.446   9.377  18.232  0.00  0.00    +0.000 C 
ENDROOT
BRANCH   1   6
ATOM      3  C   UNL     1       6.031   4.884  17.096  0.00  0.00    +0.000 A 
ATOM      4  C   UNL     1       7.026   4.671  18.056  0.00  0.00    +0.000 A 
ATOM      5  C   UNL     1       7.784   5.730  18.569  0.00  0.00    +0.000 A 
ATOM      6  C   UNL     1       7.599   7.034  18.102  0.00  0.00    +0.000 A 
ATOM      7  C   UNL     1       6.605   7.260  17.147  0.00  0.00    +0.000 A 
ATOM      8  C   UNL     1       5.844   6.193  16.640  0.00  0.00    +0.000 A 
BRANCH   3   9
ATOM      9  N   UNL     1       5.381   3.773  16.546  0.00  0.00    +0.000 N 
ATOM     10  H   UNL     1       5.926   2.925  16.662  0.00  0.00    +0.000 HD
BRANCH   9  12
ATOM     11  C   UNL     1       3.806   2.891  18.174  0.00  0.00    +0.000 C 
ATOM     12  C   UNL     1       3.964   3.576  16.826  0.00  0.00    +0.000 C 
ENDBRANCH   9  12
ENDBRANCH   3   9
ENDBRANCH   1   6
BRANCH   2  13
ATOM     13  C   UNL     1       9.435  10.387  18.648  0.00  0.00    +0.000 A 
ATOM     14  C   UNL     1       9.416  10.832  19.979  0.00  0.00    +0.000 A 
ATOM     15  C   UNL     1      10.298  11.828  20.398  0.00  0.00    +0.000 A 
ATOM     16  C   UNL     1      11.223  12.381  19.521  0.00  0.00    +0.000 A 
ATOM     17  C   UNL     1      11.257  11.924  18.210  0.00  0.00    +0.000 A 
ATOM     18  C   UNL     1      10.385  10.931  17.772  0.00  0.00    +0.000 A 
BRANCH  15  19
ATOM     19  O   UNL     1      10.272  12.308  21.675  0.00  0.00    +0.000 OA
ATOM     20  H   UNL     1      10.735  11.679  22.253  0.00  0.00    +0.000 HD
ENDBRANCH  15  19
BRANCH  17  21
ATOM     21  O   UNL     1      12.133  12.442  17.300  0.00  0.00    +0.000 OA
ATOM     22  H   UNL     1      12.281  13.379  17.514  0.00  0.00    +0.000 HD
ENDBRANCH  17  21
ENDBRANCH   2  13
TORSDOF 6
ENDMDL
MODEL 5
REMARK VINA RESULT:      -7.2      1.740      2.016
REMARK  Name = 
REMARK  7 active torsions:
REMARK  status: ('A' for Active; 'I' for Inactive)
REMARK    1  A    between atoms: C_1  and  C_2
REMARK    2  A    between atoms: C_2  and  N_3
REMARK    3  A    between atoms: N_3  and  C_4
REMARK    4  A    between atoms: C_7  and  C_8
REMARK    5  A    between atoms: C_9  and  C_10
REMARK    6  A    between atoms: C_12  and  O_13
REMARK    7  A    between atoms: C_15  and  O_16
REMARK                            x       y       z     vdW  Elec       q    Type
REMARK                         _______ _______ _______ _____ _____    ______ ____
ROOT
ATOM      1  C   UNL     1       8.117   8.856  17.674  0.00  0.00    +0.000 C 
ATOM      2  C   UNL     1       8.827   9.548  18.581  0.00  0.00    +0.000 C 
ENDROOT
BRANCH   1   6
ATOM      3  C   UNL     1       6.387   4.949  18.276  0.00  0.00    +0.000 A 
ATOM      4  C   UNL     1       5.848   5.872  17.373  0.00  0.00    +0.000 A 
ATOM      5  C   UNL     1       6.444   7.121  17.164  0.00  0.00    +0.000 A 
ATOM      6  C   UNL     1       7.577   7.504  17.888  0.00  0.00    +0.000 A 
ATOM      7  C   UNL     1       8.127   6.588  18.789  0.00  0.00    +0.000 A 
ATOM      8  C   UNL     1       7.527   5.334  18.990  0.00  0.00    +0.000 A 
BRANCH   3   9
ATOM      9  N   UNL     1       5.687   3.762  18.519  0.00  0.00    +0.000 N 
ATOM     10  H   UNL     1       5.762   3.474  19.490  0.00  0.00    +0.000 HD
BRANCH   9  12
ATOM     11  C   UNL     1       3.652   2.441  18.665  0.00  0.00    +0.000 C 
ATOM     12  C   UNL     1       4.336   3.620  17.990  0.00  0.00    +0.000 C 
ENDBRANCH   9  12
ENDBRANCH   3   9
ENDBRANCH   1   6
BRANCH   2  13
ATOM     13  C   UNL     1       9.218  10.960  18.414  0.00  0.00    +0.000 A 
ATOM     14  C   UNL     1      10.480  11.363  18.879  0.00  0.00    +0.000 A 
ATOM     15  C   UNL     1      10.863  12.702  18.791  0.00  0.00    +0.000 A 
ATOM     16  C   UNL     1      10.023  13.652  18.227  0.00  0.00    +0.000 A 
ATOM     17  C   UNL     1       8.784  13.249  17.745  0.00  0.00    +0.000 A 
ATOM     18  C   UNL     1       8.382  11.918  17.823  0.00  0.00    +0.000 A 
BRANCH  15  19
ATOM     19  O   UNL     1      12.066  13.128  19.274  0.00  0.00    +0.000 OA
ATOM     20  H   UNL     1      11.907  13.770  19.985  0.00  0.00    +0.000 HD
ENDBRANCH  15  19
BRANCH  17  21
ATOM     21  O   UNL     1       7.911  14.142  17.195  0.00  0.00    +0.000 OA
ATOM     22  H   UNL     1       8.165  15.036  17.479  0.00  0.00    +0.000 HD
ENDBRANCH  17  21
ENDBRANCH   2  13
TORSDOF 6
ENDMDL
MODEL 6
REMARK VINA RESULT:      -7.1      1.359      2.547
REMARK  Name = 
REMARK  7 active torsions:
REMARK  status: ('A' for Active; 'I' for Inactive)
REMARK    1  A    between atoms: C_1  and  C_2
REMARK    2  A    between atoms: C_2  and  N_3
REMARK    3  A    between atoms: N_3  and  C_4
REMARK    4  A    between atoms: C_7  and  C_8
REMARK    5  A    between atoms: C_9  and  C_10
REMARK    6  A    between atoms: C_12  and  O_13
REMARK    7  A    between atoms: C_15  and  O_16
REMARK                            x       y       z     vdW  Elec       q    Type
REMARK                         _______ _______ _______ _____ _____    ______ ____
ROOT
ATOM      1  C   UNL     1       8.270   9.077  17.769  0.00  0.00    +0.000 C 
ATOM      2  C   UNL     1       9.109   9.632  18.660  0.00  0.00    +0.000 C 
ENDROOT
BRANCH   1   6
ATOM      3  C   UNL     1       6.488   5.182  18.287  0.00  0.00    +0.000 A 
ATOM      4  C   UNL     1       7.602   5.597  19.026  0.00  0.00    +0.000 A 
ATOM      5  C   UNL     1       8.144   6.878  18.870  0.00  0.00    +0.000 A 
ATOM      6  C   UNL     1       7.613   7.771  17.936  0.00  0.00    +0.000 A 
ATOM      7  C   UNL     1       6.498   7.369  17.196  0.00  0.00    +0.000 A 
ATOM      8  C   UNL     1       5.955   6.084  17.361  0.00  0.00    +0.000 A 
BRANCH   3   9
ATOM      9  N   UNL     1       6.058   3.856  18.411  0.00  0.00    +0.000 N 
ATOM     10  H   UNL     1       6.774   3.267  18.826  0.00  0.00    +0.000 HD
BRANCH   9  12
ATOM     11  C   UNL     1       3.837   3.043  17.846  0.00  0.00    +0.000 C 
ATOM     12  C   UNL     1       4.729   3.593  18.949  0.00  0.00    +0.000 C 
ENDBRANCH   9  12
ENDBRANCH   3   9
ENDBRANCH   1   6
BRANCH   2  13
ATOM     13  C   UNL     1       9.626  11.008  18.555  0.00  0.00    +0.000 A 
ATOM     14  C   UNL     1      10.704  11.252  17.689  0.00  0.00    +0.000 A 
ATOM     15  C   UNL     1      11.259  12.529  17.604  0.00  0.00    +0.000 A 
ATOM     16  C   UNL     1      10.749  13.583  18.350  0.00  0.00    +0.000 A 
ATOM     17  C   UNL     1       9.668  13.347  19.189  0.00  0.00    +0.000 A 
ATOM     18  C   UNL     1       9.099  12.079  19.289  0.00  0.00    +0.000 A 
BRANCH  15  19
ATOM     19  O   UNL     1      12.333  12.783  16.802  0.00  0.00    +0.000 OA
ATOM     20  H   UNL     1      12.624  13.698  16.953  0.00  0.00    +0.000 HD
ENDBRANCH  15  19
BRANCH  17  21
ATOM     21  O   UNL     1       9.135  14.341  19.958  0.00  0.00    +0.000 OA
ATOM     22  H   UNL     1       9.013  14.000  20.860  0.00  0.00    +0.000 HD
ENDBRANCH  17  21
ENDBRANCH   2  13
TORSDOF 6
ENDMDL
MODEL 7
REMARK VINA RESULT:      -7.1      1.343      1.383
REMARK  Name = 
REMARK  7 active torsions:
REMARK  status: ('A' for Active; 'I' for Inactive)
REMARK    1  A    between atoms: C_1  and  C_2
REMARK    2  A    between atoms: C_2  and  N_3
REMARK    3  A    between atoms: N_3  and  C_4
REMARK    4  A    between atoms: C_7  and  C_8
REMARK    5  A    between atoms: C_9  and  C_10
REMARK    6  A    between atoms: C_12  and  O_13
REMARK    7  A    between atoms: C_15  and  O_16
REMARK                            x       y       z     vdW  Elec       q    Type
REMARK                         _______ _______ _______ _____ _____    ______ ____
ROOT
ATOM      1  C   UNL     1       8.516   8.464  18.567  0.00  0.00    +0.000 C 
ATOM      2  C   UNL     1       8.293   9.669  18.015  0.00  0.00    +0.000 C 
ENDROOT
BRANCH   1   6
ATOM      3  C   UNL     1       6.328   4.926  17.417  0.00  0.00    +0.000 A 
ATOM      4  C   UNL     1       6.228   6.129  16.708  0.00  0.00    +0.000 A 
ATOM      5  C   UNL     1       6.973   7.256  17.074  0.00  0.00    +0.000 A 
ATOM      6  C   UNL     1       7.811   7.227  18.192  0.00  0.00    +0.000 A 
ATOM      7  C   UNL     1       7.923   6.031  18.905  0.00  0.00    +0.000 A 
ATOM      8  C   UNL     1       7.177   4.901  18.529  0.00  0.00    +0.000 A 
BRANCH   3   9
ATOM      9  N   UNL     1       5.480   3.870  17.067  0.00  0.00    +0.000 N 
ATOM     10  H   UNL     1       6.002   3.067  16.728  0.00  0.00    +0.000 HD
BRANCH   9  12
ATOM     11  C   UNL     1       3.068   3.898  17.367  0.00  0.00    +0.000 C 
ATOM     12  C   UNL     1       4.403   3.499  17.977  0.00  0.00    +0.000 C 
ENDBRANCH   9  12
ENDBRANCH   3   9
ENDBRANCH   1   6
BRANCH   2  13
ATOM     13  C   UNL     1       9.118  10.860  18.285  0.00  0.00    +0.000 A 
ATOM     14  C   UNL     1      10.213  10.731  19.155  0.00  0.00    +0.000 A 
ATOM     15  C   UNL     1      10.984  11.847  19.481  0.00  0.00    +0.000 A 
ATOM     16  C   UNL     1      10.704  13.094  18.938  0.00  0.00    +0.000 A 
ATOM     17  C   UNL     1       9.636  13.217  18.059  0.00  0.00    +0.000 A 
ATOM     18  C   UNL     1       8.853  12.115  17.722  0.00  0.00    +0.000 A 
BRANCH  15  19
ATOM     19  O   UNL     1      12.026  11.758  20.356  0.00  0.00    +0.000 OA
ATOM     20  H   UNL     1      12.083  10.844  20.681  0.00  0.00    +0.000 HD
ENDBRANCH  15  19
BRANCH  17  21
ATOM     21  O   UNL     1       9.304  14.421  17.508  0.00  0.00    +0.000 OA
ATOM     22  H   UNL     1      10.108  14.964  17.449  0.00  0.00    +0.000 HD
ENDBRANCH  17  21
ENDBRANCH   2  13
TORSDOF 6
ENDMDL
MODEL 8
REMARK VINA RESULT:      -7.1      1.367      1.833
REMARK  Name = 
REMARK  7 active torsions:
REMARK  status: ('A' for Active; 'I' for Inactive)
REMARK    1  A    between atoms: C_1  and  C_2
REMARK    2  A    between atoms: C_2  and  N_3
REMARK    3  A    between atoms: N_3  and  C_4
REMARK    4  A    between atoms: C_7  and  C_8
REMARK    5  A    between atoms: C_9  and  C_10
REMARK    6  A    between atoms: C_12  and  O_13
REMARK    7  A    between atoms: C_15  and  O_16
REMARK                            x       y       z     vdW  Elec       q    Type
REMARK                         _______ _______ _______ _____ _____    ______ ____
ROOT
ATOM      1  C   UNL     1       8.521   8.377  18.595  0.00  0.00    +0.000 C 
ATOM      2  C   UNL     1       8.351   9.578  18.016  0.00  0.00    +0.000 C 
ENDROOT
BRANCH   1   6
ATOM      3  C   UNL     1       6.498   4.820  17.227  0.00  0.00    +0.000 A 
ATOM      4  C   UNL     1       6.553   5.988  16.459  0.00  0.00    +0.000 A 
ATOM      5  C   UNL     1       7.245   7.121  16.903  0.00  0.00    +0.000 A 
ATOM      6  C   UNL     1       7.869   7.134  18.154  0.00  0.00    +0.000 A 
ATOM      7  C   UNL     1       7.825   5.971  18.928  0.00  0.00    +0.000 A 
ATOM      8  C   UNL     1       7.133   4.836  18.473  0.00  0.00    +0.000 A 
BRANCH   3   9
ATOM      9  N   UNL     1       5.704   3.759  16.777  0.00  0.00    +0.000 N 
ATOM     10  H   UNL     1       6.061   2.863  17.094  0.00  0.00    +0.000 HD
BRANCH   9  12
ATOM     11  C   UNL     1       3.771   2.930  17.996  0.00  0.00    +0.000 C 
ATOM     12  C   UNL     1       4.255   3.864  16.897  0.00  0.00    +0.000 C 
ENDBRANCH   9  12
ENDBRANCH   3   9
ENDBRANCH   1   6
BRANCH   2  13
ATOM     13  C   UNL     1       9.136  10.776  18.365  0.00  0.00    +0.000 A 
ATOM     14  C   UNL     1       8.790  11.998  17.766  0.00  0.00    +0.000 A 
ATOM     15  C   UNL     1       9.544  13.143  18.026  0.00  0.00    +0.000 A 
ATOM     16  C   UNL     1      10.629  13.105  18.892  0.00  0.00    +0.000 A 
ATOM     17  C   UNL     1      10.957  11.901  19.502  0.00  0.00    +0.000 A 
ATOM     18  C   UNL     1      10.217  10.747  19.256  0.00  0.00    +0.000 A 
BRANCH  15  19
ATOM     19  O   UNL     1       9.256  14.333  17.426  0.00  0.00    +0.000 OA
ATOM     20  H   UNL     1       9.212  15.024  18.108  0.00  0.00    +0.000 HD
ENDBRANCH  15  19
BRANCH  17  21
ATOM     21  O   UNL     1      12.022  11.801  20.350  0.00  0.00    +0.000 OA
ATOM     22  H   UNL     1      12.336  12.697  20.557  0.00  0.00    +0.000 HD
ENDBRANCH  17  21
ENDBRANCH   2  13
TORSDOF 6
ENDMDL
MODEL 9
REMARK VINA RESULT:      -7.1      1.068      2.184
REMARK  Name = 
REMARK  7 active torsions:
REMARK  status: ('A' for Active; 'I' for Inactive)
REMARK    1  A    between atoms: C_1  and  C_2
REMARK    2  A    between atoms: C_2  and  N_3
REMARK    3  A    between atoms: N_3  and  C_4
REMARK    4  A    between atoms: C_7  and  C_8
REMARK    5  A    between atoms: C_9  and  C_10
REMARK    6  A    between atoms: C_12  and  O_13
REMARK    7  A    between atoms: C_15  and  O_16
REMARK                            x       y       z     vdW  Elec       q    Type
REMARK                         _______ _______ _______ _____ _____    ______ ____
ROOT
ATOM      1  C   UNL     1       8.173   8.939  17.923  0.00  0.00    +0.000 C 
ATOM      2  C   UNL     1       8.994   9.394  18.885  0.00  0.00    +0.000 C 
ENDROOT
BRANCH   1   6
ATOM      3  C   UNL     1       6.378   5.020  17.749  0.00  0.00    +0.000 A 
ATOM      4  C   UNL     1       5.957   6.070  16.925  0.00  0.00    +0.000 A 
ATOM      5  C   UNL     1       6.576   7.325  16.970  0.00  0.00    +0.000 A 
ATOM      6  C   UNL     1       7.610   7.581  17.875  0.00  0.00    +0.000 A 
ATOM      7  C   UNL     1       8.042   6.538  18.699  0.00  0.00    +0.000 A 
ATOM      8  C   UNL     1       7.420   5.279  18.645  0.00  0.00    +0.000 A 
BRANCH   3   9
ATOM      9  N   UNL     1       5.652   3.823  17.732  0.00  0.00    +0.000 N 
ATOM     10  H   UNL     1       6.249   3.020  17.904  0.00  0.00    +0.000 HD
BRANCH   9  12
ATOM     11  C   UNL     1       3.315   3.182  17.549  0.00  0.00    +0.000 C 
ATOM     12  C   UNL     1       4.390   3.754  18.459  0.00  0.00    +0.000 C 
ENDBRANCH   9  12
ENDBRANCH   3   9
ENDBRANCH   1   6
BRANCH   2  13
ATOM     13  C   UNL     1       9.416  10.801  19.007  0.00  0.00    +0.000 A 
ATOM     14  C   UNL     1       9.719  11.511  17.834  0.00  0.00    +0.000 A 
ATOM     15  C   UNL     1      10.177  12.827  17.911  0.00  0.00    +0.000 A 
ATOM     16  C   UNL     1      10.320  13.466  19.136  0.00  0.00    +0.000 A 
ATOM     17  C   UNL     1       9.997  12.771  20.295  0.00  0.00    +0.000 A 
ATOM     18  C   UNL     1       9.539  11.456  20.240  0.00  0.00    +0.000 A 
BRANCH  15  19
ATOM     19  O   UNL     1      10.518  13.525  16.790  0.00  0.00    +0.000 OA
ATOM     20  H   UNL     1      10.857  14.396  17.057  0.00  0.00    +0.000 HD
ENDBRANCH  15  19
BRANCH  17  21
ATOM     21  O   UNL     1      10.134  13.342  21.527  0.00  0.00    +0.000 OA
ATOM     22  H   UNL     1       9.902  12.680  22.200  0.00  0.00    +0.000 HD
ENDBRANCH  17  21
ENDBRANCH   2  13
TORSDOF 6
ENDMDL
