MODEL 1
REMARK VINA RESULT:      -8.3      0.000      0.000
REMARK  Name = 
REMARK  10 active torsions:
REMARK  status: ('A' for Active; 'I' for Inactive)
REMARK    1  A    between atoms: C_1  and  C_2
REMARK    2  A    between atoms: C_2  and  O_3
REMARK    3  A    between atoms: O_3  and  C_4
REMARK    4  A    between atoms: C_4  and  C_6
REMARK    5  A    between atoms: C_6  and  C_7
REMARK    6  A    between atoms: C_6  and  C_18
REMARK    7  A    between atoms: N_9  and  C_10
REMARK    8  A    between atoms: C_10  and  C_11
REMARK    9  A    between atoms: C_14  and  C_15
REMARK   10  A    between atoms: C_21  and  C_22
REMARK                            x       y       z     vdW  Elec       q    Type
REMARK                         _______ _______ _______ _____ _____    ______ ____
ROOT
ATOM      1  C   UNL     1       6.778   5.884  17.906  0.00  0.00    +0.000 C 
ENDROOT
BRANCH   1   2
ATOM      2  C   UNL     1       5.471   5.263  18.386  0.00  0.00    +0.000 A 
ATOM      3  N   UNL     1       5.568   4.120  19.125  0.00  0.00    +0.000 NA
ATOM      4  C   UNL     1       4.441   3.564  19.627  0.00  0.00    +0.000 A 
ATOM      5  C   UNL     1       3.178   4.091  19.442  0.00  0.00    +0.000 A 
ATOM      6  C   UNL     1       3.078   5.260  18.680  0.00  0.00    +0.000 A 
ATOM      7  C   UNL     1       4.227   5.862  18.157  0.00  0.00    +0.000 A 
ATOM      8 CL   UNL     1       4.031   7.352  17.312  0.00  0.00    +0.000 Cl
BRANCH   5   9
ATOM      9  C   UNL     1       1.977   3.448  20.061  0.00  0.00    +0.000 C 
ATOM     10  F   UNL     1       1.983   2.089  19.978  0.00  0.00    +0.000 F 
ATOM     11  F   UNL     1       1.867   3.737  21.387  0.00  0.00    +0.000 F 
ATOM     12  F   UNL     1       0.811   3.853  19.491  0.00  0.00    +0.000 F 
ENDBRANCH   5   9
ENDBRANCH   1   2
BRANCH   1  13
ATOM     13  C   UNL     1       7.438   5.072  16.798  0.00  0.00    +0.000 C 
ATOM     14  O   UNL     1       8.115   4.067  17.011  0.00  0.00    +0.000 OA
ATOM     15  N   UNL     1       7.160   5.517  15.516  0.00  0.00    +0.000 N 
ATOM     16  H   UNL     1       6.798   6.450  15.368  0.00  0.00    +0.000 HD
BRANCH  15  17
ATOM     17  C   UNL     1       7.724   4.847  14.362  0.00  0.00    +0.000 C 
BRANCH  17  18
ATOM     18  C   UNL     1       6.658   4.262  13.470  0.00  0.00    +0.000 A 
ATOM     19  C   UNL     1       5.314   4.248  13.870  0.00  0.00    +0.000 A 
ATOM     20  C   UNL     1       4.319   3.765  13.013  0.00  0.00    +0.000 A 
ATOM     21  C   UNL     1       4.646   3.285  11.741  0.00  0.00    +0.000 A 
ATOM     22  C   UNL     1       3.585   2.781  10.809  0.00  0.00    +0.000 C 
ATOM     23  C   UNL     1       5.987   3.295  11.339  0.00  0.00    +0.000 A 
ATOM     24  C   UNL     1       6.982   3.778  12.193  0.00  0.00    +0.000 A 
ENDBRANCH  17  18
ENDBRANCH  15  17
ENDBRANCH   1  13
BRANCH   1  25
ATOM     25  C   UNL     1       7.755   6.104  19.041  0.00  0.00    +0.000 C 
ATOM     26  O   UNL     1       7.981   5.317  19.952  0.00  0.00    +0.000 OA
BRANCH  25  27
ATOM     27  O   UNL     1       8.397   7.305  18.887  0.00  0.00    +0.000 OA
BRANCH  27  29
ATOM     28  C   UNL     1       8.417   9.572  18.038  0.00  0.00    +0.000 C 
ATOM     29  C   UNL     1       7.862   8.169  17.872  0.00  0.00    +0.000 C 
ENDBRANCH  27  29
ENDBRANCH  25  27
ENDBRANCH   1  25
TORSDOF 8
ENDMDL
MODEL 2
REMARK VINA RESULT:      -8.2      0.844      1.199
REMARK  Name = 
REMARK  10 active torsions:
REMARK  status: ('A' for Active; 'I' for Inactive)
REMARK    1  A    between atoms: C_1  and  C_2
REMARK    2  A    between atoms: C_2  and  O_3
REMARK    3  A    between atoms: O_3  and  C_4
REMARK    4  A    between atoms: C_4  and  C_6
REMARK    5  A    between atoms: C_6  and  C_7
REMARK    6  A    between atoms: C_6  and  C_18
REMARK    7  A    between atoms: N_9  and  C_10
REMARK    8  A    between atoms: C_10  and  C_11
REMARK    9  A    between atoms: C_14  and  C_15
REMARK   10  A    between atoms: C_21  and  C_22
REMARK                            x       y       z     vdW  Elec       q    Type
REMARK                         _______ _______ _______ _____ _____    ______ ____
ROOT
ATOM      1  C   UNL     1       6.274   5.688  17.618  0.00  0.00    +0.000 C 
ENDROOT
BRANCH   1   2
ATOM      2  C   UNL     1       4.933   5.068  17.995  0.00  0.00    +0.000 A 
ATOM      3  N   UNL     1       4.947   3.760  18.382  0.00  0.00    +0.000 NA
ATOM      4  C   UNL     1       3.792   3.182  18.786  0.00  0.00    +0.000 A 
ATOM      5  C   UNL     1       2.581   3.844  18.838  0.00  0.00    +0.000 A 
ATOM      6  C   UNL     1       2.565   5.183  18.437  0.00  0.00    +0.000 A 
ATOM      7  C   UNL     1       3.746   5.809  18.024  0.00  0.00    +0.000 A 
ATOM      8 CL   UNL     1       3.664   7.488  17.638  0.00  0.00    +0.000 Cl
BRANCH   5   9
ATOM      9  C   UNL     1       1.349   3.155  19.336  0.00  0.00    +0.000 C 
ATOM     10  F   UNL     1       1.603   1.983  19.981  0.00  0.00    +0.000 F 
ATOM     11  F   UNL     1       0.654   3.921  20.222  0.00  0.00    +0.000 F 
ATOM     12  F   UNL     1       0.476   2.852  18.337  0.00  0.00    +0.000 F 
ENDBRANCH   5   9
ENDBRANCH   1   2
BRANCH   1  13
ATOM     13  C   UNL     1       7.046   4.842  16.612  0.00  0.00    +0.000 C 
ATOM     14  O   UNL     1       8.056   4.204  16.903  0.00  0.00    +0.000 OA
ATOM     15  N   UNL     1       6.480   4.792  15.349  0.00  0.00    +0.000 N 
ATOM     16  H   UNL     1       5.794   5.482  15.070  0.00  0.00    +0.000 HD
BRANCH  15  17
ATOM     17  C   UNL     1       7.107   4.032  14.287  0.00  0.00    +0.000 C 
BRANCH  17  18
ATOM     18  C   UNL     1       6.139   3.706  13.177  0.00  0.00    +0.000 A 
ATOM     19  C   UNL     1       6.391   2.648  12.292  0.00  0.00    +0.000 A 
ATOM     20  C   UNL     1       5.460   2.305  11.305  0.00  0.00    +0.000 A 
ATOM     21  C   UNL     1       4.260   3.011  11.183  0.00  0.00    +0.000 A 
ATOM     22  C   UNL     1       3.248   2.642  10.139  0.00  0.00    +0.000 C 
ATOM     23  C   UNL     1       4.005   4.070  12.063  0.00  0.00    +0.000 A 
ATOM     24  C   UNL     1       4.933   4.413  13.050  0.00  0.00    +0.000 A 
ENDBRANCH  17  18
ENDBRANCH  15  17
ENDBRANCH   1  13
BRANCH   1  25
ATOM     25  C   UNL     1       7.135   5.965  18.832  0.00  0.00    +0.000 C 
ATOM     26  O   UNL     1       7.046   5.402  19.915  0.00  0.00    +0.000 OA
BRANCH  25  27
ATOM     27  O   UNL     1       8.074   6.919  18.538  0.00  0.00    +0.000 OA
BRANCH  27  29
ATOM     28  C   UNL     1       8.363   9.285  18.113  0.00  0.00    +0.000 C 
ATOM     29  C   UNL     1       7.613   8.019  17.739  0.00  0.00    +0.000 C 
ENDBRANCH  27  29
ENDBRANCH  25  27
ENDBRANCH   1  25
TORSDOF 8
ENDMDL
MODEL 3
REMARK VINA RESULT:      -7.6      2.054      5.944
REMARK  Name = 
REMARK  10 active torsions:
REMARK  status: ('A' for Active; 'I' for Inactive)
REMARK    1  A    between atoms: C_1  and  C_2
REMARK    2  A    between atoms: C_2  and  O_3
REMARK    3  A    between atoms: O_3  and  C_4
REMARK    4  A    between atoms: C_4  and  C_6
REMARK    5  A    between atoms: C_6  and  C_7
REMARK    6  A    between atoms: C_6  and  C_18
REMARK    7  A    between atoms: N_9  and  C_10
REMARK    8  A    between atoms: C_10  and  C_11
REMARK    9  A    between atoms: C_14  and  C_15
REMARK   10  A    between atoms: C_21  and  C_22
REMARK                            x       y       z     vdW  Elec       q    Type
REMARK                         _______ _______ _______ _____ _____    ______ ____
ROOT
ATOM      1  C   UNL     1       6.075   5.216  17.647  0.00  0.00    +0.000 C 
ENDROOT
BRANCH   1   2
ATOM      2  C   UNL     1       4.811   4.756  18.364  0.00  0.00    +0.000 A 
ATOM      3  N   UNL     1       4.418   5.486  19.448  0.00  0.00    +0.000 NA
ATOM      4  C   UNL     1       3.270   5.155  20.082  0.00  0.00    +0.000 A 
ATOM      5  C   UNL     1       2.451   4.113  19.691  0.00  0.00    +0.000 A 
ATOM      6  C   UNL     1       2.856   3.362  18.584  0.00  0.00    +0.000 A 
ATOM      7  C   UNL     1       4.034   3.687  17.903  0.00  0.00    +0.000 A 
ATOM      8 CL   UNL     1       4.415   2.775  16.490  0.00  0.00    +0.000 Cl
BRANCH   5   9
ATOM      9  C   UNL     1       1.170   3.829  20.412  0.00  0.00    +0.000 C 
ATOM     10  F   UNL     1       0.408   4.937  20.626  0.00  0.00    +0.000 F 
ATOM     11  F   UNL     1       0.377   2.961  19.726  0.00  0.00    +0.000 F 
ATOM     12  F   UNL     1       1.370   3.268  21.635  0.00  0.00    +0.000 F 
ENDBRANCH   5   9
ENDBRANCH   1   2
BRANCH   1  13
ATOM     13  C   UNL     1       7.115   5.788  18.604  0.00  0.00    +0.000 C 
ATOM     14  O   UNL     1       7.508   5.193  19.606  0.00  0.00    +0.000 OA
ATOM     15  N   UNL     1       7.638   7.012  18.219  0.00  0.00    +0.000 N 
ATOM     16  H   UNL     1       7.156   7.578  17.533  0.00  0.00    +0.000 HD
BRANCH  15  17
ATOM     17  C   UNL     1       8.630   7.681  19.034  0.00  0.00    +0.000 C 
BRANCH  17  18
ATOM     18  C   UNL     1       8.677   9.164  18.766  0.00  0.00    +0.000 A 
ATOM     19  C   UNL     1       9.475  10.012  19.548  0.00  0.00    +0.000 A 
ATOM     20  C   UNL     1       9.567  11.376  19.255  0.00  0.00    +0.000 A 
ATOM     21  C   UNL     1       8.865  11.923  18.177  0.00  0.00    +0.000 A 
ATOM     22  C   UNL     1       8.971  13.381  17.845  0.00  0.00    +0.000 C 
ATOM     23  C   UNL     1       8.066  11.081  17.394  0.00  0.00    +0.000 A 
ATOM     24  C   UNL     1       7.972   9.717  17.685  0.00  0.00    +0.000 A 
ENDBRANCH  17  18
ENDBRANCH  15  17
ENDBRANCH   1  13
BRANCH   1  25
ATOM     25  C   UNL     1       5.776   6.214  16.549  0.00  0.00    +0.000 C 
ATOM     26  O   UNL     1       4.871   7.039  16.560  0.00  0.00    +0.000 OA
BRANCH  25  27
ATOM     27  O   UNL     1       6.697   6.098  15.540  0.00  0.00    +0.000 OA
BRANCH  27  29
ATOM     28  C   UNL     1       6.393   4.310  13.937  0.00  0.00    +0.000 C 
ATOM     29  C   UNL     1       7.090   4.757  15.210  0.00  0.00    +0.000 C 
ENDBRANCH  27  29
ENDBRANCH  25  27
ENDBRANCH   1  25
TORSDOF 8
ENDMDL
MODEL 4
REMARK VINA RESULT:      -7.6      3.268      4.898
REMARK  Name = 
REMARK  10 active torsions:
REMARK  status: ('A' for Active; 'I' for Inactive)
REMARK    1  A    between atoms: C_1  and  C_2
REMARK    2  A    between atoms: C_2  and  O_3
REMARK    3  A    between atoms: O_3  and  C_4
REMARK    4  A    between atoms: C_4  and  C_6
REMARK    5  A    between atoms: C_6  and  C_7
REMARK    6  A    between atoms: C_6  and  C_18
REMARK    7  A    between atoms: N_9  and  C_10
REMARK    8  A    between atoms: C_10  and  C_11
REMARK    9  A    between atoms: C_14  and  C_15
REMARK   10  A    between atoms: C_21  and  C_22
REMARK                            x       y       z     vdW  Elec       q    Type
REMARK                         _______ _______ _______ _____ _____    ______ ____
ROOT
ATOM      1  C   UNL     1       4.196   4.851  19.006  0.00  0.00    +0.000 C 
ENDROOT
BRANCH   1   2
ATOM      2  C   UNL     1       3.388   6.143  18.971  0.00  0.00    +0.000 A 
ATOM      3  N   UNL     1       3.638   6.998  17.937  0.00  0.00    +0.000 NA
ATOM      4  C   UNL     1       2.904   8.129  17.827  0.00  0.00    +0.000 A 
ATOM      5  C   UNL     1       1.895   8.477  18.705  0.00  0.00    +0.000 A 
ATOM      6  C   UNL     1       1.642   7.604  19.767  0.00  0.00    +0.000 A 
ATOM      7  C   UNL     1       2.378   6.422  19.900  0.00  0.00    +0.000 A 
ATOM      8 CL   UNL     1       1.941   5.351  21.179  0.00  0.00    +0.000 Cl
BRANCH   5   9
ATOM      9  C   UNL     1       1.093   9.724  18.499  0.00  0.00    +0.000 C 
ATOM     10  F   UNL     1       0.482  10.171  19.631  0.00  0.00    +0.000 F 
ATOM     11  F   UNL     1       1.858  10.760  18.058  0.00  0.00    +0.000 F 
ATOM     12  F   UNL     1       0.106   9.567  17.577  0.00  0.00    +0.000 F 
ENDBRANCH   5   9
ENDBRANCH   1   2
BRANCH   1  13
ATOM     13  C   UNL     1       5.609   5.031  18.464  0.00  0.00    +0.000 C 
ATOM     14  O   UNL     1       6.614   4.960  19.168  0.00  0.00    +0.000 OA
ATOM     15  N   UNL     1       5.679   5.216  17.093  0.00  0.00    +0.000 N 
ATOM     16  H   UNL     1       4.855   5.490  16.573  0.00  0.00    +0.000 HD
BRANCH  15  17
ATOM     17  C   UNL     1       6.955   5.408  16.437  0.00  0.00    +0.000 C 
BRANCH  17  18
ATOM     18  C   UNL     1       6.954   4.870  15.028  0.00  0.00    +0.000 A 
ATOM     19  C   UNL     1       6.059   3.860  14.644  0.00  0.00    +0.000 A 
ATOM     20  C   UNL     1       6.015   3.409  13.321  0.00  0.00    +0.000 A 
ATOM     21  C   UNL     1       6.862   3.958  12.353  0.00  0.00    +0.000 A 
ATOM     22  C   UNL     1       6.811   3.493  10.928  0.00  0.00    +0.000 C 
ATOM     23  C   UNL     1       7.759   4.964  12.732  0.00  0.00    +0.000 A 
ATOM     24  C   UNL     1       7.804   5.416  14.054  0.00  0.00    +0.000 A 
ENDBRANCH  17  18
ENDBRANCH  15  17
ENDBRANCH   1  13
BRANCH   1  25
ATOM     25  C   UNL     1       3.499   3.723  18.275  0.00  0.00    +0.000 C 
ATOM     26  O   UNL     1       3.307   3.666  17.067  0.00  0.00    +0.000 OA
BRANCH  25  27
ATOM     27  O   UNL     1       3.144   2.736  19.156  0.00  0.00    +0.000 OA
BRANCH  27  29
ATOM     28  C   UNL     1       0.723   2.709  19.162  0.00  0.00    +0.000 C 
ATOM     29  C   UNL     1       1.991   1.962  18.790  0.00  0.00    +0.000 C 
ENDBRANCH  27  29
ENDBRANCH  25  27
ENDBRANCH   1  25
TORSDOF 8
ENDMDL
MODEL 5
REMARK VINA RESULT:      -7.6      3.185      4.810
REMARK  Name = 
REMARK  10 active torsions:
REMARK  status: ('A' for Active; 'I' for Inactive)
REMARK    1  A    between atoms: C_1  and  C_2
REMARK    2  A    between atoms: C_2  and  O_3
REMARK    3  A    between atoms: O_3  and  C_4
REMARK    4  A    between atoms: C_4  and  C_6
REMARK    5  A    between atoms: C_6  and  C_7
REMARK    6  A    between atoms: C_6  and  C_18
REMARK    7  A    between atoms: N_9  and  C_10
REMARK    8  A    between atoms: C_10  and  C_11
REMARK    9  A    between atoms: C_14  and  C_15
REMARK   10  A    between atoms: C_21  and  C_22
REMARK                            x       y       z     vdW  Elec       q    Type
REMARK                         _______ _______ _______ _____ _____    ______ ____
ROOT
ATOM      1  C   UNL     1       4.002   4.255  19.104  0.00  0.00    +0.000 C 
ENDROOT
BRANCH   1   2
ATOM      2  C   UNL     1       3.155   5.409  19.629  0.00  0.00    +0.000 A 
ATOM      3  N   UNL     1       3.160   6.560  18.896  0.00  0.00    +0.000 NA
ATOM      4  C   UNL     1       2.377   7.592  19.286  0.00  0.00    +0.000 A 
ATOM      5  C   UNL     1       1.553   7.553  20.395  0.00  0.00    +0.000 A 
ATOM      6  C   UNL     1       1.552   6.375  21.149  0.00  0.00    +0.000 A 
ATOM      7  C   UNL     1       2.343   5.289  20.764  0.00  0.00    +0.000 A 
ATOM      8 CL   UNL     1       2.213   3.840  21.689  0.00  0.00    +0.000 Cl
BRANCH   5   9
ATOM      9  C   UNL     1       0.680   8.716  20.746  0.00  0.00    +0.000 C 
ATOM     10  F   UNL     1      -0.458   8.364  21.405  0.00  0.00    +0.000 F 
ATOM     11  F   UNL     1       1.315   9.609  21.555  0.00  0.00    +0.000 F 
ATOM     12  F   UNL     1       0.278   9.420  19.653  0.00  0.00    +0.000 F 
ENDBRANCH   5   9
ENDBRANCH   1   2
BRANCH   1  13
ATOM     13  C   UNL     1       5.281   4.731  18.425  0.00  0.00    +0.000 C 
ATOM     14  O   UNL     1       6.403   4.515  18.877  0.00  0.00    +0.000 OA
ATOM     15  N   UNL     1       5.083   5.372  17.213  0.00  0.00    +0.000 N 
ATOM     16  H   UNL     1       4.169   5.732  16.970  0.00  0.00    +0.000 HD
BRANCH  15  17
ATOM     17  C   UNL     1       6.207   5.885  16.457  0.00  0.00    +0.000 C 
BRANCH  17  18
ATOM     18  C   UNL     1       6.398   5.145  15.157  0.00  0.00    +0.000 A 
ATOM     19  C   UNL     1       5.453   4.207  14.717  0.00  0.00    +0.000 A 
ATOM     20  C   UNL     1       5.599   3.570  13.480  0.00  0.00    +0.000 A 
ATOM     21  C   UNL     1       6.692   3.858  12.657  0.00  0.00    +0.000 A 
ATOM     22  C   UNL     1       6.850   3.193  11.321  0.00  0.00    +0.000 C 
ATOM     23  C   UNL     1       7.640   4.792  13.092  0.00  0.00    +0.000 A 
ATOM     24  C   UNL     1       7.495   5.429  14.328  0.00  0.00    +0.000 A 
ENDBRANCH  17  18
ENDBRANCH  15  17
ENDBRANCH   1  13
BRANCH   1  25
ATOM     25  C   UNL     1       3.221   3.355  18.169  0.00  0.00    +0.000 C 
ATOM     26  O   UNL     1       2.933   3.611  17.007  0.00  0.00    +0.000 OA
BRANCH  25  27
ATOM     27  O   UNL     1       2.913   2.176  18.795  0.00  0.00    +0.000 OA
BRANCH  27  29
ATOM     28  C   UNL     1       0.548   2.643  19.024  0.00  0.00    +0.000 C 
ATOM     29  C   UNL     1       1.598   1.661  18.535  0.00  0.00    +0.000 C 
ENDBRANCH  27  29
ENDBRANCH  25  27
ENDBRANCH   1  25
TORSDOF 8
ENDMDL
MODEL 6
REMARK VINA RESULT:      -7.6      6.864      8.947
REMARK  Name = 
REMARK  10 active torsions:
REMARK  status: ('A' for Active; 'I' for Inactive)
REMARK    1  A    between atoms: C_1  and  C_2
REMARK    2  A    between atoms: C_2  and  O_3
REMARK    3  A    between atoms: O_3  and  C_4
REMARK    4  A    between atoms: C_4  and  C_6
REMARK    5  A    between atoms: C_6  and  C_7
REMARK    6  A    between atoms: C_6  and  C_18
REMARK    7  A    between atoms: N_9  and  C_10
REMARK    8  A    between atoms: C_10  and  C_11
REMARK    9  A    between atoms: C_14  and  C_15
REMARK   10  A    between atoms: C_21  and  C_22
REMARK                            x       y       z     vdW  Elec       q    Type
REMARK                         _______ _______ _______ _____ _____    ______ ____
ROOT
ATOM      1  C   UNL     1       0.805  10.780  19.516  0.00  0.00    +0.000 C 
ENDROOT
BRANCH   1   2
ATOM      2  C   UNL     1      -0.625  10.995  19.034  0.00  0.00    +0.000 A 
ATOM      3  N   UNL     1      -1.138  10.054  18.189  0.00  0.00    +0.000 NA
ATOM      4  C   UNL     1      -2.423  10.167  17.781  0.00  0.00    +0.000 A 
ATOM      5  C   UNL     1      -3.266  11.187  18.178  0.00  0.00    +0.000 A 
ATOM      6  C   UNL     1      -2.740  12.154  19.039  0.00  0.00    +0.000 A 
ATOM      7  C   UNL     1      -1.418  12.057  19.485  0.00  0.00    +0.000 A 
ATOM      8 CL   UNL     1      -0.872  13.234  20.622  0.00  0.00    +0.000 Cl
BRANCH   5   9
ATOM      9  C   UNL     1      -4.692  11.228  17.722  0.00  0.00    +0.000 C 
ATOM     10  F   UNL     1      -4.845  10.986  16.391  0.00  0.00    +0.000 F 
ATOM     11  F   UNL     1      -5.460  10.300  18.357  0.00  0.00    +0.000 F 
ATOM     12  F   UNL     1      -5.284  12.429  17.956  0.00  0.00    +0.000 F 
ENDBRANCH   5   9
ENDBRANCH   1   2
BRANCH   1  13
ATOM     13  C   UNL     1       1.594   9.846  18.607  0.00  0.00    +0.000 C 
ATOM     14  O   UNL     1       2.049  10.192  17.518  0.00  0.00    +0.000 OA
ATOM     15  N   UNL     1       1.821   8.586  19.135  0.00  0.00    +0.000 N 
ATOM     16  H   UNL     1       1.264   8.251  19.912  0.00  0.00    +0.000 HD
BRANCH  15  17
ATOM     17  C   UNL     1       2.551   7.589  18.381  0.00  0.00    +0.000 C 
BRANCH  17  18
ATOM     18  C   UNL     1       2.224   6.187  18.830  0.00  0.00    +0.000 A 
ATOM     19  C   UNL     1       2.178   5.129  17.911  0.00  0.00    +0.000 A 
ATOM     20  C   UNL     1       1.939   3.819  18.339  0.00  0.00    +0.000 A 
ATOM     21  C   UNL     1       1.740   3.539  19.695  0.00  0.00    +0.000 A 
ATOM     22  C   UNL     1       1.500   2.135  20.167  0.00  0.00    +0.000 C 
ATOM     23  C   UNL     1       1.782   4.592  20.616  0.00  0.00    +0.000 A 
ATOM     24  C   UNL     1       2.021   5.901  20.190  0.00  0.00    +0.000 A 
ENDBRANCH  17  18
ENDBRANCH  15  17
ENDBRANCH   1  13
BRANCH   1  25
ATOM     25  C   UNL     1       0.855  10.279  20.944  0.00  0.00    +0.000 C 
ATOM     26  O   UNL     1       1.714  10.560  21.770  0.00  0.00    +0.000 OA
BRANCH  25  27
ATOM     27  O   UNL     1      -0.233   9.489  21.207  0.00  0.00    +0.000 OA
BRANCH  27  29
ATOM     28  C   UNL     1      -1.168  10.588  23.151  0.00  0.00    +0.000 C 
ATOM     29  C   UNL     1      -0.554   9.315  22.596  0.00  0.00    +0.000 C 
ENDBRANCH  27  29
ENDBRANCH  25  27
ENDBRANCH   1  25
TORSDOF 8
ENDMDL
MODEL 7
REMARK VINA RESULT:      -7.6      7.051      9.097
REMARK  Name = 
REMARK  10 active torsions:
REMARK  status: ('A' for Active; 'I' for Inactive)
REMARK    1  A    between atoms: C_1  and  C_2
REMARK    2  A    between atoms: C_2  and  O_3
REMARK    3  A    between atoms: O_3  and  C_4
REMARK    4  A    between atoms: C_4  and  C_6
REMARK    5  A    between atoms: C_6  and  C_7
REMARK    6  A    between atoms: C_6  and  C_18
REMARK    7  A    between atoms: N_9  and  C_10
REMARK    8  A    between atoms: C_10  and  C_11
REMARK    9  A    between atoms: C_14  and  C_15
REMARK   10  A    between atoms: C_21  and  C_22
REMARK                            x       y       z     vdW  Elec       q    Type
REMARK                         _______ _______ _______ _____ _____    ______ ____
ROOT
ATOM      1  C   UNL     1       0.271  10.272  19.861  0.00  0.00    +0.000 C 
ENDROOT
BRANCH   1   2
ATOM      2  C   UNL     1      -0.979  10.613  19.058  0.00  0.00    +0.000 A 
ATOM      3  N   UNL     1      -1.595   9.581  18.410  0.00  0.00    +0.000 NA
ATOM      4  C   UNL     1      -2.741   9.820  17.734  0.00  0.00    +0.000 A 
ATOM      5  C   UNL     1      -3.345  11.062  17.662  0.00  0.00    +0.000 A 
ATOM      6  C   UNL     1      -2.712  12.120  18.322  0.00  0.00    +0.000 A 
ATOM      7  C   UNL     1      -1.530  11.900  19.037  0.00  0.00    +0.000 A 
ATOM      8 CL   UNL     1      -0.864  13.233  19.903  0.00  0.00    +0.000 Cl
BRANCH   5   9
ATOM      9  C   UNL     1      -4.638  11.247  16.932  0.00  0.00    +0.000 C 
ATOM     10  F   UNL     1      -4.980  12.553  16.752  0.00  0.00    +0.000 F 
ATOM     11  F   UNL     1      -4.607  10.698  15.686  0.00  0.00    +0.000 F 
ATOM     12  F   UNL     1      -5.690  10.668  17.571  0.00  0.00    +0.000 F 
ENDBRANCH   5   9
ENDBRANCH   1   2
BRANCH   1  13
ATOM     13  C   UNL     1       1.236   9.380  19.090  0.00  0.00    +0.000 C 
ATOM     14  O   UNL     1       1.549   9.580  17.918  0.00  0.00    +0.000 OA
ATOM     15  N   UNL     1       1.792   8.354  19.837  0.00  0.00    +0.000 N 
ATOM     16  H   UNL     1       1.366   8.072  20.711  0.00  0.00    +0.000 HD
BRANCH  15  17
ATOM     17  C   UNL     1       2.722   7.421  19.236  0.00  0.00    +0.000 C 
BRANCH  17  18
ATOM     18  C   UNL     1       2.152   6.027  19.154  0.00  0.00    +0.000 A 
ATOM     19  C   UNL     1       2.141   5.324  17.941  0.00  0.00    +0.000 A 
ATOM     20  C   UNL     1       1.674   4.007  17.882  0.00  0.00    +0.000 A 
ATOM     21  C   UNL     1       1.207   3.365  19.033  0.00  0.00    +0.000 A 
ATOM     22  C   UNL     1       0.719   1.948  18.984  0.00  0.00    +0.000 C 
ATOM     23  C   UNL     1       1.214   4.064  20.247  0.00  0.00    +0.000 A 
ATOM     24  C   UNL     1       1.681   5.380  20.308  0.00  0.00    +0.000 A 
ENDBRANCH  17  18
ENDBRANCH  15  17
ENDBRANCH   1  13
BRANCH   1  25
ATOM     25  C   UNL     1      -0.064   9.642  21.197  0.00  0.00    +0.000 C 
ATOM     26  O   UNL     1      -0.412   8.481  21.372  0.00  0.00    +0.000 OA
BRANCH  25  27
ATOM     27  O   UNL     1       0.120  10.549  22.207  0.00  0.00    +0.000 OA
BRANCH  27  29
ATOM     28  C   UNL     1      -1.666  11.963  23.027  0.00  0.00    +0.000 C 
ATOM     29  C   UNL     1      -0.945  10.634  23.167  0.00  0.00    +0.000 C 
ENDBRANCH  27  29
ENDBRANCH  25  27
ENDBRANCH   1  25
TORSDOF 8
ENDMDL
MODEL 8
REMARK VINA RESULT:      -7.5      3.393      4.838
REMARK  Name = 
REMARK  10 active torsions:
REMARK  status: ('A' for Active; 'I' for Inactive)
REMARK    1  A    between atoms: C_1  and  C_2
REMARK    2  A    between atoms: C_2  and  O_3
REMARK    3  A    between atoms: O_3  and  C_4
REMARK    4  A    between atoms: C_4  and  C_6
REMARK    5  A    between atoms: C_6  and  C_7
REMARK    6  A    between atoms: C_6  and  C_18
REMARK    7  A    between atoms: N_9  and  C_10
REMARK    8  A    between atoms: C_10  and  C_11
REMARK    9  A    between atoms: C_14  and  C_15
REMARK   10  A    between atoms: C_21  and  C_22
REMARK                            x       y       z     vdW  Elec       q    Type
REMARK                         _______ _______ _______ _____ _____    ______ ____
ROOT
ATOM      1  C   UNL     1       3.556   4.592  18.804  0.00  0.00    +0.000 C 
ENDROOT
BRANCH   1   2
ATOM      2  C   UNL     1       2.765   5.703  19.485  0.00  0.00    +0.000 A 
ATOM      3  N   UNL     1       2.813   6.938  18.905  0.00  0.00    +0.000 NA
ATOM      4  C   UNL     1       2.079   7.942  19.436  0.00  0.00    +0.000 A 
ATOM      5  C   UNL     1       1.264   7.795  20.542  0.00  0.00    +0.000 A 
ATOM      6  C   UNL     1       1.218   6.531  21.139  0.00  0.00    +0.000 A 
ATOM      7  C   UNL     1       1.958   5.472  20.605  0.00  0.00    +0.000 A 
ATOM      8 CL   UNL     1       1.773   3.922  21.338  0.00  0.00    +0.000 Cl
BRANCH   5   9
ATOM      9  C   UNL     1       0.445   8.939  21.052  0.00  0.00    +0.000 C 
ATOM     10  F   UNL     1      -0.530   8.564  21.926  0.00  0.00    +0.000 F 
ATOM     11  F   UNL     1       1.202   9.857  21.713  0.00  0.00    +0.000 F 
ATOM     12  F   UNL     1      -0.185   9.619  20.057  0.00  0.00    +0.000 F 
ENDBRANCH   5   9
ENDBRANCH   1   2
BRANCH   1  13
ATOM     13  C   UNL     1       4.834   5.102  18.149  0.00  0.00    +0.000 C 
ATOM     14  O   UNL     1       5.923   5.122  18.721  0.00  0.00    +0.000 OA
ATOM     15  N   UNL     1       4.689   5.484  16.825  0.00  0.00    +0.000 N 
ATOM     16  H   UNL     1       3.769   5.670  16.446  0.00  0.00    +0.000 HD
BRANCH  15  17
ATOM     17  C   UNL     1       5.817   5.995  16.075  0.00  0.00    +0.000 C 
BRANCH  17  18
ATOM     18  C   UNL     1       6.067   5.201  14.817  0.00  0.00    +0.000 A 
ATOM     19  C   UNL     1       7.267   5.343  14.104  0.00  0.00    +0.000 A 
ATOM     20  C   UNL     1       7.524   4.557  12.976  0.00  0.00    +0.000 A 
ATOM     21  C   UNL     1       6.589   3.616  12.536  0.00  0.00    +0.000 A 
ATOM     22  C   UNL     1       6.862   2.757  11.336  0.00  0.00    +0.000 C 
ATOM     23  C   UNL     1       5.389   3.473  13.242  0.00  0.00    +0.000 A 
ATOM     24  C   UNL     1       5.130   4.256  14.370  0.00  0.00    +0.000 A 
ENDBRANCH  17  18
ENDBRANCH  15  17
ENDBRANCH   1  13
BRANCH   1  25
ATOM     25  C   UNL     1       2.721   3.836  17.792  0.00  0.00    +0.000 C 
ATOM     26  O   UNL     1       1.675   4.229  17.291  0.00  0.00    +0.000 OA
BRANCH  25  27
ATOM     27  O   UNL     1       3.326   2.648  17.472  0.00  0.00    +0.000 OA
BRANCH  27  29
ATOM     28  C   UNL     1       4.342   1.371  19.260  0.00  0.00    +0.000 C 
ATOM     29  C   UNL     1       3.109   1.572  18.398  0.00  0.00    +0.000 C 
ENDBRANCH  27  29
ENDBRANCH  25  27
ENDBRANCH   1  25
TORSDOF 8
ENDMDL
MODEL 9
REMARK VINA RESULT:      -7.5      5.593      8.209
REMARK  Name = 
REMARK  10 active torsions:
REMARK  status: ('A' for Active; 'I' for Inactive)
REMARK    1  A    between atoms: C_1  and  C_2
REMARK    2  A    between atoms: C_2  and  O_3
REMARK    3  A    between atoms: O_3  and  C_4
REMARK    4  A    between atoms: C_4  and  C_6
REMARK    5  A    between atoms: C_6  and  C_7
REMARK    6  A    between atoms: C_6  and  C_18
REMARK    7  A    between atoms: N_9  and  C_10
REMARK    8  A    between atoms: C_10  and  C_11
REMARK    9  A    between atoms: C_14  and  C_15
REMARK   10  A    between atoms: C_21  and  C_22
REMARK                            x       y       z     vdW  Elec       q    Type
REMARK                         _______ _______ _______ _____ _____    ______ ____
ROOT
ATOM      1  C   UNL     1       2.037   6.767  18.526  0.00  0.00    +0.000 C 
ENDROOT
BRANCH   1   2
ATOM      2  C   UNL     1       3.256   6.145  17.856  0.00  0.00    +0.000 A 
ATOM      3  N   UNL     1       4.380   6.916  17.784  0.00  0.00    +0.000 NA
ATOM      4  C   UNL     1       5.507   6.388  17.253  0.00  0.00    +0.000 A 
ATOM      5  C   UNL     1       5.597   5.093  16.778  0.00  0.00    +0.000 A 
ATOM      6  C   UNL     1       4.444   4.304  16.847  0.00  0.00    +0.000 A 
ATOM      7  C   UNL     1       3.268   4.821  17.400  0.00  0.00    +0.000 A 
ATOM      8 CL   UNL     1       1.919   3.756  17.539  0.00  0.00    +0.000 Cl
BRANCH   5   9
ATOM      9  C   UNL     1       6.888   4.559  16.242  0.00  0.00    +0.000 C 
ATOM     10  F   UNL     1       7.788   4.236  17.212  0.00  0.00    +0.000 F 
ATOM     11  F   UNL     1       6.710   3.424  15.511  0.00  0.00    +0.000 F 
ATOM     12  F   UNL     1       7.521   5.439  15.421  0.00  0.00    +0.000 F 
ENDBRANCH   5   9
ENDBRANCH   1   2
BRANCH   1  13
ATOM     13  C   UNL     1       1.874   8.244  18.187  0.00  0.00    +0.000 C 
ATOM     14  O   UNL     1       2.397   8.772  17.208  0.00  0.00    +0.000 OA
ATOM     15  N   UNL     1       1.028   8.938  19.037  0.00  0.00    +0.000 N 
ATOM     16  H   UNL     1       0.790   8.556  19.943  0.00  0.00    +0.000 HD
BRANCH  15  17
ATOM     17  C   UNL     1       0.782  10.352  18.842  0.00  0.00    +0.000 C 
BRANCH  17  18
ATOM     18  C   UNL     1      -0.668  10.637  18.539  0.00  0.00    +0.000 A 
ATOM     19  C   UNL     1      -1.374  11.613  19.257  0.00  0.00    +0.000 A 
ATOM     20  C   UNL     1      -2.699  11.922  18.930  0.00  0.00    +0.000 A 
ATOM     21  C   UNL     1      -3.345  11.264  17.879  0.00  0.00    +0.000 A 
ATOM     22  C   UNL     1      -4.759  11.599  17.510  0.00  0.00    +0.000 C 
ATOM     23  C   UNL     1      -2.644  10.287  17.161  0.00  0.00    +0.000 A 
ATOM     24  C   UNL     1      -1.321   9.977  17.486  0.00  0.00    +0.000 A 
ENDBRANCH  17  18
ENDBRANCH  15  17
ENDBRANCH   1  13
BRANCH   1  25
ATOM     25  C   UNL     1       2.055   6.578  20.029  0.00  0.00    +0.000 C 
ATOM     26  O   UNL     1       2.490   7.381  20.845  0.00  0.00    +0.000 OA
BRANCH  25  27
ATOM     27  O   UNL     1       1.468   5.386  20.363  0.00  0.00    +0.000 OA
BRANCH  27  29
ATOM     28  C   UNL     1       1.586   3.140  21.258  0.00  0.00    +0.000 C 
ATOM     29  C   UNL     1       2.291   4.476  21.108  0.00  0.00    +0.000 C 
ENDBRANCH  27  29
ENDBRANCH  25  27
ENDBRANCH   1  25
TORSDOF 8
ENDMDL
