MODEL 1
REMARK VINA RESULT:      -6.9      0.000      0.000
REMARK  Name = 
REMARK  10 active torsions:
REMARK  status: ('A' for Active; 'I' for Inactive)
REMARK    1  A    between atoms: C_1  and  O_2
REMARK    2  A    between atoms: O_2  and  C_3
REMARK    3  A    between atoms: C_3  and  C_5
REMARK    4  A    between atoms: C_5  and  N_6
REMARK    5  A    between atoms: C_11  and  O_12
REMARK    6  A    between atoms: O_12  and  C_13
REMARK    7  A    between atoms: C_14  and  O_15
REMARK    8  A    between atoms: O_15  and  C_16
REMARK    9  A    between atoms: C_19  and  C_20
REMARK   10  A    between atoms: C_20  and  C_21
REMARK                            x       y       z     vdW  Elec       q    Type
REMARK                         _______ _______ _______ _____ _____    ______ ____
ROOT
ATOM      1  N   UNL     1       1.997   7.699  20.268  0.00  0.00    +0.000 NA
ATOM      2  C   UNL     1       1.763   8.410  18.996  0.00  0.00    +0.000 C 
ATOM      3  C   UNL     1       2.145   7.665  17.701  0.00  0.00    +0.000 C 
ATOM      4  C   UNL     1       3.413   6.891  17.909  0.00  0.00    +0.000 A 
ATOM      5  C   UNL     1       4.417   6.840  16.946  0.00  0.00    +0.000 A 
ATOM      6  C   UNL     1       5.641   6.215  17.213  0.00  0.00    +0.000 A 
ATOM      7  C   UNL     1       5.859   5.616  18.470  0.00  0.00    +0.000 A 
ATOM      8  C   UNL     1       4.812   5.615  19.414  0.00  0.00    +0.000 A 
ATOM      9  C   UNL     1       3.586   6.239  19.136  0.00  0.00    +0.000 A 
ATOM     10  C   UNL     1       2.433   6.289  20.142  0.00  0.00    +0.000 C 
ENDROOT
BRANCH   6  11
ATOM     11  O   UNL     1       6.495   6.307  16.142  0.00  0.00    +0.000 OA
ATOM     12  C   UNL     1       6.650   5.194  15.280  0.00  0.00    +0.000 C 
ENDBRANCH   6  11
BRANCH   7  13
ATOM     13  O   UNL     1       7.086   5.062  18.715  0.00  0.00    +0.000 OA
ATOM     14  C   UNL     1       7.988   5.756  19.565  0.00  0.00    +0.000 C 
ENDBRANCH   7  13
BRANCH   1  15
ATOM     15  C   UNL     1       0.978   7.950  21.299  0.00  0.00    +0.000 C 
BRANCH  15  16
ATOM     16  C   UNL     1       1.189   9.254  22.095  0.00  0.00    +0.000 C 
ATOM     17  O   UNL     1       2.122   9.524  22.835  0.00  0.00    +0.000 OA
BRANCH  16  19
ATOM     18  C   UNL     1      -0.720  10.396  22.898  0.00  0.00    +0.000 C 
ATOM     19  O   UNL     1       0.156  10.098  21.806  0.00  0.00    +0.000 OA
ENDBRANCH  16  19
ENDBRANCH  15  16
ENDBRANCH   1  15
BRANCH  10  20
ATOM     20  C   UNL     1       1.291   5.267  19.808  0.00  0.00    +0.000 C 
BRANCH  20  21
ATOM     21  C   UNL     1       1.757   4.055  19.048  0.00  0.00    +0.000 A 
ATOM     22  C   UNL     1       1.418   3.724  17.749  0.00  0.00    +0.000 A 
ATOM     23  N   UNL     1       2.124   2.611  17.385  0.00  0.00    +0.000 N 
ATOM     24  C   UNL     1       2.945   2.216  18.415  0.00  0.00    +0.000 A 
ATOM     25  C   UNL     1       3.913   1.205  18.460  0.00  0.00    +0.000 A 
ATOM     26  C   UNL     1       4.596   1.019  19.665  0.00  0.00    +0.000 A 
ATOM     27  C   UNL     1       4.276   1.770  20.794  0.00  0.00    +0.000 A 
ATOM     28  C   UNL     1       3.305   2.776  20.730  0.00  0.00    +0.000 A 
ATOM     29  C   UNL     1       2.661   3.040  19.505  0.00  0.00    +0.000 A 
ATOM     30  H   UNL     1       2.084   2.165  16.480  0.00  0.00    +0.000 HD
ENDBRANCH  20  21
ENDBRANCH  10  20
TORSDOF 7
ENDMDL
MODEL 2
REMARK VINA RESULT:      -6.8      2.661      4.790
REMARK  Name = 
REMARK  10 active torsions:
REMARK  status: ('A' for Active; 'I' for Inactive)
REMARK    1  A    between atoms: C_1  and  O_2
REMARK    2  A    between atoms: O_2  and  C_3
REMARK    3  A    between atoms: C_3  and  C_5
REMARK    4  A    between atoms: C_5  and  N_6
REMARK    5  A    between atoms: C_11  and  O_12
REMARK    6  A    between atoms: O_12  and  C_13
REMARK    7  A    between atoms: C_14  and  O_15
REMARK    8  A    between atoms: O_15  and  C_16
REMARK    9  A    between atoms: C_19  and  C_20
REMARK   10  A    between atoms: C_20  and  C_21
REMARK                            x       y       z     vdW  Elec       q    Type
REMARK                         _______ _______ _______ _____ _____    ______ ____
ROOT
ATOM      1  N   UNL     1       1.311   8.609  18.512  0.00  0.00    +0.000 NA
ATOM      2  C   UNL     1       1.312   8.693  19.985  0.00  0.00    +0.000 C 
ATOM      3  C   UNL     1       2.142   7.637  20.742  0.00  0.00    +0.000 C 
ATOM      4  C   UNL     1       2.018   6.304  20.064  0.00  0.00    +0.000 A 
ATOM      5  C   UNL     1       1.866   5.119  20.780  0.00  0.00    +0.000 A 
ATOM      6  C   UNL     1       1.628   3.906  20.122  0.00  0.00    +0.000 A 
ATOM      7  C   UNL     1       1.553   3.878  18.716  0.00  0.00    +0.000 A 
ATOM      8  C   UNL     1       1.773   5.070  17.998  0.00  0.00    +0.000 A 
ATOM      9  C   UNL     1       2.017   6.282  18.664  0.00  0.00    +0.000 A 
ATOM     10  C   UNL     1       2.232   7.607  17.926  0.00  0.00    +0.000 C 
ENDROOT
BRANCH   6  11
ATOM     11  O   UNL     1       1.481   2.873  21.015  0.00  0.00    +0.000 OA
ATOM     12  C   UNL     1       2.632   2.298  21.608  0.00  0.00    +0.000 C 
ENDBRANCH   6  11
BRANCH   7  13
ATOM     13  O   UNL     1       1.265   2.684  18.110  0.00  0.00    +0.000 OA
ATOM     14  C   UNL     1       2.337   1.818  17.768  0.00  0.00    +0.000 C 
ENDBRANCH   7  13
BRANCH   1  15
ATOM     15  C   UNL     1       1.290   9.913  17.830  0.00  0.00    +0.000 C 
BRANCH  15  16
ATOM     16  C   UNL     1       0.427  10.981  18.530  0.00  0.00    +0.000 C 
ATOM     17  O   UNL     1       0.818  11.924  19.198  0.00  0.00    +0.000 OA
BRANCH  16  19
ATOM     18  C   UNL     1      -1.703  11.867  18.003  0.00  0.00    +0.000 C 
ATOM     19  O   UNL     1      -0.884  10.718  18.247  0.00  0.00    +0.000 OA
ENDBRANCH  16  19
ENDBRANCH  15  16
ENDBRANCH   1  15
BRANCH  10  20
ATOM     20  C   UNL     1       3.739   8.037  17.877  0.00  0.00    +0.000 C 
BRANCH  20  21
ATOM     21  C   UNL     1       4.617   7.103  17.087  0.00  0.00    +0.000 A 
ATOM     22  C   UNL     1       4.660   6.991  15.709  0.00  0.00    +0.000 A 
ATOM     23  N   UNL     1       5.653   6.113  15.376  0.00  0.00    +0.000 N 
ATOM     24  C   UNL     1       6.284   5.661  16.511  0.00  0.00    +0.000 A 
ATOM     25  C   UNL     1       7.411   4.842  16.650  0.00  0.00    +0.000 A 
ATOM     26  C   UNL     1       7.827   4.533  17.948  0.00  0.00    +0.000 A 
ATOM     27  C   UNL     1       7.106   4.973  19.056  0.00  0.00    +0.000 A 
ATOM     28  C   UNL     1       5.981   5.790  18.896  0.00  0.00    +0.000 A 
ATOM     29  C   UNL     1       5.590   6.185  17.602  0.00  0.00    +0.000 A 
ATOM     30  H   UNL     1       5.916   5.861  14.434  0.00  0.00    +0.000 HD
ENDBRANCH  20  21
ENDBRANCH  10  20
TORSDOF 7
ENDMDL
MODEL 3
REMARK VINA RESULT:      -6.8      2.762      5.003
REMARK  Name = 
REMARK  10 active torsions:
REMARK  status: ('A' for Active; 'I' for Inactive)
REMARK    1  A    between atoms: C_1  and  O_2
REMARK    2  A    between atoms: O_2  and  C_3
REMARK    3  A    between atoms: C_3  and  C_5
REMARK    4  A    between atoms: C_5  and  N_6
REMARK    5  A    between atoms: C_11  and  O_12
REMARK    6  A    between atoms: O_12  and  C_13
REMARK    7  A    between atoms: C_14  and  O_15
REMARK    8  A    between atoms: O_15  and  C_16
REMARK    9  A    between atoms: C_19  and  C_20
REMARK   10  A    between atoms: C_20  and  C_21
REMARK                            x       y       z     vdW  Elec       q    Type
REMARK                         _______ _______ _______ _____ _____    ______ ____
ROOT
ATOM      1  N   UNL     1       1.740   8.457  18.455  0.00  0.00    +0.000 NA
ATOM      2  C   UNL     1       1.556   8.576  19.914  0.00  0.00    +0.000 C 
ATOM      3  C   UNL     1       2.155   7.454  20.785  0.00  0.00    +0.000 C 
ATOM      4  C   UNL     1       1.973   6.127  20.109  0.00  0.00    +0.000 A 
ATOM      5  C   UNL     1       1.597   4.983  20.808  0.00  0.00    +0.000 A 
ATOM      6  C   UNL     1       1.313   3.788  20.136  0.00  0.00    +0.000 A 
ATOM      7  C   UNL     1       1.421   3.734  18.733  0.00  0.00    +0.000 A 
ATOM      8  C   UNL     1       1.867   4.878  18.040  0.00  0.00    +0.000 A 
ATOM      9  C   UNL     1       2.155   6.071  18.721  0.00  0.00    +0.000 A 
ATOM     10  C   UNL     1       2.612   7.346  18.007  0.00  0.00    +0.000 C 
ENDROOT
BRANCH   6  11
ATOM     11  O   UNL     1       0.934   2.800  21.011  0.00  0.00    +0.000 OA
ATOM     12  C   UNL     1       1.883   2.279  21.924  0.00  0.00    +0.000 C 
ENDBRANCH   6  11
BRANCH   7  13
ATOM     13  O   UNL     1       1.084   2.565  18.105  0.00  0.00    +0.000 OA
ATOM     14  C   UNL     1       2.108   1.623  17.825  0.00  0.00    +0.000 C 
ENDBRANCH   7  13
BRANCH   1  15
ATOM     15  C   UNL     1       1.955   9.739  17.764  0.00  0.00    +0.000 C 
BRANCH  15  16
ATOM     16  C   UNL     1       1.106  10.904  18.310  0.00  0.00    +0.000 C 
ATOM     17  O   UNL     1      -0.111  10.966  18.368  0.00  0.00    +0.000 OA
BRANCH  16  19
ATOM     18  C   UNL     1       1.588  12.482  20.005  0.00  0.00    +0.000 C 
ATOM     19  O   UNL     1       1.957  11.871  18.764  0.00  0.00    +0.000 OA
ENDBRANCH  16  19
ENDBRANCH  15  16
ENDBRANCH   1  15
BRANCH  10  20
ATOM     20  C   UNL     1       4.152   7.607  18.156  0.00  0.00    +0.000 C 
BRANCH  20  21
ATOM     21  C   UNL     1       5.001   6.379  17.966  0.00  0.00    +0.000 A 
ATOM     22  C   UNL     1       5.527   5.586  18.971  0.00  0.00    +0.000 A 
ATOM     23  N   UNL     1       6.149   4.513  18.395  0.00  0.00    +0.000 N 
ATOM     24  C   UNL     1       6.020   4.570  17.027  0.00  0.00    +0.000 A 
ATOM     25  C   UNL     1       6.400   3.647  16.046  0.00  0.00    +0.000 A 
ATOM     26  C   UNL     1       6.152   3.983  14.713  0.00  0.00    +0.000 A 
ATOM     27  C   UNL     1       5.605   5.219  14.375  0.00  0.00    +0.000 A 
ATOM     28  C   UNL     1       5.232   6.130  15.370  0.00  0.00    +0.000 A 
ATOM     29  C   UNL     1       5.395   5.780  16.725  0.00  0.00    +0.000 A 
ATOM     30  H   UNL     1       6.601   3.763  18.898  0.00  0.00    +0.000 HD
ENDBRANCH  20  21
ENDBRANCH  10  20
TORSDOF 7
ENDMDL
MODEL 4
REMARK VINA RESULT:      -6.6      4.504      7.965
REMARK  Name = 
REMARK  10 active torsions:
REMARK  status: ('A' for Active; 'I' for Inactive)
REMARK    1  A    between atoms: C_1  and  O_2
REMARK    2  A    between atoms: O_2  and  C_3
REMARK    3  A    between atoms: C_3  and  C_5
REMARK    4  A    between atoms: C_5  and  N_6
REMARK    5  A    between atoms: C_11  and  O_12
REMARK    6  A    between atoms: O_12  and  C_13
REMARK    7  A    between atoms: C_14  and  O_15
REMARK    8  A    between atoms: O_15  and  C_16
REMARK    9  A    between atoms: C_19  and  C_20
REMARK   10  A    between atoms: C_20  and  C_21
REMARK                            x       y       z     vdW  Elec       q    Type
REMARK                         _______ _______ _______ _____ _____    ______ ____
ROOT
ATOM      1  N   UNL     1       0.350  12.507  19.473  0.00  0.00    +0.000 NA
ATOM      2  C   UNL     1      -0.648  13.450  20.014  0.00  0.00    +0.000 C 
ATOM      3  C   UNL     1      -2.071  12.903  20.241  0.00  0.00    +0.000 C 
ATOM      4  C   UNL     1      -2.444  11.966  19.131  0.00  0.00    +0.000 A 
ATOM      5  C   UNL     1      -3.710  11.970  18.551  0.00  0.00    +0.000 A 
ATOM      6  C   UNL     1      -3.995  11.173  17.435  0.00  0.00    +0.000 A 
ATOM      7  C   UNL     1      -2.991  10.344  16.897  0.00  0.00    +0.000 A 
ATOM      8  C   UNL     1      -1.733  10.298  17.530  0.00  0.00    +0.000 A 
ATOM      9  C   UNL     1      -1.458  11.095  18.652  0.00  0.00    +0.000 A 
ATOM     10  C   UNL     1      -0.097  11.100  19.354  0.00  0.00    +0.000 C 
ENDROOT
BRANCH   6  11
ATOM     11  O   UNL     1      -5.287  11.352  17.008  0.00  0.00    +0.000 OA
ATOM     12  C   UNL     1      -6.337  11.363  17.959  0.00  0.00    +0.000 C 
ENDBRANCH   6  11
BRANCH   7  13
ATOM     13  O   UNL     1      -3.288   9.620  15.773  0.00  0.00    +0.000 OA
ATOM     14  C   UNL     1      -3.007  10.190  14.503  0.00  0.00    +0.000 C 
ENDBRANCH   7  13
BRANCH   1  15
ATOM     15  C   UNL     1       1.709  12.689  20.009  0.00  0.00    +0.000 C 
BRANCH  15  16
ATOM     16  C   UNL     1       1.933  14.035  20.727  0.00  0.00    +0.000 C 
ATOM     17  O   UNL     1       1.879  14.248  21.928  0.00  0.00    +0.000 OA
BRANCH  16  19
ATOM     18  C   UNL     1       2.447  16.300  20.278  0.00  0.00    +0.000 C 
ATOM     19  O   UNL     1       2.245  14.971  19.783  0.00  0.00    +0.000 OA
ENDBRANCH  16  19
ENDBRANCH  15  16
ENDBRANCH   1  15
BRANCH  10  20
ATOM     20  C   UNL     1      -0.102  10.287  20.696  0.00  0.00    +0.000 C 
BRANCH  20  21
ATOM     21  C   UNL     1       0.760   9.054  20.668  0.00  0.00    +0.000 A 
ATOM     22  C   UNL     1       0.860   8.104  21.669  0.00  0.00    +0.000 A 
ATOM     23  N   UNL     1       1.660   7.088  21.224  0.00  0.00    +0.000 N 
ATOM     24  C   UNL     1       2.070   7.340  19.936  0.00  0.00    +0.000 A 
ATOM     25  C   UNL     1       2.804   6.540  19.051  0.00  0.00    +0.000 A 
ATOM     26  C   UNL     1       3.088   7.069  17.788  0.00  0.00    +0.000 A 
ATOM     27  C   UNL     1       2.709   8.366  17.453  0.00  0.00    +0.000 A 
ATOM     28  C   UNL     1       1.976   9.151  18.351  0.00  0.00    +0.000 A 
ATOM     29  C   UNL     1       1.605   8.611  19.598  0.00  0.00    +0.000 A 
ATOM     30  H   UNL     1       1.887   6.254  21.746  0.00  0.00    +0.000 HD
ENDBRANCH  20  21
ENDBRANCH  10  20
TORSDOF 7
ENDMDL
MODEL 5
REMARK VINA RESULT:      -6.6      4.585      8.650
REMARK  Name = 
REMARK  10 active torsions:
REMARK  status: ('A' for Active; 'I' for Inactive)
REMARK    1  A    between atoms: C_1  and  O_2
REMARK    2  A    between atoms: O_2  and  C_3
REMARK    3  A    between atoms: C_3  and  C_5
REMARK    4  A    between atoms: C_5  and  N_6
REMARK    5  A    between atoms: C_11  and  O_12
REMARK    6  A    between atoms: O_12  and  C_13
REMARK    7  A    between atoms: C_14  and  O_15
REMARK    8  A    between atoms: O_15  and  C_16
REMARK    9  A    between atoms: C_19  and  C_20
REMARK   10  A    between atoms: C_20  and  C_21
REMARK                            x       y       z     vdW  Elec       q    Type
REMARK                         _______ _______ _______ _____ _____    ______ ____
ROOT
ATOM      1  N   UNL     1      -0.406  13.281  20.416  0.00  0.00    +0.000 NA
ATOM      2  C   UNL     1      -1.486  14.045  21.070  0.00  0.00    +0.000 C 
ATOM      3  C   UNL     1      -2.838  13.326  21.249  0.00  0.00    +0.000 C 
ATOM      4  C   UNL     1      -3.135  12.484  20.043  0.00  0.00    +0.000 A 
ATOM      5  C   UNL     1      -4.407  12.417  19.481  0.00  0.00    +0.000 A 
ATOM      6  C   UNL     1      -4.630  11.723  18.284  0.00  0.00    +0.000 A 
ATOM      7  C   UNL     1      -3.557  11.072  17.645  0.00  0.00    +0.000 A 
ATOM      8  C   UNL     1      -2.288  11.091  18.257  0.00  0.00    +0.000 A 
ATOM      9  C   UNL     1      -2.073  11.783  19.459  0.00  0.00    +0.000 A 
ATOM     10  C   UNL     1      -0.705  11.855  20.143  0.00  0.00    +0.000 C 
ENDROOT
BRANCH   6  11
ATOM     11  O   UNL     1      -5.944  11.810  17.893  0.00  0.00    +0.000 OA
ATOM     12  C   UNL     1      -6.883  10.882  18.407  0.00  0.00    +0.000 C 
ENDBRANCH   6  11
BRANCH   7  13
ATOM     13  O   UNL     1      -3.801  10.451  16.450  0.00  0.00    +0.000 OA
ATOM     14  C   UNL     1      -2.966  10.754  15.342  0.00  0.00    +0.000 C 
ENDBRANCH   7  13
BRANCH   1  15
ATOM     15  C   UNL     1       0.937  13.547  20.955  0.00  0.00    +0.000 C 
BRANCH  15  16
ATOM     16  C   UNL     1       2.017  13.782  19.880  0.00  0.00    +0.000 C 
ATOM     17  O   UNL     1       2.517  12.949  19.141  0.00  0.00    +0.000 OA
BRANCH  16  19
ATOM     18  C   UNL     1       1.779  15.844  18.744  0.00  0.00    +0.000 C 
ATOM     19  O   UNL     1       2.308  15.116  19.858  0.00  0.00    +0.000 OA
ENDBRANCH  16  19
ENDBRANCH  15  16
ENDBRANCH   1  15
BRANCH  10  20
ATOM     20  C   UNL     1      -0.595  10.903  21.384  0.00  0.00    +0.000 C 
BRANCH  20  21
ATOM     21  C   UNL     1       0.421   9.804  21.223  0.00  0.00    +0.000 A 
ATOM     22  C   UNL     1       0.918   8.997  22.231  0.00  0.00    +0.000 A 
ATOM     23  N   UNL     1       1.737   8.056  21.669  0.00  0.00    +0.000 N 
ATOM     24  C   UNL     1       1.767   8.213  20.304  0.00  0.00    +0.000 A 
ATOM     25  C   UNL     1       2.378   7.425  19.320  0.00  0.00    +0.000 A 
ATOM     26  C   UNL     1       2.251   7.840  17.991  0.00  0.00    +0.000 A 
ATOM     27  C   UNL     1       1.596   9.026  17.670  0.00  0.00    +0.000 A 
ATOM     28  C   UNL     1       0.992   9.801  18.668  0.00  0.00    +0.000 A 
ATOM     29  C   UNL     1       1.034   9.361  20.006  0.00  0.00    +0.000 A 
ATOM     30  H   UNL     1       2.217   7.326  22.175  0.00  0.00    +0.000 HD
ENDBRANCH  20  21
ENDBRANCH  10  20
TORSDOF 7
ENDMDL
MODEL 6
REMARK VINA RESULT:      -6.4      4.529      7.976
REMARK  Name = 
REMARK  10 active torsions:
REMARK  status: ('A' for Active; 'I' for Inactive)
REMARK    1  A    between atoms: C_1  and  O_2
REMARK    2  A    between atoms: O_2  and  C_3
REMARK    3  A    between atoms: C_3  and  C_5
REMARK    4  A    between atoms: C_5  and  N_6
REMARK    5  A    between atoms: C_11  and  O_12
REMARK    6  A    between atoms: O_12  and  C_13
REMARK    7  A    between atoms: C_14  and  O_15
REMARK    8  A    between atoms: O_15  and  C_16
REMARK    9  A    between atoms: C_19  and  C_20
REMARK   10  A    between atoms: C_20  and  C_21
REMARK                            x       y       z     vdW  Elec       q    Type
REMARK                         _______ _______ _______ _____ _____    ______ ____
ROOT
ATOM      1  N   UNL     1       0.405  12.759  19.755  0.00  0.00    +0.000 NA
ATOM      2  C   UNL     1      -0.523  13.174  20.824  0.00  0.00    +0.000 C 
ATOM      3  C   UNL     1      -1.798  12.327  21.007  0.00  0.00    +0.000 C 
ATOM      4  C   UNL     1      -2.330  11.905  19.669  0.00  0.00    +0.000 A 
ATOM      5  C   UNL     1      -3.691  11.921  19.374  0.00  0.00    +0.000 A 
ATOM      6  C   UNL     1      -4.151  11.642  18.081  0.00  0.00    +0.000 A 
ATOM      7  C   UNL     1      -3.227  11.328  17.065  0.00  0.00    +0.000 A 
ATOM      8  C   UNL     1      -1.859  11.250  17.389  0.00  0.00    +0.000 A 
ATOM      9  C   UNL     1      -1.405  11.525  18.689  0.00  0.00    +0.000 A 
ATOM     10  C   UNL     1       0.075  11.482  19.079  0.00  0.00    +0.000 C 
ENDROOT
BRANCH   6  11
ATOM     11  O   UNL     1      -5.518  11.742  18.004  0.00  0.00    +0.000 OA
ATOM     12  C   UNL     1      -6.108  13.003  17.742  0.00  0.00    +0.000 C 
ENDBRANCH   6  11
BRANCH   7  13
ATOM     13  O   UNL     1      -3.709  11.114  15.801  0.00  0.00    +0.000 OA
ATOM     14  C   UNL     1      -2.950  10.309  14.911  0.00  0.00    +0.000 C 
ENDBRANCH   7  13
BRANCH   1  15
ATOM     15  C   UNL     1       1.828  12.944  20.081  0.00  0.00    +0.000 C 
BRANCH  15  16
ATOM     16  C   UNL     1       2.599  13.828  19.080  0.00  0.00    +0.000 C 
ATOM     17  O   UNL     1       2.533  13.793  17.862  0.00  0.00    +0.000 OA
BRANCH  16  19
ATOM     18  C   UNL     1       3.635  14.328  21.148  0.00  0.00    +0.000 C 
ATOM     19  O   UNL     1       3.363  14.707  19.794  0.00  0.00    +0.000 OA
ENDBRANCH  16  19
ENDBRANCH  15  16
ENDBRANCH   1  15
BRANCH  10  20
ATOM     20  C   UNL     1       0.455  10.188  19.880  0.00  0.00    +0.000 C 
BRANCH  20  21
ATOM     21  C   UNL     1       1.305   9.217  19.105  0.00  0.00    +0.000 A 
ATOM     22  C   UNL     1       1.912   9.456  17.884  0.00  0.00    +0.000 A 
ATOM     23  N   UNL     1       2.678   8.370  17.562  0.00  0.00    +0.000 N 
ATOM     24  C   UNL     1       2.608   7.429  18.562  0.00  0.00    +0.000 A 
ATOM     25  C   UNL     1       3.299   6.221  18.713  0.00  0.00    +0.000 A 
ATOM     26  C   UNL     1       3.011   5.449  19.842  0.00  0.00    +0.000 A 
ATOM     27  C   UNL     1       2.026   5.841  20.745  0.00  0.00    +0.000 A 
ATOM     28  C   UNL     1       1.344   7.052  20.577  0.00  0.00    +0.000 A 
ATOM     29  C   UNL     1       1.675   7.888  19.492  0.00  0.00    +0.000 A 
ATOM     30  H   UNL     1       3.247   8.285  16.732  0.00  0.00    +0.000 HD
ENDBRANCH  20  21
ENDBRANCH  10  20
TORSDOF 7
ENDMDL
MODEL 7
REMARK VINA RESULT:      -6.3      8.376     11.422
REMARK  Name = 
REMARK  10 active torsions:
REMARK  status: ('A' for Active; 'I' for Inactive)
REMARK    1  A    between atoms: C_1  and  O_2
REMARK    2  A    between atoms: O_2  and  C_3
REMARK    3  A    between atoms: C_3  and  C_5
REMARK    4  A    between atoms: C_5  and  N_6
REMARK    5  A    between atoms: C_11  and  O_12
REMARK    6  A    between atoms: O_12  and  C_13
REMARK    7  A    between atoms: C_14  and  O_15
REMARK    8  A    between atoms: O_15  and  C_16
REMARK    9  A    between atoms: C_19  and  C_20
REMARK   10  A    between atoms: C_20  and  C_21
REMARK                            x       y       z     vdW  Elec       q    Type
REMARK                         _______ _______ _______ _____ _____    ______ ____
ROOT
ATOM      1  N   UNL     1       9.396  10.992  18.593  0.00  0.00    +0.000 NA
ATOM      2  C   UNL     1      10.664  11.208  17.869  0.00  0.00    +0.000 C 
ATOM      3  C   UNL     1      11.398  12.538  18.131  0.00  0.00    +0.000 C 
ATOM      4  C   UNL     1      10.405  13.655  18.261  0.00  0.00    +0.000 A 
ATOM      5  C   UNL     1      10.616  14.906  17.686  0.00  0.00    +0.000 A 
ATOM      6  C   UNL     1       9.620  15.890  17.715  0.00  0.00    +0.000 A 
ATOM      7  C   UNL     1       8.390  15.619  18.346  0.00  0.00    +0.000 A 
ATOM      8  C   UNL     1       8.211  14.375  18.982  0.00  0.00    +0.000 A 
ATOM      9  C   UNL     1       9.216  13.395  18.954  0.00  0.00    +0.000 A 
ATOM     10  C   UNL     1       9.053  12.019  19.605  0.00  0.00    +0.000 C 
ENDROOT
BRANCH   6  11
ATOM     11  O   UNL     1      10.025  17.031  17.066  0.00  0.00    +0.000 OA
ATOM     12  C   UNL     1      11.324  17.542  17.306  0.00  0.00    +0.000 C 
ENDBRANCH   6  11
BRANCH   7  13
ATOM     13  O   UNL     1       7.421  16.585  18.307  0.00  0.00    +0.000 OA
ATOM     14  C   UNL     1       6.163  16.311  18.907  0.00  0.00    +0.000 C 
ENDBRANCH   7  13
BRANCH   1  15
ATOM     15  C   UNL     1       9.166   9.600  19.011  0.00  0.00    +0.000 C 
BRANCH  15  16
ATOM     16  C   UNL     1       8.196   8.817  18.104  0.00  0.00    +0.000 C 
ATOM     17  O   UNL     1       7.509   9.264  17.199  0.00  0.00    +0.000 OA
BRANCH  16  19
ATOM     18  C   UNL     1       7.369   6.630  17.747  0.00  0.00    +0.000 C 
ATOM     19  O   UNL     1       8.256   7.500  18.458  0.00  0.00    +0.000 OA
ENDBRANCH  16  19
ENDBRANCH  15  16
ENDBRANCH   1  15
BRANCH  10  20
ATOM     20  C   UNL     1       9.824  11.896  20.966  0.00  0.00    +0.000 C 
BRANCH  20  21
ATOM     21  C   UNL     1       9.111  12.526  22.131  0.00  0.00    +0.000 A 
ATOM     22  C   UNL     1       8.199  11.904  22.965  0.00  0.00    +0.000 A 
ATOM     23  N   UNL     1       7.857  12.776  23.962  0.00  0.00    +0.000 N 
ATOM     24  C   UNL     1       8.547  13.956  23.814  0.00  0.00    +0.000 A 
ATOM     25  C   UNL     1       8.597  15.082  24.645  0.00  0.00    +0.000 A 
ATOM     26  C   UNL     1       9.387  16.157  24.229  0.00  0.00    +0.000 A 
ATOM     27  C   UNL     1      10.046  16.129  23.002  0.00  0.00    +0.000 A 
ATOM     28  C   UNL     1       9.984  14.995  22.184  0.00  0.00    +0.000 A 
ATOM     29  C   UNL     1       9.263  13.865  22.619  0.00  0.00    +0.000 A 
ATOM     30  H   UNL     1       7.222  12.574  24.720  0.00  0.00    +0.000 HD
ENDBRANCH  20  21
ENDBRANCH  10  20
TORSDOF 7
ENDMDL
MODEL 8
REMARK VINA RESULT:      -6.3      4.484      7.799
REMARK  Name = 
REMARK  10 active torsions:
REMARK  status: ('A' for Active; 'I' for Inactive)
REMARK    1  A    between atoms: C_1  and  O_2
REMARK    2  A    between atoms: O_2  and  C_3
REMARK    3  A    between atoms: C_3  and  C_5
REMARK    4  A    between atoms: C_5  and  N_6
REMARK    5  A    between atoms: C_11  and  O_12
REMARK    6  A    between atoms: O_12  and  C_13
REMARK    7  A    between atoms: C_14  and  O_15
REMARK    8  A    between atoms: O_15  and  C_16
REMARK    9  A    between atoms: C_19  and  C_20
REMARK   10  A    between atoms: C_20  and  C_21
REMARK                            x       y       z     vdW  Elec       q    Type
REMARK                         _______ _______ _______ _____ _____    ______ ____
ROOT
ATOM      1  N   UNL     1       0.486  12.671  19.965  0.00  0.00    +0.000 NA
ATOM      2  C   UNL     1      -0.545  13.012  20.964  0.00  0.00    +0.000 C 
ATOM      3  C   UNL     1      -1.818  12.143  20.975  0.00  0.00    +0.000 C 
ATOM      4  C   UNL     1      -2.215  11.796  19.571  0.00  0.00    +0.000 A 
ATOM      5  C   UNL     1      -3.543  11.814  19.150  0.00  0.00    +0.000 A 
ATOM      6  C   UNL     1      -3.875  11.608  17.805  0.00  0.00    +0.000 A 
ATOM      7  C   UNL     1      -2.855  11.364  16.864  0.00  0.00    +0.000 A 
ATOM      8  C   UNL     1      -1.522  11.282  17.312  0.00  0.00    +0.000 A 
ATOM      9  C   UNL     1      -1.197  11.484  18.663  0.00  0.00    +0.000 A 
ATOM     10  C   UNL     1       0.241  11.433  19.188  0.00  0.00    +0.000 C 
ENDROOT
BRANCH   6  11
ATOM     11  O   UNL     1      -5.230  11.699  17.605  0.00  0.00    +0.000 OA
ATOM     12  C   UNL     1      -6.103  10.922  18.406  0.00  0.00    +0.000 C 
ENDBRANCH   6  11
BRANCH   7  13
ATOM     13  O   UNL     1      -3.212  11.222  15.551  0.00  0.00    +0.000 OA
ATOM     14  C   UNL     1      -2.967   9.979  14.910  0.00  0.00    +0.000 C 
ENDBRANCH   7  13
BRANCH   1  15
ATOM     15  C   UNL     1       1.869  12.851  20.435  0.00  0.00    +0.000 C 
BRANCH  15  16
ATOM     16  C   UNL     1       2.427  14.274  20.234  0.00  0.00    +0.000 C 
ATOM     17  O   UNL     1       3.298  14.824  20.889  0.00  0.00    +0.000 OA
BRANCH  16  19
ATOM     18  C   UNL     1       2.658  15.476  18.210  0.00  0.00    +0.000 C 
ATOM     19  O   UNL     1       1.800  14.826  19.153  0.00  0.00    +0.000 OA
ENDBRANCH  16  19
ENDBRANCH  15  16
ENDBRANCH   1  15
BRANCH  10  20
ATOM     20  C   UNL     1       0.565  10.098  19.944  0.00  0.00    +0.000 C 
BRANCH  20  21
ATOM     21  C   UNL     1       1.372   9.118  19.136  0.00  0.00    +0.000 A 
ATOM     22  C   UNL     1       1.929   9.348  17.891  0.00  0.00    +0.000 A 
ATOM     23  N   UNL     1       2.671   8.255  17.538  0.00  0.00    +0.000 N 
ATOM     24  C   UNL     1       2.634   7.316  18.542  0.00  0.00    +0.000 A 
ATOM     25  C   UNL     1       3.319   6.101  18.666  0.00  0.00    +0.000 A 
ATOM     26  C   UNL     1       3.071   5.334  19.808  0.00  0.00    +0.000 A 
ATOM     27  C   UNL     1       2.128   5.737  20.751  0.00  0.00    +0.000 A 
ATOM     28  C   UNL     1       1.452   6.954  20.609  0.00  0.00    +0.000 A 
ATOM     29  C   UNL     1       1.745   7.786  19.510  0.00  0.00    +0.000 A 
ATOM     30  H   UNL     1       3.204   8.163  16.686  0.00  0.00    +0.000 HD
ENDBRANCH  20  21
ENDBRANCH  10  20
TORSDOF 7
ENDMDL
MODEL 9
REMARK VINA RESULT:      -6.1      6.095      9.829
REMARK  Name = 
REMARK  10 active torsions:
REMARK  status: ('A' for Active; 'I' for Inactive)
REMARK    1  A    between atoms: C_1  and  O_2
REMARK    2  A    between atoms: O_2  and  C_3
REMARK    3  A    between atoms: C_3  and  C_5
REMARK    4  A    between atoms: C_5  and  N_6
REMARK    5  A    between atoms: C_11  and  O_12
REMARK    6  A    between atoms: O_12  and  C_13
REMARK    7  A    between atoms: C_14  and  O_15
REMARK    8  A    between atoms: O_15  and  C_16
REMARK    9  A    between atoms: C_19  and  C_20
REMARK   10  A    between atoms: C_20  and  C_21
REMARK                            x       y       z     vdW  Elec       q    Type
REMARK                         _______ _______ _______ _____ _____    ______ ____
ROOT
ATOM      1  N   UNL     1      -2.362  12.267  22.687  0.00  0.00    +0.000 NA
ATOM      2  C   UNL     1      -1.384  11.235  23.079  0.00  0.00    +0.000 C 
ATOM      3  C   UNL     1      -0.156  11.055  22.164  0.00  0.00    +0.000 C 
ATOM      4  C   UNL     1      -0.562  11.200  20.727  0.00  0.00    +0.000 A 
ATOM      5  C   UNL     1      -0.070  10.363  19.729  0.00  0.00    +0.000 A 
ATOM      6  C   UNL     1      -0.559  10.439  18.418  0.00  0.00    +0.000 A 
ATOM      7  C   UNL     1      -1.553  11.384  18.099  0.00  0.00    +0.000 A 
ATOM      8  C   UNL     1      -1.996  12.271  19.100  0.00  0.00    +0.000 A 
ATOM      9  C   UNL     1      -1.498  12.193  20.410  0.00  0.00    +0.000 A 
ATOM     10  C   UNL     1      -1.972  13.115  21.536  0.00  0.00    +0.000 C 
ENDROOT
BRANCH   6  11
ATOM     11  O   UNL     1       0.039   9.506  17.607  0.00  0.00    +0.000 OA
ATOM     12  C   UNL     1       1.401   9.177  17.814  0.00  0.00    +0.000 C 
ENDBRANCH   6  11
BRANCH   7  13
ATOM     13  O   UNL     1      -2.045  11.393  16.821  0.00  0.00    +0.000 OA
ATOM     14  C   UNL     1      -3.338  10.856  16.587  0.00  0.00    +0.000 C 
ENDBRANCH   7  13
BRANCH   1  15
ATOM     15  C   UNL     1      -2.971  12.987  23.817  0.00  0.00    +0.000 C 
BRANCH  15  16
ATOM     16  C   UNL     1      -4.362  12.463  24.227  0.00  0.00    +0.000 C 
ATOM     17  O   UNL     1      -4.748  12.199  25.353  0.00  0.00    +0.000 OA
BRANCH  16  19
ATOM     18  C   UNL     1      -5.824  13.571  22.732  0.00  0.00    +0.000 C 
ATOM     19  O   UNL     1      -5.129  12.375  23.100  0.00  0.00    +0.000 OA
ENDBRANCH  16  19
ENDBRANCH  15  16
ENDBRANCH   1  15
BRANCH  10  20
ATOM     20  C   UNL     1      -0.942  14.251  21.865  0.00  0.00    +0.000 C 
BRANCH  20  21
ATOM     21  C   UNL     1      -0.424  14.977  20.653  0.00  0.00    +0.000 A 
ATOM     22  C   UNL     1      -1.077  15.981  19.960  0.00  0.00    +0.000 A 
ATOM     23  N   UNL     1      -0.238  16.454  18.990  0.00  0.00    +0.000 N 
ATOM     24  C   UNL     1       0.969  15.797  19.047  0.00  0.00    +0.000 A 
ATOM     25  C   UNL     1       2.150  16.018  18.329  0.00  0.00    +0.000 A 
ATOM     26  C   UNL     1       3.232  15.173  18.592  0.00  0.00    +0.000 A 
ATOM     27  C   UNL     1       3.113  14.114  19.489  0.00  0.00    +0.000 A 
ATOM     28  C   UNL     1       1.924  13.909  20.197  0.00  0.00    +0.000 A 
ATOM     29  C   UNL     1       0.845  14.797  20.012  0.00  0.00    +0.000 A 
ATOM     30  H   UNL     1      -0.453  17.205  18.349  0.00  0.00    +0.000 HD
ENDBRANCH  20  21
ENDBRANCH  10  20
TORSDOF 7
ENDMDL
