MODEL 1
REMARK VINA RESULT:      -7.5      0.000      0.000
REMARK  Name = 
REMARK  3 active torsions:
REMARK  status: ('A' for Active; 'I' for Inactive)
REMARK    1  A    between atoms: C_1  and  C_2
REMARK    2  A    between atoms: C_15  and  C_16
REMARK    3  A    between atoms: C_27  and  C_28
REMARK                            x       y       z     vdW  Elec       q    Type
REMARK                         _______ _______ _______ _____ _____    ______ ____
ROOT
ATOM      1  C   UNL     1       4.473   1.748  20.056  0.00  0.00    +0.000 C 
ATOM      2  C   UNL     1       4.032   3.113  19.714  0.00  0.00    +0.000 A 
ATOM      3  O   UNL     1       4.831   3.813  18.875  0.00  0.00    +0.000 OA
ATOM      4  N   UNL     1       4.312   5.070  18.691  0.00  0.00    +0.000 NA
ATOM      5  C   UNL     1       3.185   5.138  19.408  0.00  0.00    +0.000 A 
ATOM      6  N   UNL     1       2.375   6.265  19.501  0.00  0.00    +0.000 N 
ATOM      7  C   UNL     1       2.561   7.409  18.758  0.00  0.00    +0.000 C 
ATOM      8  O   UNL     1       3.397   7.545  17.867  0.00  0.00    +0.000 OA
ATOM      9  N   UNL     1       1.665   8.448  19.047  0.00  0.00    +0.000 N 
ATOM     10  C   UNL     1       1.807   9.645  18.202  0.00  0.00    +0.000 C 
ATOM     11  C   UNL     1       0.550  10.532  18.199  0.00  0.00    +0.000 C 
ATOM     12  N   UNL     1       0.165  10.845  19.577  0.00  0.00    +0.000 N 
ATOM     13  C   UNL     1      -0.190  12.097  19.982  0.00  0.00    +0.000 A 
ATOM     14  N   UNL     1      -0.262  12.511  21.234  0.00  0.00    +0.000 NA
ATOM     15  C   UNL     1      -0.571  13.880  21.273  0.00  0.00    +0.000 A 
ATOM     16  N   UNL     1      -0.802  14.505  20.113  0.00  0.00    +0.000 NA
ATOM     17  S   UNL     1      -0.600  13.398  18.904  0.00  0.00    +0.000 S 
ATOM     18  C   UNL     1      -0.043   9.680  20.441  0.00  0.00    +0.000 C 
ATOM     19  C   UNL     1       1.193   8.749  20.414  0.00  0.00    +0.000 C 
ATOM     20  C   UNL     1       2.955   3.895  20.080  0.00  0.00    +0.000 A 
ATOM     21  C   UNL     1       1.867   3.481  20.993  0.00  0.00    +0.000 C 
ATOM     22  H   UNL     1       1.510   6.156  19.997  0.00  0.00    +0.000 HD
ENDROOT
BRANCH  15  23
ATOM     23  C   UNL     1      -0.657  14.618  22.542  0.00  0.00    +0.000 A 
ATOM     24  C   UNL     1      -1.433  14.141  23.612  0.00  0.00    +0.000 A 
ATOM     25  C   UNL     1      -1.536  14.880  24.797  0.00  0.00    +0.000 A 
ATOM     26  C   UNL     1      -0.865  16.092  24.919  0.00  0.00    +0.000 A 
ATOM     27  F   UNL     1      -0.986  16.807  26.045  0.00  0.00    +0.000 F 
ATOM     28  C   UNL     1      -0.076  16.573  23.888  0.00  0.00    +0.000 A 
ATOM     29  C   UNL     1       0.034  15.836  22.706  0.00  0.00    +0.000 A 
ENDBRANCH  15  23
TORSDOF 1
ENDMDL
MODEL 2
REMARK VINA RESULT:      -7.5      3.647      4.489
REMARK  Name = 
REMARK  3 active torsions:
REMARK  status: ('A' for Active; 'I' for Inactive)
REMARK    1  A    between atoms: C_1  and  C_2
REMARK    2  A    between atoms: C_15  and  C_16
REMARK    3  A    between atoms: C_27  and  C_28
REMARK                            x       y       z     vdW  Elec       q    Type
REMARK                         _______ _______ _______ _____ _____    ______ ____
ROOT
ATOM      1  C   UNL     1       5.656   3.856  15.821  0.00  0.00    +0.000 C 
ATOM      2  C   UNL     1       4.859   4.588  16.824  0.00  0.00    +0.000 A 
ATOM      3  O   UNL     1       4.362   3.857  17.849  0.00  0.00    +0.000 OA
ATOM      4  N   UNL     1       3.611   4.666  18.666  0.00  0.00    +0.000 NA
ATOM      5  C   UNL     1       3.660   5.899  18.148  0.00  0.00    +0.000 A 
ATOM      6  N   UNL     1       3.003   7.004  18.679  0.00  0.00    +0.000 N 
ATOM      7  C   UNL     1       2.330   6.996  19.880  0.00  0.00    +0.000 C 
ATOM      8  O   UNL     1       2.300   6.052  20.666  0.00  0.00    +0.000 OA
ATOM      9  N   UNL     1       1.689   8.200  20.202  0.00  0.00    +0.000 N 
ATOM     10  C   UNL     1       1.034   8.224  21.520  0.00  0.00    +0.000 C 
ATOM     11  C   UNL     1       0.782   9.649  22.040  0.00  0.00    +0.000 C 
ATOM     12  N   UNL     1       0.061  10.424  21.028  0.00  0.00    +0.000 N 
ATOM     13  C   UNL     1      -1.006  11.219  21.323  0.00  0.00    +0.000 A 
ATOM     14  N   UNL     1      -1.871  11.703  20.449  0.00  0.00    +0.000 NA
ATOM     15  C   UNL     1      -2.889  12.404  21.116  0.00  0.00    +0.000 A 
ATOM     16  N   UNL     1      -2.798  12.529  22.445  0.00  0.00    +0.000 NA
ATOM     17  S   UNL     1      -1.437  11.728  22.928  0.00  0.00    +0.000 S 
ATOM     18  C   UNL     1       0.706  10.475  19.714  0.00  0.00    +0.000 C 
ATOM     19  C   UNL     1       1.015   9.050  19.197  0.00  0.00    +0.000 C 
ATOM     20  C   UNL     1       4.462   5.902  16.962  0.00  0.00    +0.000 A 
ATOM     21  C   UNL     1       4.802   7.003  16.033  0.00  0.00    +0.000 C 
ATOM     22  H   UNL     1       3.195   7.890  18.249  0.00  0.00    +0.000 HD
ENDROOT
BRANCH  15  23
ATOM     23  C   UNL     1      -4.019  13.002  20.391  0.00  0.00    +0.000 A 
ATOM     24  C   UNL     1      -4.513  14.273  20.729  0.00  0.00    +0.000 A 
ATOM     25  C   UNL     1      -5.618  14.806  20.055  0.00  0.00    +0.000 A 
ATOM     26  C   UNL     1      -6.230  14.077  19.041  0.00  0.00    +0.000 A 
ATOM     27  F   UNL     1      -7.301  14.581  18.415  0.00  0.00    +0.000 F 
ATOM     28  C   UNL     1      -5.749  12.832  18.673  0.00  0.00    +0.000 A 
ATOM     29  C   UNL     1      -4.643  12.299  19.340  0.00  0.00    +0.000 A 
ENDBRANCH  15  23
TORSDOF 1
ENDMDL
MODEL 3
REMARK VINA RESULT:      -7.4      4.752     10.437
REMARK  Name = 
REMARK  3 active torsions:
REMARK  status: ('A' for Active; 'I' for Inactive)
REMARK    1  A    between atoms: C_1  and  C_2
REMARK    2  A    between atoms: C_15  and  C_16
REMARK    3  A    between atoms: C_27  and  C_28
REMARK                            x       y       z     vdW  Elec       q    Type
REMARK                         _______ _______ _______ _____ _____    ______ ____
ROOT
ATOM      1  C   UNL     1      -6.173  15.444  24.079  0.00  0.00    +0.000 C 
ATOM      2  C   UNL     1      -5.279  14.736  23.143  0.00  0.00    +0.000 A 
ATOM      3  O   UNL     1      -5.731  14.583  21.877  0.00  0.00    +0.000 OA
ATOM      4  N   UNL     1      -4.812  13.871  21.146  0.00  0.00    +0.000 NA
ATOM      5  C   UNL     1      -3.787  13.600  21.962  0.00  0.00    +0.000 A 
ATOM      6  N   UNL     1      -2.659  12.872  21.598  0.00  0.00    +0.000 N 
ATOM      7  C   UNL     1      -2.396  12.454  20.313  0.00  0.00    +0.000 C 
ATOM      8  O   UNL     1      -3.065  12.744  19.324  0.00  0.00    +0.000 OA
ATOM      9  N   UNL     1      -1.233  11.683  20.173  0.00  0.00    +0.000 N 
ATOM     10  C   UNL     1      -0.902  11.300  18.792  0.00  0.00    +0.000 C 
ATOM     11  C   UNL     1       0.574  10.903  18.614  0.00  0.00    +0.000 C 
ATOM     12  N   UNL     1       0.929   9.876  19.595  0.00  0.00    +0.000 N 
ATOM     13  C   UNL     1       1.646   8.761  19.276  0.00  0.00    +0.000 A 
ATOM     14  N   UNL     1       1.750   7.673  20.018  0.00  0.00    +0.000 NA
ATOM     15  C   UNL     1       2.491   6.694  19.336  0.00  0.00    +0.000 A 
ATOM     16  N   UNL     1       3.008   7.014  18.145  0.00  0.00    +0.000 NA
ATOM     17  S   UNL     1       2.548   8.562  17.803  0.00  0.00    +0.000 S 
ATOM     18  C   UNL     1       0.669  10.237  20.991  0.00  0.00    +0.000 C 
ATOM     19  C   UNL     1      -0.798  10.689  21.177  0.00  0.00    +0.000 C 
ATOM     20  C   UNL     1      -4.036  14.147  23.262  0.00  0.00    +0.000 A 
ATOM     21  C   UNL     1      -3.223  14.102  24.497  0.00  0.00    +0.000 C 
ATOM     22  H   UNL     1      -1.922  12.818  22.275  0.00  0.00    +0.000 HD
ENDROOT
BRANCH  15  23
ATOM     23  C   UNL     1       2.715   5.357  19.906  0.00  0.00    +0.000 A 
ATOM     24  C   UNL     1       1.921   4.870  20.958  0.00  0.00    +0.000 A 
ATOM     25  C   UNL     1       2.178   3.612  21.516  0.00  0.00    +0.000 A 
ATOM     26  C   UNL     1       3.223   2.836  21.025  0.00  0.00    +0.000 A 
ATOM     27  F   UNL     1       3.480   1.643  21.577  0.00  0.00    +0.000 F 
ATOM     28  C   UNL     1       4.006   3.283  19.975  0.00  0.00    +0.000 A 
ATOM     29  C   UNL     1       3.749   4.536  19.412  0.00  0.00    +0.000 A 
ENDBRANCH  15  23
TORSDOF 1
ENDMDL
MODEL 4
REMARK VINA RESULT:      -7.4      0.897      1.316
REMARK  Name = 
REMARK  3 active torsions:
REMARK  status: ('A' for Active; 'I' for Inactive)
REMARK    1  A    between atoms: C_1  and  C_2
REMARK    2  A    between atoms: C_15  and  C_16
REMARK    3  A    between atoms: C_27  and  C_28
REMARK                            x       y       z     vdW  Elec       q    Type
REMARK                         _______ _______ _______ _____ _____    ______ ____
ROOT
ATOM      1  C   UNL     1       4.445   2.546  19.827  0.00  0.00    +0.000 C 
ATOM      2  C   UNL     1       3.911   3.901  19.596  0.00  0.00    +0.000 A 
ATOM      3  O   UNL     1       4.598   4.679  18.727  0.00  0.00    +0.000 OA
ATOM      4  N   UNL     1       4.005   5.916  18.654  0.00  0.00    +0.000 NA
ATOM      5  C   UNL     1       2.944   5.892  19.468  0.00  0.00    +0.000 A 
ATOM      6  N   UNL     1       2.093   6.969  19.688  0.00  0.00    +0.000 N 
ATOM      7  C   UNL     1       2.158   8.155  18.992  0.00  0.00    +0.000 C 
ATOM      8  O   UNL     1       2.904   8.376  18.041  0.00  0.00    +0.000 OA
ATOM      9  N   UNL     1       1.243   9.132  19.410  0.00  0.00    +0.000 N 
ATOM     10  C   UNL     1       1.252  10.373  18.618  0.00  0.00    +0.000 C 
ATOM     11  C   UNL     1      -0.040  11.192  18.770  0.00  0.00    +0.000 C 
ATOM     12  N   UNL     1      -0.316  11.420  20.190  0.00  0.00    +0.000 N 
ATOM     13  C   UNL     1      -0.693  12.632  20.688  0.00  0.00    +0.000 A 
ATOM     14  N   UNL     1      -0.672  12.982  21.961  0.00  0.00    +0.000 NA
ATOM     15  C   UNL     1      -1.041  14.330  22.097  0.00  0.00    +0.000 A 
ATOM     16  N   UNL     1      -1.404  14.996  20.995  0.00  0.00    +0.000 NA
ATOM     17  S   UNL     1      -1.258  13.959  19.718  0.00  0.00    +0.000 S 
ATOM     18  C   UNL     1      -0.390  10.207  21.008  0.00  0.00    +0.000 C 
ATOM     19  C   UNL     1       0.881   9.344  20.827  0.00  0.00    +0.000 C 
ATOM     20  C   UNL     1       2.834   4.608  20.093  0.00  0.00    +0.000 A 
ATOM     21  C   UNL     1       1.852   4.096  21.075  0.00  0.00    +0.000 C 
ATOM     22  H   UNL     1       1.282   6.793  20.251  0.00  0.00    +0.000 HD
ENDROOT
BRANCH  15  23
ATOM     23  C   UNL     1      -1.050  15.002  23.404  0.00  0.00    +0.000 A 
ATOM     24  C   UNL     1      -0.147  16.038  23.698  0.00  0.00    +0.000 A 
ATOM     25  C   UNL     1      -0.142  16.636  24.964  0.00  0.00    +0.000 A 
ATOM     26  C   UNL     1      -1.039  16.207  25.937  0.00  0.00    +0.000 A 
ATOM     27  F   UNL     1      -1.015  16.766  27.154  0.00  0.00    +0.000 F 
ATOM     28  C   UNL     1      -1.954  15.204  25.666  0.00  0.00    +0.000 A 
ATOM     29  C   UNL     1      -1.965  14.608  24.402  0.00  0.00    +0.000 A 
ENDBRANCH  15  23
TORSDOF 1
ENDMDL
MODEL 5
REMARK VINA RESULT:      -7.3      3.987      4.956
REMARK  Name = 
REMARK  3 active torsions:
REMARK  status: ('A' for Active; 'I' for Inactive)
REMARK    1  A    between atoms: C_1  and  C_2
REMARK    2  A    between atoms: C_15  and  C_16
REMARK    3  A    between atoms: C_27  and  C_28
REMARK                            x       y       z     vdW  Elec       q    Type
REMARK                         _______ _______ _______ _____ _____    ______ ____
ROOT
ATOM      1  C   UNL     1       6.272   3.475  15.192  0.00  0.00    +0.000 C 
ATOM      2  C   UNL     1       5.459   4.244  16.152  0.00  0.00    +0.000 A 
ATOM      3  O   UNL     1       5.065   3.590  17.270  0.00  0.00    +0.000 OA
ATOM      4  N   UNL     1       4.285   4.420  18.036  0.00  0.00    +0.000 NA
ATOM      5  C   UNL     1       4.210   5.591  17.393  0.00  0.00    +0.000 A 
ATOM      6  N   UNL     1       3.487   6.692  17.839  0.00  0.00    +0.000 N 
ATOM      7  C   UNL     1       2.866   6.758  19.067  0.00  0.00    +0.000 C 
ATOM      8  O   UNL     1       2.946   5.903  19.946  0.00  0.00    +0.000 OA
ATOM      9  N   UNL     1       2.142   7.936  19.295  0.00  0.00    +0.000 N 
ATOM     10  C   UNL     1       1.541   8.048  20.634  0.00  0.00    +0.000 C 
ATOM     11  C   UNL     1       1.194   9.496  21.018  0.00  0.00    +0.000 C 
ATOM     12  N   UNL     1       0.371  10.101  19.968  0.00  0.00    +0.000 N 
ATOM     13  C   UNL     1      -0.746  10.837  20.232  0.00  0.00    +0.000 A 
ATOM     14  N   UNL     1      -1.682  11.158  19.358  0.00  0.00    +0.000 NA
ATOM     15  C   UNL     1      -2.727  11.844  19.998  0.00  0.00    +0.000 A 
ATOM     16  N   UNL     1      -2.593  12.116  21.301  0.00  0.00    +0.000 NA
ATOM     17  S   UNL     1      -1.152  11.479  21.796  0.00  0.00    +0.000 S 
ATOM     18  C   UNL     1       0.956  10.063  18.626  0.00  0.00    +0.000 C 
ATOM     19  C   UNL     1       1.360   8.620  18.243  0.00  0.00    +0.000 C 
ATOM     20  C   UNL     1       4.961   5.532  16.175  0.00  0.00    +0.000 A 
ATOM     21  C   UNL     1       5.171   6.551  15.123  0.00  0.00    +0.000 C 
ATOM     22  H   UNL     1       3.588   7.539  17.313  0.00  0.00    +0.000 HD
ENDROOT
BRANCH  15  23
ATOM     23  C   UNL     1      -3.931  12.272  19.272  0.00  0.00    +0.000 A 
ATOM     24  C   UNL     1      -4.880  13.119  19.868  0.00  0.00    +0.000 A 
ATOM     25  C   UNL     1      -6.042  13.481  19.175  0.00  0.00    +0.000 A 
ATOM     26  C   UNL     1      -6.257  13.004  17.887  0.00  0.00    +0.000 A 
ATOM     27  F   UNL     1      -7.381  13.333  17.237  0.00  0.00    +0.000 F 
ATOM     28  C   UNL     1      -5.327  12.186  17.268  0.00  0.00    +0.000 A 
ATOM     29  C   UNL     1      -4.164  11.827  17.955  0.00  0.00    +0.000 A 
ENDBRANCH  15  23
TORSDOF 1
ENDMDL
MODEL 6
REMARK VINA RESULT:      -7.2      5.022     10.591
REMARK  Name = 
REMARK  3 active torsions:
REMARK  status: ('A' for Active; 'I' for Inactive)
REMARK    1  A    between atoms: C_1  and  C_2
REMARK    2  A    between atoms: C_15  and  C_16
REMARK    3  A    between atoms: C_27  and  C_28
REMARK                            x       y       z     vdW  Elec       q    Type
REMARK                         _______ _______ _______ _____ _____    ______ ____
ROOT
ATOM      1  C   UNL     1      -5.968  13.975  23.203  0.00  0.00    +0.000 C 
ATOM      2  C   UNL     1      -4.914  13.448  22.316  0.00  0.00    +0.000 A 
ATOM      3  O   UNL     1      -5.078  13.665  20.990  0.00  0.00    +0.000 OA
ATOM      4  N   UNL     1      -4.044  13.080  20.300  0.00  0.00    +0.000 NA
ATOM      5  C   UNL     1      -3.237  12.516  21.205  0.00  0.00    +0.000 A 
ATOM      6  N   UNL     1      -2.084  11.802  20.899  0.00  0.00    +0.000 N 
ATOM      7  C   UNL     1      -1.556  11.701  19.632  0.00  0.00    +0.000 C 
ATOM      8  O   UNL     1      -1.978  12.294  18.641  0.00  0.00    +0.000 OA
ATOM      9  N   UNL     1      -0.419  10.886  19.532  0.00  0.00    +0.000 N 
ATOM     10  C   UNL     1       0.197  10.837  18.197  0.00  0.00    +0.000 C 
ATOM     11  C   UNL     1       1.660  10.363  18.227  0.00  0.00    +0.000 C 
ATOM     12  N   UNL     1       1.751   9.091  18.947  0.00  0.00    +0.000 N 
ATOM     13  C   UNL     1       2.480   8.032  18.494  0.00  0.00    +0.000 A 
ATOM     14  N   UNL     1       2.377   6.786  18.922  0.00  0.00    +0.000 NA
ATOM     15  C   UNL     1       3.216   5.948  18.170  0.00  0.00    +0.000 A 
ATOM     16  N   UNL     1       3.997   6.510  17.241  0.00  0.00    +0.000 NA
ATOM     17  S   UNL     1       3.680   8.131  17.240  0.00  0.00    +0.000 S 
ATOM     18  C   UNL     1       1.200   9.109  20.304  0.00  0.00    +0.000 C 
ATOM     19  C   UNL     1      -0.255   9.634  20.300  0.00  0.00    +0.000 C 
ATOM     20  C   UNL     1      -3.751  12.735  22.525  0.00  0.00    +0.000 A 
ATOM     21  C   UNL     1      -3.236  12.301  23.842  0.00  0.00    +0.000 C 
ATOM     22  H   UNL     1      -1.518  11.508  21.674  0.00  0.00    +0.000 HD
ENDROOT
BRANCH  15  23
ATOM     23  C   UNL     1       3.260   4.495  18.394  0.00  0.00    +0.000 A 
ATOM     24  C   UNL     1       4.045   3.938  19.416  0.00  0.00    +0.000 A 
ATOM     25  C   UNL     1       4.106   2.549  19.586  0.00  0.00    +0.000 A 
ATOM     26  C   UNL     1       3.383   1.715  18.741  0.00  0.00    +0.000 A 
ATOM     27  F   UNL     1       3.463   0.386  18.891  0.00  0.00    +0.000 F 
ATOM     28  C   UNL     1       2.584   2.240  17.739  0.00  0.00    +0.000 A 
ATOM     29  C   UNL     1       2.516   3.625  17.571  0.00  0.00    +0.000 A 
ENDBRANCH  15  23
TORSDOF 1
ENDMDL
MODEL 7
REMARK VINA RESULT:      -7.0      5.578     11.092
REMARK  Name = 
REMARK  3 active torsions:
REMARK  status: ('A' for Active; 'I' for Inactive)
REMARK    1  A    between atoms: C_1  and  C_2
REMARK    2  A    between atoms: C_15  and  C_16
REMARK    3  A    between atoms: C_27  and  C_28
REMARK                            x       y       z     vdW  Elec       q    Type
REMARK                         _______ _______ _______ _____ _____    ______ ____
ROOT
ATOM      1  C   UNL     1      -2.041  14.915  21.732  0.00  0.00    +0.000 C 
ATOM      2  C   UNL     1      -1.343  13.617  21.672  0.00  0.00    +0.000 A 
ATOM      3  O   UNL     1      -0.588  13.289  22.746  0.00  0.00    +0.000 OA
ATOM      4  N   UNL     1       0.028  12.082  22.521  0.00  0.00    +0.000 NA
ATOM      5  C   UNL     1      -0.362  11.663  21.312  0.00  0.00    +0.000 A 
ATOM      6  N   UNL     1       0.065  10.484  20.710  0.00  0.00    +0.000 N 
ATOM      7  C   UNL     1       0.838   9.535  21.341  0.00  0.00    +0.000 C 
ATOM      8  O   UNL     1       1.168   9.564  22.524  0.00  0.00    +0.000 OA
ATOM      9  N   UNL     1       1.205   8.448  20.535  0.00  0.00    +0.000 N 
ATOM     10  C   UNL     1       1.964   7.391  21.223  0.00  0.00    +0.000 C 
ATOM     11  C   UNL     1       1.923   6.043  20.484  0.00  0.00    +0.000 C 
ATOM     12  N   UNL     1       2.336   6.231  19.092  0.00  0.00    +0.000 N 
ATOM     13  C   UNL     1       3.210   5.398  18.458  0.00  0.00    +0.000 A 
ATOM     14  N   UNL     1       3.844   5.661  17.329  0.00  0.00    +0.000 NA
ATOM     15  C   UNL     1       4.729   4.616  17.019  0.00  0.00    +0.000 A 
ATOM     16  N   UNL     1       4.745   3.547  17.822  0.00  0.00    +0.000 NA
ATOM     17  S   UNL     1       3.666   3.825  19.041  0.00  0.00    +0.000 S 
ATOM     18  C   UNL     1       1.569   7.235  18.350  0.00  0.00    +0.000 C 
ATOM     19  C   UNL     1       1.556   8.585  19.106  0.00  0.00    +0.000 C 
ATOM     20  C   UNL     1      -1.257  12.615  20.726  0.00  0.00    +0.000 A 
ATOM     21  C   UNL     1      -1.938  12.615  19.413  0.00  0.00    +0.000 C 
ATOM     22  H   UNL     1      -0.373  10.239  19.842  0.00  0.00    +0.000 HD
ENDROOT
BRANCH  15  23
ATOM     23  C   UNL     1       5.608   4.671  15.842  0.00  0.00    +0.000 A 
ATOM     24  C   UNL     1       6.785   5.438  15.846  0.00  0.00    +0.000 A 
ATOM     25  C   UNL     1       7.587   5.512  14.700  0.00  0.00    +0.000 A 
ATOM     26  C   UNL     1       7.220   4.819  13.551  0.00  0.00    +0.000 A 
ATOM     27  F   UNL     1       7.977   4.911  12.450  0.00  0.00    +0.000 F 
ATOM     28  C   UNL     1       6.077   4.038  13.528  0.00  0.00    +0.000 A 
ATOM     29  C   UNL     1       5.278   3.958  14.672  0.00  0.00    +0.000 A 
ENDBRANCH  15  23
TORSDOF 1
ENDMDL
MODEL 8
REMARK VINA RESULT:      -6.9      3.879      4.631
REMARK  Name = 
REMARK  3 active torsions:
REMARK  status: ('A' for Active; 'I' for Inactive)
REMARK    1  A    between atoms: C_1  and  C_2
REMARK    2  A    between atoms: C_15  and  C_16
REMARK    3  A    between atoms: C_27  and  C_28
REMARK                            x       y       z     vdW  Elec       q    Type
REMARK                         _______ _______ _______ _____ _____    ______ ____
ROOT
ATOM      1  C   UNL     1       4.997   4.226  16.808  0.00  0.00    +0.000 C 
ATOM      2  C   UNL     1       4.160   5.020  17.728  0.00  0.00    +0.000 A 
ATOM      3  O   UNL     1       3.594   4.350  18.758  0.00  0.00    +0.000 OA
ATOM      4  N   UNL     1       2.816   5.211  19.491  0.00  0.00    +0.000 NA
ATOM      5  C   UNL     1       2.916   6.416  18.918  0.00  0.00    +0.000 A 
ATOM      6  N   UNL     1       2.253   7.557  19.356  0.00  0.00    +0.000 N 
ATOM      7  C   UNL     1       1.515   7.619  20.517  0.00  0.00    +0.000 C 
ATOM      8  O   UNL     1       1.424   6.717  21.346  0.00  0.00    +0.000 OA
ATOM      9  N   UNL     1       0.882   8.849  20.744  0.00  0.00    +0.000 N 
ATOM     10  C   UNL     1       0.156   8.950  22.020  0.00  0.00    +0.000 C 
ATOM     11  C   UNL     1      -0.096  10.403  22.456  0.00  0.00    +0.000 C 
ATOM     12  N   UNL     1      -0.745  11.138  21.368  0.00  0.00    +0.000 N 
ATOM     13  C   UNL     1      -1.812  11.964  21.564  0.00  0.00    +0.000 A 
ATOM     14  N   UNL     1      -2.618  12.419  20.622  0.00  0.00    +0.000 NA
ATOM     15  C   UNL     1      -3.657  13.169  21.196  0.00  0.00    +0.000 A 
ATOM     16  N   UNL     1      -3.637  13.359  22.520  0.00  0.00    +0.000 NA
ATOM     17  S   UNL     1      -2.320  12.561  23.116  0.00  0.00    +0.000 S 
ATOM     18  C   UNL     1      -0.029  11.113  20.091  0.00  0.00    +0.000 C 
ATOM     19  C   UNL     1       0.280   9.658  19.663  0.00  0.00    +0.000 C 
ATOM     20  C   UNL     1       3.783   6.347  17.779  0.00  0.00    +0.000 A 
ATOM     21  C   UNL     1       4.194   7.393  16.818  0.00  0.00    +0.000 C 
ATOM     22  H   UNL     1       2.486   8.417  18.895  0.00  0.00    +0.000 HD
ENDROOT
BRANCH  15  23
ATOM     23  C   UNL     1      -4.734  13.749  20.381  0.00  0.00    +0.000 A 
ATOM     24  C   UNL     1      -5.425  12.979  19.430  0.00  0.00    +0.000 A 
ATOM     25  C   UNL     1      -6.419  13.561  18.634  0.00  0.00    +0.000 A 
ATOM     26  C   UNL     1      -6.728  14.908  18.785  0.00  0.00    +0.000 A 
ATOM     27  F   UNL     1      -7.663  15.467  18.005  0.00  0.00    +0.000 F 
ATOM     28  C   UNL     1      -6.078  15.684  19.730  0.00  0.00    +0.000 A 
ATOM     29  C   UNL     1      -5.089  15.105  20.531  0.00  0.00    +0.000 A 
ENDBRANCH  15  23
TORSDOF 1
ENDMDL
MODEL 9
REMARK VINA RESULT:      -6.8      4.945     10.775
REMARK  Name = 
REMARK  3 active torsions:
REMARK  status: ('A' for Active; 'I' for Inactive)
REMARK    1  A    between atoms: C_1  and  C_2
REMARK    2  A    between atoms: C_15  and  C_16
REMARK    3  A    between atoms: C_27  and  C_28
REMARK                            x       y       z     vdW  Elec       q    Type
REMARK                         _______ _______ _______ _____ _____    ______ ____
ROOT
ATOM      1  C   UNL     1      -0.794  18.033  21.076  0.00  0.00    +0.000 C 
ATOM      2  C   UNL     1      -0.612  16.584  21.280  0.00  0.00    +0.000 A 
ATOM      3  O   UNL     1      -0.516  16.162  22.562  0.00  0.00    +0.000 OA
ATOM      4  N   UNL     1      -0.306  14.805  22.583  0.00  0.00    +0.000 NA
ATOM      5  C   UNL     1      -0.286  14.391  21.312  0.00  0.00    +0.000 A 
ATOM      6  N   UNL     1      -0.074  13.076  20.912  0.00  0.00    +0.000 N 
ATOM      7  C   UNL     1       0.009  12.012  21.783  0.00  0.00    +0.000 C 
ATOM      8  O   UNL     1      -0.182  12.075  22.995  0.00  0.00    +0.000 OA
ATOM      9  N   UNL     1       0.283  10.779  21.177  0.00  0.00    +0.000 N 
ATOM     10  C   UNL     1       0.294   9.625  22.090  0.00  0.00    +0.000 C 
ATOM     11  C   UNL     1       0.108   8.281  21.365  0.00  0.00    +0.000 C 
ATOM     12  N   UNL     1       1.088   8.165  20.283  0.00  0.00    +0.000 N 
ATOM     13  C   UNL     1       1.810   7.031  20.053  0.00  0.00    +0.000 A 
ATOM     14  N   UNL     1       2.895   6.947  19.306  0.00  0.00    +0.000 NA
ATOM     15  C   UNL     1       3.424   5.647  19.368  0.00  0.00    +0.000 A 
ATOM     16  N   UNL     1       2.752   4.729  20.072  0.00  0.00    +0.000 NA
ATOM     17  S   UNL     1       1.433   5.475  20.729  0.00  0.00    +0.000 S 
ATOM     18  C   UNL     1       1.075   9.266  19.316  0.00  0.00    +0.000 C 
ATOM     19  C   UNL     1       1.208  10.630  20.033  0.00  0.00    +0.000 C 
ATOM     20  C   UNL     1      -0.489  15.502  20.430  0.00  0.00    +0.000 A 
ATOM     21  C   UNL     1      -0.534  15.563  18.953  0.00  0.00    +0.000 C 
ATOM     22  H   UNL     1      -0.175  12.882  19.934  0.00  0.00    +0.000 HD
ENDROOT
BRANCH  15  23
ATOM     23  C   UNL     1       4.668   5.284  18.674  0.00  0.00    +0.000 A 
ATOM     24  C   UNL     1       5.923   5.506  19.263  0.00  0.00    +0.000 A 
ATOM     25  C   UNL     1       7.098   5.193  18.568  0.00  0.00    +0.000 A 
ATOM     26  C   UNL     1       7.024   4.654  17.288  0.00  0.00    +0.000 A 
ATOM     27  F   UNL     1       8.150   4.378  16.618  0.00  0.00    +0.000 F 
ATOM     28  C   UNL     1       5.798   4.404  16.694  0.00  0.00    +0.000 A 
ATOM     29  C   UNL     1       4.624   4.711  17.386  0.00  0.00    +0.000 A 
ENDBRANCH  15  23
TORSDOF 1
ENDMDL
