MODEL 1
REMARK VINA RESULT:      -7.3      0.000      0.000
REMARK  Name = 
REMARK  7 active torsions:
REMARK  status: ('A' for Active; 'I' for Inactive)
REMARK    1  A    between atoms: C_2  and  C_17
REMARK    2  A    between atoms: N_3  and  C_4
REMARK    3  A    between atoms: C_4  and  C_5
REMARK    4  A    between atoms: C_5  and  C_6
REMARK    5  A    between atoms: C_5  and  N_11
REMARK    6  A    between atoms: N_19  and  C_20
REMARK    7  A    between atoms: C_27  and  C_28
REMARK                            x       y       z     vdW  Elec       q    Type
REMARK                         _______ _______ _______ _____ _____    ______ ____
ROOT
ATOM      1  C   UNL     1       0.412   9.913  21.422  0.00  0.00    +0.000 A 
ATOM      2  C   UNL     1       0.805   8.592  21.368  0.00  0.00    +0.000 A 
ATOM      3  N   UNL     1       1.463   8.408  20.181  0.00  0.00    +0.000 N 
ATOM      4  N   UNL     1       1.550   9.563  19.480  0.00  0.00    +0.000 NA
ATOM      5  C   UNL     1       0.900  10.489  20.210  0.00  0.00    +0.000 A 
ENDROOT
BRANCH   5   6
ATOM      6  C   UNL     1       0.780  11.877  19.724  0.00  0.00    +0.000 A 
ATOM      7  C   UNL     1      -0.264  12.235  18.856  0.00  0.00    +0.000 A 
ATOM      8  C   UNL     1      -0.423  13.561  18.430  0.00  0.00    +0.000 A 
ATOM      9  C   UNL     1       0.456  14.544  18.876  0.00  0.00    +0.000 A 
ATOM     10 CL   UNL     1       0.247  16.178  18.380  0.00  0.00    +0.000 Cl
ATOM     11  C   UNL     1       1.509  14.210  19.717  0.00  0.00    +0.000 A 
ATOM     12  C   UNL     1       1.683  12.879  20.114  0.00  0.00    +0.000 A 
ENDBRANCH   5   6
BRANCH   3  13
ATOM     13  C   UNL     1       2.007   7.187  19.696  0.00  0.00    +0.000 A 
ATOM     14  C   UNL     1       2.658   7.132  18.455  0.00  0.00    +0.000 A 
ATOM     15  C   UNL     1       3.188   5.928  17.989  0.00  0.00    +0.000 A 
ATOM     16  C   UNL     1       3.069   4.771  18.757  0.00  0.00    +0.000 A 
ATOM     17  C   UNL     1       2.424   4.815  19.993  0.00  0.00    +0.000 A 
ATOM     18  C   UNL     1       1.895   6.019  20.466  0.00  0.00    +0.000 A 
ENDBRANCH   3  13
BRANCH   1  20
ATOM     19  O   UNL     1      -0.191  10.245  23.669  0.00  0.00    +0.000 OA
ATOM     20  C   UNL     1      -0.361  10.512  22.489  0.00  0.00    +0.000 C 
ATOM     21  N   UNL     1      -1.337  11.382  22.063  0.00  0.00    +0.000 N 
ATOM     22  H   UNL     1      -1.505  11.505  21.073  0.00  0.00    +0.000 HD
BRANCH  21  23
ATOM     23  C   UNL     1      -2.318  11.895  23.000  0.00  0.00    +0.000 C 
BRANCH  23  24
ATOM     24  C   UNL     1      -3.044  13.206  22.536  0.00  0.00    +0.000 C 
BRANCH  24  25
ATOM     25  N   UNL     1      -2.733  14.358  23.438  0.00  0.00    +0.000 NA
ATOM     26  C   UNL     1      -3.001  15.674  22.796  0.00  0.00    +0.000 C 
ATOM     27  C   UNL     1      -2.024  16.022  21.657  0.00  0.00    +0.000 C 
ATOM     28  O   UNL     1      -0.680  16.079  22.153  0.00  0.00    +0.000 OA
ATOM     29  C   UNL     1      -0.307  14.833  22.750  0.00  0.00    +0.000 C 
ATOM     30  C   UNL     1      -1.300  14.408  23.853  0.00  0.00    +0.000 C 
ENDBRANCH  24  25
BRANCH  24  31
ATOM     31  C   UNL     1      -4.553  12.920  22.443  0.00  0.00    +0.000 A 
ATOM     32  C   UNL     1      -5.332  12.611  21.337  0.00  0.00    +0.000 A 
ATOM     33  C   UNL     1      -6.710  12.439  21.658  0.00  0.00    +0.000 A 
ATOM     34  C   UNL     1      -6.948  12.590  23.004  0.00  0.00    +0.000 A 
ATOM     35  S   UNL     1      -5.543  13.064  23.850  0.00  0.00    +0.000 S 
ENDBRANCH  24  31
ENDBRANCH  23  24
ENDBRANCH  21  23
ENDBRANCH   1  20
TORSDOF 7
ENDMDL
MODEL 2
REMARK VINA RESULT:      -7.1      0.696      1.464
REMARK  Name = 
REMARK  7 active torsions:
REMARK  status: ('A' for Active; 'I' for Inactive)
REMARK    1  A    between atoms: C_2  and  C_17
REMARK    2  A    between atoms: N_3  and  C_4
REMARK    3  A    between atoms: C_4  and  C_5
REMARK    4  A    between atoms: C_5  and  C_6
REMARK    5  A    between atoms: C_5  and  N_11
REMARK    6  A    between atoms: N_19  and  C_20
REMARK    7  A    between atoms: C_27  and  C_28
REMARK                            x       y       z     vdW  Elec       q    Type
REMARK                         _______ _______ _______ _____ _____    ______ ____
ROOT
ATOM      1  C   UNL     1       0.451   9.804  21.536  0.00  0.00    +0.000 A 
ATOM      2  C   UNL     1       0.910   8.508  21.429  0.00  0.00    +0.000 A 
ATOM      3  N   UNL     1       1.478   8.376  20.190  0.00  0.00    +0.000 N 
ATOM      4  N   UNL     1       1.444   9.542  19.503  0.00  0.00    +0.000 NA
ATOM      5  C   UNL     1       0.806  10.422  20.298  0.00  0.00    +0.000 A 
ENDROOT
BRANCH   5   6
ATOM      6  C   UNL     1       0.570  11.806  19.848  0.00  0.00    +0.000 A 
ATOM      7  C   UNL     1       1.412  12.843  20.280  0.00  0.00    +0.000 A 
ATOM      8  C   UNL     1       1.234  14.155  19.817  0.00  0.00    +0.000 A 
ATOM      9  C   UNL     1       0.216  14.440  18.911  0.00  0.00    +0.000 A 
ATOM     10 CL   UNL     1       0.013  16.042  18.318  0.00  0.00    +0.000 Cl
ATOM     11  C   UNL     1      -0.643  13.435  18.487  0.00  0.00    +0.000 A 
ATOM     12  C   UNL     1      -0.481  12.134  18.976  0.00  0.00    +0.000 A 
ENDBRANCH   5   6
BRANCH   3  13
ATOM     13  C   UNL     1       2.048   7.194  19.642  0.00  0.00    +0.000 A 
ATOM     14  C   UNL     1       1.963   5.971  20.322  0.00  0.00    +0.000 A 
ATOM     15  C   UNL     1       2.527   4.817  19.774  0.00  0.00    +0.000 A 
ATOM     16  C   UNL     1       3.182   4.880  18.545  0.00  0.00    +0.000 A 
ATOM     17  C   UNL     1       3.272   6.091  17.860  0.00  0.00    +0.000 A 
ATOM     18  C   UNL     1       2.706   7.248  18.402  0.00  0.00    +0.000 A 
ENDBRANCH   3  13
BRANCH   1  20
ATOM     19  O   UNL     1      -0.028  10.022  23.827  0.00  0.00    +0.000 OA
ATOM     20  C   UNL     1      -0.264  10.346  22.672  0.00  0.00    +0.000 C 
ATOM     21  N   UNL     1      -1.266  11.229  22.343  0.00  0.00    +0.000 N 
ATOM     22  H   UNL     1      -1.488  11.400  21.372  0.00  0.00    +0.000 HD
BRANCH  21  23
ATOM     23  C   UNL     1      -2.194  11.690  23.357  0.00  0.00    +0.000 C 
BRANCH  23  24
ATOM     24  C   UNL     1      -2.863  13.076  23.052  0.00  0.00    +0.000 C 
BRANCH  24  25
ATOM     25  N   UNL     1      -2.351  14.148  23.961  0.00  0.00    +0.000 NA
ATOM     26  C   UNL     1      -3.168  15.391  23.894  0.00  0.00    +0.000 C 
ATOM     27  C   UNL     1      -3.032  16.154  22.564  0.00  0.00    +0.000 C 
ATOM     28  O   UNL     1      -1.672  16.552  22.353  0.00  0.00    +0.000 OA
ATOM     29  C   UNL     1      -0.805  15.412  22.350  0.00  0.00    +0.000 C 
ATOM     30  C   UNL     1      -0.959  14.576  23.638  0.00  0.00    +0.000 C 
ENDBRANCH  24  25
BRANCH  24  31
ATOM     31  C   UNL     1      -4.390  12.909  23.137  0.00  0.00    +0.000 A 
ATOM     32  C   UNL     1      -5.194  12.640  24.235  0.00  0.00    +0.000 A 
ATOM     33  C   UNL     1      -6.576  12.532  23.900  0.00  0.00    +0.000 A 
ATOM     34  C   UNL     1      -6.799  12.750  22.561  0.00  0.00    +0.000 A 
ATOM     35  S   UNL     1      -5.341  12.953  21.696  0.00  0.00    +0.000 S 
ENDBRANCH  24  31
ENDBRANCH  23  24
ENDBRANCH  21  23
ENDBRANCH   1  20
TORSDOF 7
ENDMDL
MODEL 3
REMARK VINA RESULT:      -7.1      1.438      2.773
REMARK  Name = 
REMARK  7 active torsions:
REMARK  status: ('A' for Active; 'I' for Inactive)
REMARK    1  A    between atoms: C_2  and  C_17
REMARK    2  A    between atoms: N_3  and  C_4
REMARK    3  A    between atoms: C_4  and  C_5
REMARK    4  A    between atoms: C_5  and  C_6
REMARK    5  A    between atoms: C_5  and  N_11
REMARK    6  A    between atoms: N_19  and  C_20
REMARK    7  A    between atoms: C_27  and  C_28
REMARK                            x       y       z     vdW  Elec       q    Type
REMARK                         _______ _______ _______ _____ _____    ______ ____
ROOT
ATOM      1  C   UNL     1       0.439   9.830  21.471  0.00  0.00    +0.000 A 
ATOM      2  C   UNL     1       0.900   8.532  21.399  0.00  0.00    +0.000 A 
ATOM      3  N   UNL     1       1.501   8.377  20.179  0.00  0.00    +0.000 N 
ATOM      4  N   UNL     1       1.487   9.531  19.471  0.00  0.00    +0.000 NA
ATOM      5  C   UNL     1       0.829  10.425  20.233  0.00  0.00    +0.000 A 
ENDROOT
BRANCH   5   6
ATOM      6  C   UNL     1       0.607  11.801  19.751  0.00  0.00    +0.000 A 
ATOM      7  C   UNL     1      -0.307  12.049  18.714  0.00  0.00    +0.000 A 
ATOM      8  C   UNL     1      -0.568  13.358  18.283  0.00  0.00    +0.000 A 
ATOM      9  C   UNL     1       0.076  14.432  18.892  0.00  0.00    +0.000 A 
ATOM     10 CL   UNL     1      -0.265  16.040  18.387  0.00  0.00    +0.000 Cl
ATOM     11  C   UNL     1       0.999  14.209  19.904  0.00  0.00    +0.000 A 
ATOM     12  C   UNL     1       1.281  12.900  20.309  0.00  0.00    +0.000 A 
ENDBRANCH   5   6
BRANCH   3  13
ATOM     13  C   UNL     1       2.084   7.185  19.667  0.00  0.00    +0.000 A 
ATOM     14  C   UNL     1       2.020   5.985  20.389  0.00  0.00    +0.000 A 
ATOM     15  C   UNL     1       2.598   4.821  19.877  0.00  0.00    +0.000 A 
ATOM     16  C   UNL     1       3.244   4.851  18.643  0.00  0.00    +0.000 A 
ATOM     17  C   UNL     1       3.313   6.039  17.917  0.00  0.00    +0.000 A 
ATOM     18  C   UNL     1       2.734   7.206  18.423  0.00  0.00    +0.000 A 
ENDBRANCH   3  13
BRANCH   1  20
ATOM     19  O   UNL     1      -0.126  10.063  23.741  0.00  0.00    +0.000 OA
ATOM     20  C   UNL     1      -0.306  10.392  22.577  0.00  0.00    +0.000 C 
ATOM     21  N   UNL     1      -1.269  11.302  22.208  0.00  0.00    +0.000 N 
ATOM     22  H   UNL     1      -1.447  11.477  21.228  0.00  0.00    +0.000 HD
BRANCH  21  23
ATOM     23  C   UNL     1      -2.225  11.789  23.183  0.00  0.00    +0.000 C 
BRANCH  23  24
ATOM     24  C   UNL     1      -2.915  13.145  22.804  0.00  0.00    +0.000 C 
BRANCH  24  25
ATOM     25  N   UNL     1      -2.725  13.476  21.357  0.00  0.00    +0.000 NA
ATOM     26  C   UNL     1      -3.060  14.892  21.047  0.00  0.00    +0.000 C 
ATOM     27  C   UNL     1      -4.564  15.212  21.145  0.00  0.00    +0.000 C 
ATOM     28  O   UNL     1      -5.306  14.408  20.220  0.00  0.00    +0.000 OA
ATOM     29  C   UNL     1      -5.089  13.016  20.470  0.00  0.00    +0.000 C 
ATOM     30  C   UNL     1      -3.586  12.661  20.451  0.00  0.00    +0.000 C 
ENDBRANCH  24  25
BRANCH  24  31
ATOM     31  C   UNL     1      -2.375  14.244  23.736  0.00  0.00    +0.000 A 
ATOM     32  C   UNL     1      -1.075  14.688  23.925  0.00  0.00    +0.000 A 
ATOM     33  C   UNL     1      -0.975  15.717  24.907  0.00  0.00    +0.000 A 
ATOM     34  C   UNL     1      -2.203  16.056  25.423  0.00  0.00    +0.000 A 
ATOM     35  S   UNL     1      -3.447  15.051  24.823  0.00  0.00    +0.000 S 
ENDBRANCH  24  31
ENDBRANCH  23  24
ENDBRANCH  21  23
ENDBRANCH   1  20
TORSDOF 7
ENDMDL
MODEL 4
REMARK VINA RESULT:      -7.0      0.902      1.004
REMARK  Name = 
REMARK  7 active torsions:
REMARK  status: ('A' for Active; 'I' for Inactive)
REMARK    1  A    between atoms: C_2  and  C_17
REMARK    2  A    between atoms: N_3  and  C_4
REMARK    3  A    between atoms: C_4  and  C_5
REMARK    4  A    between atoms: C_5  and  C_6
REMARK    5  A    between atoms: C_5  and  N_11
REMARK    6  A    between atoms: N_19  and  C_20
REMARK    7  A    between atoms: C_27  and  C_28
REMARK                            x       y       z     vdW  Elec       q    Type
REMARK                         _______ _______ _______ _____ _____    ______ ____
ROOT
ATOM      1  C   UNL     1       0.422   9.893  21.466  0.00  0.00    +0.000 A 
ATOM      2  C   UNL     1       0.855   8.584  21.416  0.00  0.00    +0.000 A 
ATOM      3  N   UNL     1       1.470   8.401  20.206  0.00  0.00    +0.000 N 
ATOM      4  N   UNL     1       1.491   9.547  19.484  0.00  0.00    +0.000 NA
ATOM      5  C   UNL     1       0.842  10.464  20.226  0.00  0.00    +0.000 A 
ENDROOT
BRANCH   5   6
ATOM      6  C   UNL     1       0.657  11.839  19.725  0.00  0.00    +0.000 A 
ATOM      7  C   UNL     1      -0.319  12.113  18.754  0.00  0.00    +0.000 A 
ATOM      8  C   UNL     1      -0.543  13.423  18.308  0.00  0.00    +0.000 A 
ATOM      9  C   UNL     1       0.202  14.474  18.836  0.00  0.00    +0.000 A 
ATOM     10 CL   UNL     1      -0.091  16.086  18.314  0.00  0.00    +0.000 Cl
ATOM     11  C   UNL     1       1.188  14.224  19.781  0.00  0.00    +0.000 A 
ATOM     12  C   UNL     1       1.430  12.911  20.199  0.00  0.00    +0.000 A 
ENDBRANCH   5   6
BRANCH   3  13
ATOM     13  C   UNL     1       2.034   7.191  19.717  0.00  0.00    +0.000 A 
ATOM     14  C   UNL     1       2.681   7.148  18.475  0.00  0.00    +0.000 A 
ATOM     15  C   UNL     1       3.231   5.953  18.005  0.00  0.00    +0.000 A 
ATOM     16  C   UNL     1       3.132   4.794  18.772  0.00  0.00    +0.000 A 
ATOM     17  C   UNL     1       2.491   4.826  20.010  0.00  0.00    +0.000 A 
ATOM     18  C   UNL     1       1.943   6.019  20.487  0.00  0.00    +0.000 A 
ENDBRANCH   3  13
BRANCH   1  20
ATOM     19  O   UNL     1      -0.204  10.132  23.718  0.00  0.00    +0.000 OA
ATOM     20  C   UNL     1      -0.325  10.485  22.554  0.00  0.00    +0.000 C 
ATOM     21  N   UNL     1      -1.221  11.454  22.166  0.00  0.00    +0.000 N 
ATOM     22  H   UNL     1      -1.355  11.651  21.184  0.00  0.00    +0.000 HD
BRANCH  21  23
ATOM     23  C   UNL     1      -2.179  11.986  23.116  0.00  0.00    +0.000 C 
BRANCH  23  24
ATOM     24  C   UNL     1      -2.856  13.332  22.681  0.00  0.00    +0.000 C 
BRANCH  24  25
ATOM     25  N   UNL     1      -3.052  14.252  23.844  0.00  0.00    +0.000 NA
ATOM     26  C   UNL     1      -3.639  15.560  23.443  0.00  0.00    +0.000 C 
ATOM     27  C   UNL     1      -2.682  16.447  22.624  0.00  0.00    +0.000 C 
ATOM     28  O   UNL     1      -1.506  16.748  23.386  0.00  0.00    +0.000 OA
ATOM     29  C   UNL     1      -0.837  15.545  23.779  0.00  0.00    +0.000 C 
ATOM     30  C   UNL     1      -1.779  14.591  24.544  0.00  0.00    +0.000 C 
ENDBRANCH  24  25
BRANCH  24  31
ATOM     31  C   UNL     1      -4.175  13.002  21.959  0.00  0.00    +0.000 A 
ATOM     32  C   UNL     1      -5.438  12.767  22.482  0.00  0.00    +0.000 A 
ATOM     33  C   UNL     1      -6.408  12.466  21.482  0.00  0.00    +0.000 A 
ATOM     34  C   UNL     1      -5.871  12.507  20.216  0.00  0.00    +0.000 A 
ATOM     35  S   UNL     1      -4.185  12.778  20.248  0.00  0.00    +0.000 S 
ENDBRANCH  24  31
ENDBRANCH  23  24
ENDBRANCH  21  23
ENDBRANCH   1  20
TORSDOF 7
ENDMDL
MODEL 5
REMARK VINA RESULT:      -7.0      1.660      2.662
REMARK  Name = 
REMARK  7 active torsions:
REMARK  status: ('A' for Active; 'I' for Inactive)
REMARK    1  A    between atoms: C_2  and  C_17
REMARK    2  A    between atoms: N_3  and  C_4
REMARK    3  A    between atoms: C_4  and  C_5
REMARK    4  A    between atoms: C_5  and  C_6
REMARK    5  A    between atoms: C_5  and  N_11
REMARK    6  A    between atoms: N_19  and  C_20
REMARK    7  A    between atoms: C_27  and  C_28
REMARK                            x       y       z     vdW  Elec       q    Type
REMARK                         _______ _______ _______ _____ _____    ______ ____
ROOT
ATOM      1  C   UNL     1       0.440   9.802  21.472  0.00  0.00    +0.000 A 
ATOM      2  C   UNL     1       0.907   8.507  21.391  0.00  0.00    +0.000 A 
ATOM      3  N   UNL     1       1.507   8.363  20.168  0.00  0.00    +0.000 N 
ATOM      4  N   UNL     1       1.486   9.522  19.468  0.00  0.00    +0.000 NA
ATOM      5  C   UNL     1       0.825  10.407  20.237  0.00  0.00    +0.000 A 
ENDROOT
BRANCH   5   6
ATOM      6  C   UNL     1       0.595  11.786  19.765  0.00  0.00    +0.000 A 
ATOM      7  C   UNL     1      -0.305  12.034  18.717  0.00  0.00    +0.000 A 
ATOM      8  C   UNL     1      -0.574  13.344  18.294  0.00  0.00    +0.000 A 
ATOM      9  C   UNL     1       0.049  14.418  18.922  0.00  0.00    +0.000 A 
ATOM     10 CL   UNL     1      -0.301  16.028  18.428  0.00  0.00    +0.000 Cl
ATOM     11  C   UNL     1       0.960  14.196  19.946  0.00  0.00    +0.000 A 
ATOM     12  C   UNL     1       1.250  12.886  20.343  0.00  0.00    +0.000 A 
ENDBRANCH   5   6
BRANCH   3  13
ATOM     13  C   UNL     1       2.095   7.177  19.648  0.00  0.00    +0.000 A 
ATOM     14  C   UNL     1       2.750   7.183  18.408  0.00  0.00    +0.000 A 
ATOM     15  C   UNL     1       3.323   6.012  17.907  0.00  0.00    +0.000 A 
ATOM     16  C   UNL     1       3.241   4.829  18.640  0.00  0.00    +0.000 A 
ATOM     17  C   UNL     1       2.593   4.813  19.874  0.00  0.00    +0.000 A 
ATOM     18  C   UNL     1       2.021   5.982  20.382  0.00  0.00    +0.000 A 
ENDBRANCH   3  13
BRANCH   1  20
ATOM     19  O   UNL     1      -0.103  10.037  23.747  0.00  0.00    +0.000 OA
ATOM     20  C   UNL     1      -0.305  10.353  22.583  0.00  0.00    +0.000 C 
ATOM     21  N   UNL     1      -1.296  11.236  22.220  0.00  0.00    +0.000 N 
ATOM     22  H   UNL     1      -1.490  11.400  21.241  0.00  0.00    +0.000 HD
BRANCH  21  23
ATOM     23  C   UNL     1      -2.252  11.706  23.203  0.00  0.00    +0.000 C 
BRANCH  23  24
ATOM     24  C   UNL     1      -3.030  13.005  22.792  0.00  0.00    +0.000 C 
BRANCH  24  25
ATOM     25  N   UNL     1      -2.802  13.353  21.355  0.00  0.00    +0.000 NA
ATOM     26  C   UNL     1      -3.178  14.760  21.043  0.00  0.00    +0.000 C 
ATOM     27  C   UNL     1      -4.694  15.024  21.092  0.00  0.00    +0.000 C 
ATOM     28  O   UNL     1      -5.375  14.202  20.136  0.00  0.00    +0.000 OA
ATOM     29  C   UNL     1      -5.115  12.816  20.384  0.00  0.00    +0.000 C 
ATOM     30  C   UNL     1      -3.601  12.515  20.415  0.00  0.00    +0.000 C 
ENDBRANCH  24  25
BRANCH  24  31
ATOM     31  C   UNL     1      -2.621  14.140  23.748  0.00  0.00    +0.000 A 
ATOM     32  C   UNL     1      -3.396  14.885  24.625  0.00  0.00    +0.000 A 
ATOM     33  C   UNL     1      -2.648  15.875  25.326  0.00  0.00    +0.000 A 
ATOM     34  C   UNL     1      -1.314  15.844  24.991  0.00  0.00    +0.000 A 
ATOM     35  S   UNL     1      -0.994  14.718  23.748  0.00  0.00    +0.000 S 
ENDBRANCH  24  31
ENDBRANCH  23  24
ENDBRANCH  21  23
ENDBRANCH   1  20
TORSDOF 7
ENDMDL
MODEL 6
REMARK VINA RESULT:      -6.9      1.137      1.732
REMARK  Name = 
REMARK  7 active torsions:
REMARK  status: ('A' for Active; 'I' for Inactive)
REMARK    1  A    between atoms: C_2  and  C_17
REMARK    2  A    between atoms: N_3  and  C_4
REMARK    3  A    between atoms: C_4  and  C_5
REMARK    4  A    between atoms: C_5  and  C_6
REMARK    5  A    between atoms: C_5  and  N_11
REMARK    6  A    between atoms: N_19  and  C_20
REMARK    7  A    between atoms: C_27  and  C_28
REMARK                            x       y       z     vdW  Elec       q    Type
REMARK                         _______ _______ _______ _____ _____    ______ ____
ROOT
ATOM      1  C   UNL     1       0.235  10.035  21.502  0.00  0.00    +0.000 A 
ATOM      2  C   UNL     1       0.644   8.721  21.420  0.00  0.00    +0.000 A 
ATOM      3  N   UNL     1       1.352   8.582  20.256  0.00  0.00    +0.000 N 
ATOM      4  N   UNL     1       1.455   9.761  19.597  0.00  0.00    +0.000 NA
ATOM      5  C   UNL     1       0.766  10.656  20.330  0.00  0.00    +0.000 A 
ENDROOT
BRANCH   5   6
ATOM      6  C   UNL     1       0.651  12.059  19.887  0.00  0.00    +0.000 A 
ATOM      7  C   UNL     1       1.478  13.047  20.446  0.00  0.00    +0.000 A 
ATOM      8  C   UNL     1       1.418  14.374  19.997  0.00  0.00    +0.000 A 
ATOM      9  C   UNL     1       0.537  14.723  18.977  0.00  0.00    +0.000 A 
ATOM     10 CL   UNL     1       0.482  16.343  18.402  0.00  0.00    +0.000 Cl
ATOM     11  C   UNL     1      -0.305  13.767  18.425  0.00  0.00    +0.000 A 
ATOM     12  C   UNL     1      -0.265  12.452  18.899  0.00  0.00    +0.000 A 
ENDBRANCH   5   6
BRANCH   3  13
ATOM     13  C   UNL     1       1.929   7.384  19.753  0.00  0.00    +0.000 A 
ATOM     14  C   UNL     1       1.866   6.191  20.487  0.00  0.00    +0.000 A 
ATOM     15  C   UNL     1       2.437   5.021  19.983  0.00  0.00    +0.000 A 
ATOM     16  C   UNL     1       3.076   5.037  18.744  0.00  0.00    +0.000 A 
ATOM     17  C   UNL     1       3.143   6.217  18.006  0.00  0.00    +0.000 A 
ATOM     18  C   UNL     1       2.571   7.391  18.504  0.00  0.00    +0.000 A 
ENDBRANCH   3  13
BRANCH   1  20
ATOM     19  O   UNL     1      -0.547  10.197  23.712  0.00  0.00    +0.000 OA
ATOM     20  C   UNL     1      -0.586  10.591  22.556  0.00  0.00    +0.000 C 
ATOM     21  N   UNL     1      -1.451  11.577  22.141  0.00  0.00    +0.000 N 
ATOM     22  H   UNL     1      -1.515  11.810  21.158  0.00  0.00    +0.000 HD
BRANCH  21  23
ATOM     23  C   UNL     1      -2.472  12.078  23.039  0.00  0.00    +0.000 C 
BRANCH  23  24
ATOM     24  C   UNL     1      -3.254  13.331  22.510  0.00  0.00    +0.000 C 
BRANCH  24  25
ATOM     25  N   UNL     1      -3.972  14.041  23.614  0.00  0.00    +0.000 NA
ATOM     26  C   UNL     1      -4.319  15.444  23.259  0.00  0.00    +0.000 C 
ATOM     27  C   UNL     1      -3.100  16.380  23.157  0.00  0.00    +0.000 C 
ATOM     28  O   UNL     1      -2.409  16.438  24.412  0.00  0.00    +0.000 OA
ATOM     29  C   UNL     1      -1.987  15.133  24.819  0.00  0.00    +0.000 C 
ATOM     30  C   UNL     1      -3.168  14.140  24.867  0.00  0.00    +0.000 C 
ENDBRANCH  24  25
BRANCH  24  31
ATOM     31  C   UNL     1      -4.202  12.875  21.387  0.00  0.00    +0.000 A 
ATOM     32  C   UNL     1      -3.957  12.705  20.032  0.00  0.00    +0.000 A 
ATOM     33  C   UNL     1      -5.111  12.291  19.305  0.00  0.00    +0.000 A 
ATOM     34  C   UNL     1      -6.202  12.124  20.125  0.00  0.00    +0.000 A 
ATOM     35  S   UNL     1      -5.869  12.589  21.733  0.00  0.00    +0.000 S 
ENDBRANCH  24  31
ENDBRANCH  23  24
ENDBRANCH  21  23
ENDBRANCH   1  20
TORSDOF 7
ENDMDL
MODEL 7
REMARK VINA RESULT:      -6.9      1.644      2.961
REMARK  Name = 
REMARK  7 active torsions:
REMARK  status: ('A' for Active; 'I' for Inactive)
REMARK    1  A    between atoms: C_2  and  C_17
REMARK    2  A    between atoms: N_3  and  C_4
REMARK    3  A    between atoms: C_4  and  C_5
REMARK    4  A    between atoms: C_5  and  C_6
REMARK    5  A    between atoms: C_5  and  N_11
REMARK    6  A    between atoms: N_19  and  C_20
REMARK    7  A    between atoms: C_27  and  C_28
REMARK                            x       y       z     vdW  Elec       q    Type
REMARK                         _______ _______ _______ _____ _____    ______ ____
ROOT
ATOM      1  C   UNL     1       0.409   9.870  21.478  0.00  0.00    +0.000 A 
ATOM      2  C   UNL     1       0.903   8.588  21.365  0.00  0.00    +0.000 A 
ATOM      3  N   UNL     1       1.499   8.484  20.136  0.00  0.00    +0.000 N 
ATOM      4  N   UNL     1       1.449   9.658  19.462  0.00  0.00    +0.000 NA
ATOM      5  C   UNL     1       0.773  10.511  20.254  0.00  0.00    +0.000 A 
ENDROOT
BRANCH   5   6
ATOM      6  C   UNL     1       0.512  11.895  19.815  0.00  0.00    +0.000 A 
ATOM      7  C   UNL     1       1.196  12.967  20.410  0.00  0.00    +0.000 A 
ATOM      8  C   UNL     1       0.998  14.282  19.966  0.00  0.00    +0.000 A 
ATOM      9  C   UNL     1       0.120  14.536  18.916  0.00  0.00    +0.000 A 
ATOM     10 CL   UNL     1      -0.102  16.145  18.348  0.00  0.00    +0.000 Cl
ATOM     11  C   UNL     1      -0.583  13.494  18.327  0.00  0.00    +0.000 A 
ATOM     12  C   UNL     1      -0.407  12.188  18.795  0.00  0.00    +0.000 A 
ENDBRANCH   5   6
BRANCH   3  13
ATOM     13  C   UNL     1       2.109   7.323  19.586  0.00  0.00    +0.000 A 
ATOM     14  C   UNL     1       2.062   6.096  20.263  0.00  0.00    +0.000 A 
ATOM     15  C   UNL     1       2.666   4.963  19.713  0.00  0.00    +0.000 A 
ATOM     16  C   UNL     1       3.321   5.051  18.486  0.00  0.00    +0.000 A 
ATOM     17  C   UNL     1       3.372   6.266  17.804  0.00  0.00    +0.000 A 
ATOM     18  C   UNL     1       2.767   7.402  18.348  0.00  0.00    +0.000 A 
ENDBRANCH   3  13
BRANCH   1  20
ATOM     19  O   UNL     1      -0.145  10.020  23.757  0.00  0.00    +0.000 OA
ATOM     20  C   UNL     1      -0.340  10.381  22.605  0.00  0.00    +0.000 C 
ATOM     21  N   UNL     1      -1.327  11.279  22.271  0.00  0.00    +0.000 N 
ATOM     22  H   UNL     1      -1.515  11.481  21.298  0.00  0.00    +0.000 HD
BRANCH  21  23
ATOM     23  C   UNL     1      -2.287  11.714  23.266  0.00  0.00    +0.000 C 
BRANCH  23  24
ATOM     24  C   UNL     1      -3.011  13.065  22.933  0.00  0.00    +0.000 C 
BRANCH  24  25
ATOM     25  N   UNL     1      -2.852  13.436  21.492  0.00  0.00    +0.000 NA
ATOM     26  C   UNL     1      -3.300  14.826  21.208  0.00  0.00    +0.000 C 
ATOM     27  C   UNL     1      -4.824  15.024  21.315  0.00  0.00    +0.000 C 
ATOM     28  O   UNL     1      -5.503  14.180  20.376  0.00  0.00    +0.000 OA
ATOM     29  C   UNL     1      -5.174  12.805  20.601  0.00  0.00    +0.000 C 
ATOM     30  C   UNL     1      -3.648  12.571  20.573  0.00  0.00    +0.000 C 
ENDBRANCH  24  25
BRANCH  24  31
ATOM     31  C   UNL     1      -2.478  14.151  23.884  0.00  0.00    +0.000 A 
ATOM     32  C   UNL     1      -3.102  14.781  24.951  0.00  0.00    +0.000 A 
ATOM     33  C   UNL     1      -2.279  15.761  25.577  0.00  0.00    +0.000 A 
ATOM     34  C   UNL     1      -1.036  15.837  24.995  0.00  0.00    +0.000 A 
ATOM     35  S   UNL     1      -0.911  14.827  23.624  0.00  0.00    +0.000 S 
ENDBRANCH  24  31
ENDBRANCH  23  24
ENDBRANCH  21  23
ENDBRANCH   1  20
TORSDOF 7
ENDMDL
MODEL 8
REMARK VINA RESULT:      -6.9      1.519      2.882
REMARK  Name = 
REMARK  7 active torsions:
REMARK  status: ('A' for Active; 'I' for Inactive)
REMARK    1  A    between atoms: C_2  and  C_17
REMARK    2  A    between atoms: N_3  and  C_4
REMARK    3  A    between atoms: C_4  and  C_5
REMARK    4  A    between atoms: C_5  and  C_6
REMARK    5  A    between atoms: C_5  and  N_11
REMARK    6  A    between atoms: N_19  and  C_20
REMARK    7  A    between atoms: C_27  and  C_28
REMARK                            x       y       z     vdW  Elec       q    Type
REMARK                         _______ _______ _______ _____ _____    ______ ____
ROOT
ATOM      1  C   UNL     1       0.348   9.995  21.451  0.00  0.00    +0.000 A 
ATOM      2  C   UNL     1       0.745   8.676  21.384  0.00  0.00    +0.000 A 
ATOM      3  N   UNL     1       1.394   8.503  20.190  0.00  0.00    +0.000 N 
ATOM      4  N   UNL     1       1.470   9.665  19.497  0.00  0.00    +0.000 NA
ATOM      5  C   UNL     1       0.823  10.582  20.240  0.00  0.00    +0.000 A 
ENDROOT
BRANCH   5   6
ATOM      6  C   UNL     1       0.693  11.974  19.767  0.00  0.00    +0.000 A 
ATOM      7  C   UNL     1      -0.421  12.360  19.005  0.00  0.00    +0.000 A 
ATOM      8  C   UNL     1      -0.586  13.691  18.594  0.00  0.00    +0.000 A 
ATOM      9  C   UNL     1       0.359  14.649  18.950  0.00  0.00    +0.000 A 
ATOM     10 CL   UNL     1       0.146  16.289  18.475  0.00  0.00    +0.000 Cl
ATOM     11  C   UNL     1       1.480  14.286  19.684  0.00  0.00    +0.000 A 
ATOM     12  C   UNL     1       1.656  12.951  20.064  0.00  0.00    +0.000 A 
ENDBRANCH   5   6
BRANCH   3  13
ATOM     13  C   UNL     1       1.939   7.289  19.690  0.00  0.00    +0.000 A 
ATOM     14  C   UNL     1       2.583   7.248  18.445  0.00  0.00    +0.000 A 
ATOM     15  C   UNL     1       3.114   6.049  17.964  0.00  0.00    +0.000 A 
ATOM     16  C   UNL     1       3.002   4.885  18.723  0.00  0.00    +0.000 A 
ATOM     17  C   UNL     1       2.364   4.916  19.962  0.00  0.00    +0.000 A 
ATOM     18  C   UNL     1       1.833   6.113  20.450  0.00  0.00    +0.000 A 
ENDBRANCH   3  13
BRANCH   1  20
ATOM     19  O   UNL     1      -0.196  10.353  23.710  0.00  0.00    +0.000 OA
ATOM     20  C   UNL     1      -0.417  10.582  22.530  0.00  0.00    +0.000 C 
ATOM     21  N   UNL     1      -1.450  11.392  22.117  0.00  0.00    +0.000 N 
ATOM     22  H   UNL     1      -1.656  11.483  21.131  0.00  0.00    +0.000 HD
BRANCH  21  23
ATOM     23  C   UNL     1      -2.423  11.881  23.075  0.00  0.00    +0.000 C 
BRANCH  23  24
ATOM     24  C   UNL     1      -3.029  13.287  22.735  0.00  0.00    +0.000 C 
BRANCH  24  25
ATOM     25  N   UNL     1      -3.502  13.355  21.317  0.00  0.00    +0.000 NA
ATOM     26  C   UNL     1      -3.971  14.716  20.937  0.00  0.00    +0.000 C 
ATOM     27  C   UNL     1      -5.284  15.136  21.624  0.00  0.00    +0.000 C 
ATOM     28  O   UNL     1      -6.340  14.232  21.275  0.00  0.00    +0.000 OA
ATOM     29  C   UNL     1      -6.004  12.892  21.649  0.00  0.00    +0.000 C 
ATOM     30  C   UNL     1      -4.656  12.451  21.039  0.00  0.00    +0.000 C 
ENDBRANCH  24  25
BRANCH  24  31
ATOM     31  C   UNL     1      -1.977  14.362  23.059  0.00  0.00    +0.000 A 
ATOM     32  C   UNL     1      -0.730  14.583  22.493  0.00  0.00    +0.000 A 
ATOM     33  C   UNL     1      -0.033  15.674  23.090  0.00  0.00    +0.000 A 
ATOM     34  C   UNL     1      -0.775  16.280  24.076  0.00  0.00    +0.000 A 
ATOM     35  S   UNL     1      -2.243  15.458  24.366  0.00  0.00    +0.000 S 
ENDBRANCH  24  31
ENDBRANCH  23  24
ENDBRANCH  21  23
ENDBRANCH   1  20
TORSDOF 7
ENDMDL
MODEL 9
REMARK VINA RESULT:      -6.8      4.163      7.333
REMARK  Name = 
REMARK  7 active torsions:
REMARK  status: ('A' for Active; 'I' for Inactive)
REMARK    1  A    between atoms: C_2  and  C_17
REMARK    2  A    between atoms: N_3  and  C_4
REMARK    3  A    between atoms: C_4  and  C_5
REMARK    4  A    between atoms: C_5  and  C_6
REMARK    5  A    between atoms: C_5  and  N_11
REMARK    6  A    between atoms: N_19  and  C_20
REMARK    7  A    between atoms: C_27  and  C_28
REMARK                            x       y       z     vdW  Elec       q    Type
REMARK                         _______ _______ _______ _____ _____    ______ ____
ROOT
ATOM      1  C   UNL     1       0.425  11.897  18.904  0.00  0.00    +0.000 A 
ATOM      2  C   UNL     1      -0.792  12.530  18.754  0.00  0.00    +0.000 A 
ATOM      3  N   UNL     1      -1.749  11.558  18.640  0.00  0.00    +0.000 N 
ATOM      4  N   UNL     1      -1.211  10.320  18.750  0.00  0.00    +0.000 NA
ATOM      5  C   UNL     1       0.115  10.503  18.894  0.00  0.00    +0.000 A 
ENDROOT
BRANCH   5   6
ATOM      6  C   UNL     1       1.022   9.347  19.021  0.00  0.00    +0.000 A 
ATOM      7  C   UNL     1       1.139   8.671  20.246  0.00  0.00    +0.000 A 
ATOM      8  C   UNL     1       1.955   7.538  20.368  0.00  0.00    +0.000 A 
ATOM      9  C   UNL     1       2.657   7.065  19.263  0.00  0.00    +0.000 A 
ATOM     10 CL   UNL     1       3.636   5.658  19.400  0.00  0.00    +0.000 Cl
ATOM     11  C   UNL     1       2.574   7.730  18.047  0.00  0.00    +0.000 A 
ATOM     12  C   UNL     1       1.784   8.879  17.938  0.00  0.00    +0.000 A 
ENDBRANCH   5   6
BRANCH   3  13
ATOM     13  C   UNL     1      -3.141  11.760  18.433  0.00  0.00    +0.000 A 
ATOM     14  C   UNL     1      -3.745  11.422  17.214  0.00  0.00    +0.000 A 
ATOM     15  C   UNL     1      -5.113  11.626  17.023  0.00  0.00    +0.000 A 
ATOM     16  C   UNL     1      -5.884  12.172  18.047  0.00  0.00    +0.000 A 
ATOM     17  C   UNL     1      -5.294  12.511  19.264  0.00  0.00    +0.000 A 
ATOM     18  C   UNL     1      -3.926  12.306  19.462  0.00  0.00    +0.000 A 
ENDBRANCH   3  13
BRANCH   1  20
ATOM     19  O   UNL     1       2.613  12.393  18.205  0.00  0.00    +0.000 OA
ATOM     20  C   UNL     1       1.706  12.562  19.006  0.00  0.00    +0.000 C 
ATOM     21  N   UNL     1       1.837  13.374  20.109  0.00  0.00    +0.000 N 
ATOM     22  H   UNL     1       1.095  13.416  20.795  0.00  0.00    +0.000 HD
BRANCH  21  23
ATOM     23  C   UNL     1       3.128  13.939  20.450  0.00  0.00    +0.000 C 
BRANCH  23  24
ATOM     24  C   UNL     1       3.383  15.381  19.887  0.00  0.00    +0.000 C 
BRANCH  24  25
ATOM     25  N   UNL     1       4.322  16.155  20.757  0.00  0.00    +0.000 NA
ATOM     26  C   UNL     1       4.865  17.363  20.077  0.00  0.00    +0.000 C 
ATOM     27  C   UNL     1       5.844  17.045  18.932  0.00  0.00    +0.000 C 
ATOM     28  O   UNL     1       6.974  16.318  19.429  0.00  0.00    +0.000 OA
ATOM     29  C   UNL     1       6.557  15.104  20.063  0.00  0.00    +0.000 C 
ATOM     30  C   UNL     1       5.519  15.368  21.174  0.00  0.00    +0.000 C 
ENDBRANCH  24  25
BRANCH  24  31
ATOM     31  C   UNL     1       2.024  16.083  19.713  0.00  0.00    +0.000 A 
ATOM     32  C   UNL     1       1.296  16.334  18.560  0.00  0.00    +0.000 A 
ATOM     33  C   UNL     1       0.083  17.040  18.810  0.00  0.00    +0.000 A 
ATOM     34  C   UNL     1      -0.102  17.285  20.150  0.00  0.00    +0.000 A 
ATOM     35  S   UNL     1       1.238  16.783  21.081  0.00  0.00    +0.000 S 
ENDBRANCH  24  31
ENDBRANCH  23  24
ENDBRANCH  21  23
ENDBRANCH   1  20
TORSDOF 7
ENDMDL
