MODEL 1
REMARK VINA RESULT:      -8.0      0.000      0.000
REMARK  Name = 
REMARK  2 active torsions:
REMARK  status: ('A' for Active; 'I' for Inactive)
REMARK    1  A    between atoms: C_2  and  C_3
REMARK    2  A    between atoms: C_16  and  C_18
REMARK                            x       y       z     vdW  Elec       q    Type
REMARK                         _______ _______ _______ _____ _____    ______ ____
ROOT
ATOM      1  O   UNL     1      -0.330   7.741  21.754  0.00  0.00    +0.000 OA
ATOM      2  C   UNL     1       0.538   8.121  20.975  0.00  0.00    +0.000 C 
ATOM      3  N   UNL     1       1.515   7.240  20.501  0.00  0.00    +0.000 N 
ATOM      4  C   UNL     1       1.564   5.867  21.043  0.00  0.00    +0.000 C 
ATOM      5  C   UNL     1       1.537   4.792  19.938  0.00  0.00    +0.000 C 
ATOM      6  N   UNL     1       2.510   5.101  18.877  0.00  0.00    +0.000 N 
ATOM      7  C   UNL     1       3.519   4.180  18.583  0.00  0.00    +0.000 C 
ATOM      8  O   UNL     1       3.553   3.082  19.139  0.00  0.00    +0.000 OA
ATOM      9  C   UNL     1       2.287   6.419  18.288  0.00  0.00    +0.000 C 
ATOM     10  C   UNL     1       2.438   7.490  19.378  0.00  0.00    +0.000 C 
ENDROOT
BRANCH   2  11
ATOM     11  C   UNL     1       0.567   9.496  20.506  0.00  0.00    +0.000 A 
ATOM     12  C   UNL     1      -0.167  10.054  19.472  0.00  0.00    +0.000 A 
ATOM     13  C   UNL     1       0.219  11.414  19.325  0.00  0.00    +0.000 A 
ATOM     14  C   UNL     1      -0.138  12.446  18.437  0.00  0.00    +0.000 A 
ATOM     15  C   UNL     1       0.483  13.696  18.559  0.00  0.00    +0.000 A 
ATOM     16  C   UNL     1       1.452  13.918  19.535  0.00  0.00    +0.000 A 
ATOM     17  C   UNL     1       1.813  12.909  20.435  0.00  0.00    +0.000 A 
ATOM     18  C   UNL     1       1.164  11.676  20.312  0.00  0.00    +0.000 A 
ATOM     19  N   UNL     1       1.264  10.538  21.077  0.00  0.00    +0.000 N 
ATOM     20  H   UNL     1       1.824  10.463  21.914  0.00  0.00    +0.000 HD
ENDBRANCH   2  11
BRANCH   7  21
ATOM     21  C   UNL     1       4.593   4.483  17.589  0.00  0.00    +0.000 A 
ATOM     22  C   UNL     1       4.401   4.346  16.202  0.00  0.00    +0.000 A 
ATOM     23  C   UNL     1       5.428   4.592  15.290  0.00  0.00    +0.000 A 
ATOM     24  C   UNL     1       6.663   5.070  15.719  0.00  0.00    +0.000 A 
ATOM     25  C   UNL     1       6.819   5.320  17.086  0.00  0.00    +0.000 A 
ATOM     26  N   UNL     1       7.890   5.867  17.758  0.00  0.00    +0.000 N 
ATOM     27  C   UNL     1       7.612   5.965  19.092  0.00  0.00    +0.000 A 
ATOM     28  C   UNL     1       6.360   5.437  19.297  0.00  0.00    +0.000 A 
ATOM     29  C   UNL     1       5.825   5.038  18.031  0.00  0.00    +0.000 A 
ATOM     30  H   UNL     1       8.743   6.182  17.316  0.00  0.00    +0.000 HD
ENDBRANCH   7  21
TORSDOF 2
ENDMDL
MODEL 2
REMARK VINA RESULT:      -7.9      0.577      1.126
REMARK  Name = 
REMARK  2 active torsions:
REMARK  status: ('A' for Active; 'I' for Inactive)
REMARK    1  A    between atoms: C_2  and  C_3
REMARK    2  A    between atoms: C_16  and  C_18
REMARK                            x       y       z     vdW  Elec       q    Type
REMARK                         _______ _______ _______ _____ _____    ______ ____
ROOT
ATOM      1  O   UNL     1      -0.326   7.777  21.753  0.00  0.00    +0.000 OA
ATOM      2  C   UNL     1       0.525   8.137  20.946  0.00  0.00    +0.000 C 
ATOM      3  N   UNL     1       1.505   7.250  20.490  0.00  0.00    +0.000 N 
ATOM      4  C   UNL     1       1.579   5.899  21.082  0.00  0.00    +0.000 C 
ATOM      5  C   UNL     1       1.548   4.783  20.019  0.00  0.00    +0.000 C 
ATOM      6  N   UNL     1       2.500   5.063  18.932  0.00  0.00    +0.000 N 
ATOM      7  C   UNL     1       3.516   4.143  18.657  0.00  0.00    +0.000 C 
ATOM      8  O   UNL     1       3.572   3.067  19.253  0.00  0.00    +0.000 OA
ATOM      9  C   UNL     1       2.253   6.355  18.297  0.00  0.00    +0.000 C 
ATOM     10  C   UNL     1       2.408   7.468  19.344  0.00  0.00    +0.000 C 
ENDROOT
BRANCH   2  11
ATOM     11  C   UNL     1       0.531   9.494  20.426  0.00  0.00    +0.000 A 
ATOM     12  C   UNL     1       1.331  10.552  20.825  0.00  0.00    +0.000 A 
ATOM     13  C   UNL     1       0.960  11.706  20.084  0.00  0.00    +0.000 A 
ATOM     14  C   UNL     1       1.375  13.051  20.086  0.00  0.00    +0.000 A 
ATOM     15  C   UNL     1       0.752  13.959  19.219  0.00  0.00    +0.000 A 
ATOM     16  C   UNL     1      -0.277  13.546  18.375  0.00  0.00    +0.000 A 
ATOM     17  C   UNL     1      -0.697  12.212  18.349  0.00  0.00    +0.000 A 
ATOM     18  C   UNL     1      -0.046  11.316  19.204  0.00  0.00    +0.000 A 
ATOM     19  N   UNL     1      -0.198   9.959  19.352  0.00  0.00    +0.000 N 
ATOM     20  H   UNL     1      -0.810   9.390  18.785  0.00  0.00    +0.000 HD
ENDBRANCH   2  11
BRANCH   7  21
ATOM     21  C   UNL     1       4.571   4.421  17.635  0.00  0.00    +0.000 A 
ATOM     22  C   UNL     1       4.353   4.244  16.256  0.00  0.00    +0.000 A 
ATOM     23  C   UNL     1       5.363   4.467  15.319  0.00  0.00    +0.000 A 
ATOM     24  C   UNL     1       6.605   4.960  15.712  0.00  0.00    +0.000 A 
ATOM     25  C   UNL     1       6.784   5.248  17.068  0.00  0.00    +0.000 A 
ATOM     26  N   UNL     1       7.867   5.816  17.705  0.00  0.00    +0.000 N 
ATOM     27  C   UNL     1       7.613   5.951  19.040  0.00  0.00    +0.000 A 
ATOM     28  C   UNL     1       6.366   5.426  19.283  0.00  0.00    +0.000 A 
ATOM     29  C   UNL     1       5.809   4.991  18.039  0.00  0.00    +0.000 A 
ATOM     30  H   UNL     1       8.710   6.120  17.239  0.00  0.00    +0.000 HD
ENDBRANCH   7  21
TORSDOF 2
ENDMDL
MODEL 3
REMARK VINA RESULT:      -7.7      3.282      9.434
REMARK  Name = 
REMARK  2 active torsions:
REMARK  status: ('A' for Active; 'I' for Inactive)
REMARK    1  A    between atoms: C_2  and  C_3
REMARK    2  A    between atoms: C_16  and  C_18
REMARK                            x       y       z     vdW  Elec       q    Type
REMARK                         _______ _______ _______ _____ _____    ______ ____
ROOT
ATOM      1  O   UNL     1       3.074   8.221  17.080  0.00  0.00    +0.000 OA
ATOM      2  C   UNL     1       2.453   8.067  18.127  0.00  0.00    +0.000 C 
ATOM      3  N   UNL     1       1.863   9.154  18.779  0.00  0.00    +0.000 N 
ATOM      4  C   UNL     1       2.096  10.515  18.256  0.00  0.00    +0.000 C 
ATOM      5  C   UNL     1       0.784  11.285  18.002  0.00  0.00    +0.000 C 
ATOM      6  N   UNL     1      -0.120  11.186  19.159  0.00  0.00    +0.000 N 
ATOM      7  C   UNL     1      -0.542  12.353  19.802  0.00  0.00    +0.000 C 
ATOM      8  O   UNL     1      -0.236  13.461  19.362  0.00  0.00    +0.000 OA
ATOM      9  C   UNL     1      -0.422   9.800  19.509  0.00  0.00    +0.000 C 
ATOM     10  C   UNL     1       0.882   9.078  19.879  0.00  0.00    +0.000 C 
ENDROOT
BRANCH   2  11
ATOM     11  C   UNL     1       2.296   6.747  18.712  0.00  0.00    +0.000 A 
ATOM     12  C   UNL     1       1.869   5.587  18.085  0.00  0.00    +0.000 A 
ATOM     13  C   UNL     1       1.813   4.544  19.049  0.00  0.00    +0.000 A 
ATOM     14  C   UNL     1       1.418   3.194  19.015  0.00  0.00    +0.000 A 
ATOM     15  C   UNL     1       1.461   2.440  20.195  0.00  0.00    +0.000 A 
ATOM     16  C   UNL     1       1.873   3.018  21.395  0.00  0.00    +0.000 A 
ATOM     17  C   UNL     1       2.280   4.355  21.449  0.00  0.00    +0.000 A 
ATOM     18  C   UNL     1       2.254   5.084  20.254  0.00  0.00    +0.000 A 
ATOM     19  N   UNL     1       2.647   6.374  19.991  0.00  0.00    +0.000 N 
ATOM     20  H   UNL     1       3.081   6.985  20.668  0.00  0.00    +0.000 HD
ENDBRANCH   2  11
BRANCH   7  21
ATOM     21  C   UNL     1      -1.375  12.309  21.042  0.00  0.00    +0.000 A 
ATOM     22  C   UNL     1      -0.811  12.255  22.331  0.00  0.00    +0.000 A 
ATOM     23  C   UNL     1      -1.604  12.171  23.475  0.00  0.00    +0.000 A 
ATOM     24  C   UNL     1      -2.993  12.226  23.388  0.00  0.00    +0.000 A 
ATOM     25  C   UNL     1      -3.552  12.398  22.118  0.00  0.00    +0.000 A 
ATOM     26  N   UNL     1      -4.872  12.569  21.760  0.00  0.00    +0.000 N 
ATOM     27  C   UNL     1      -4.979  12.736  20.409  0.00  0.00    +0.000 A 
ATOM     28  C   UNL     1      -3.716  12.633  19.875  0.00  0.00    +0.000 A 
ATOM     29  C   UNL     1      -2.787  12.438  20.946  0.00  0.00    +0.000 A 
ATOM     30  H   UNL     1      -5.643  12.600  22.414  0.00  0.00    +0.000 HD
ENDBRANCH   7  21
TORSDOF 2
ENDMDL
MODEL 4
REMARK VINA RESULT:      -7.3      0.846      1.837
REMARK  Name = 
REMARK  2 active torsions:
REMARK  status: ('A' for Active; 'I' for Inactive)
REMARK    1  A    between atoms: C_2  and  C_3
REMARK    2  A    between atoms: C_16  and  C_18
REMARK                            x       y       z     vdW  Elec       q    Type
REMARK                         _______ _______ _______ _____ _____    ______ ____
ROOT
ATOM      1  O   UNL     1      -0.704   7.796  21.495  0.00  0.00    +0.000 OA
ATOM      2  C   UNL     1       0.270   8.285  20.932  0.00  0.00    +0.000 C 
ATOM      3  N   UNL     1       1.408   7.518  20.667  0.00  0.00    +0.000 N 
ATOM      4  C   UNL     1       1.474   6.135  21.180  0.00  0.00    +0.000 C 
ATOM      5  C   UNL     1       1.793   5.107  20.075  0.00  0.00    +0.000 C 
ATOM      6  N   UNL     1       2.937   5.547  19.258  0.00  0.00    +0.000 N 
ATOM      7  C   UNL     1       4.071   4.735  19.175  0.00  0.00    +0.000 C 
ATOM      8  O   UNL     1       4.093   3.624  19.704  0.00  0.00    +0.000 OA
ATOM      9  C   UNL     1       2.717   6.861  18.660  0.00  0.00    +0.000 C 
ATOM     10  C   UNL     1       2.523   7.897  19.777  0.00  0.00    +0.000 C 
ENDROOT
BRANCH   2  11
ATOM     11  C   UNL     1       0.264   9.675  20.507  0.00  0.00    +0.000 A 
ATOM     12  C   UNL     1      -0.445  10.237  19.457  0.00  0.00    +0.000 A 
ATOM     13  C   UNL     1      -0.109  11.615  19.369  0.00  0.00    +0.000 A 
ATOM     14  C   UNL     1      -0.467  12.660  18.498  0.00  0.00    +0.000 A 
ATOM     15  C   UNL     1       0.095  13.929  18.687  0.00  0.00    +0.000 A 
ATOM     16  C   UNL     1       1.009  14.158  19.714  0.00  0.00    +0.000 A 
ATOM     17  C   UNL     1       1.369  13.136  20.598  0.00  0.00    +0.000 A 
ATOM     18  C   UNL     1       0.778  11.882  20.408  0.00  0.00    +0.000 A 
ATOM     19  N   UNL     1       0.890  10.725  21.141  0.00  0.00    +0.000 N 
ATOM     20  H   UNL     1       1.414  10.646  22.001  0.00  0.00    +0.000 HD
ENDBRANCH   2  11
BRANCH   7  21
ATOM     21  C   UNL     1       5.299   5.176  18.446  0.00  0.00    +0.000 A 
ATOM     22  C   UNL     1       6.398   5.762  19.101  0.00  0.00    +0.000 A 
ATOM     23  C   UNL     1       7.519   6.206  18.400  0.00  0.00    +0.000 A 
ATOM     24  C   UNL     1       7.628   6.006  17.026  0.00  0.00    +0.000 A 
ATOM     25  C   UNL     1       6.589   5.318  16.391  0.00  0.00    +0.000 A 
ATOM     26  N   UNL     1       6.483   4.915  15.077  0.00  0.00    +0.000 N 
ATOM     27  C   UNL     1       5.312   4.239  14.883  0.00  0.00    +0.000 A 
ATOM     28  C   UNL     1       4.628   4.238  16.076  0.00  0.00    +0.000 A 
ATOM     29  C   UNL     1       5.430   4.902  17.057  0.00  0.00    +0.000 A 
ATOM     30  H   UNL     1       7.190   5.069  14.372  0.00  0.00    +0.000 HD
ENDBRANCH   7  21
TORSDOF 2
ENDMDL
MODEL 5
REMARK VINA RESULT:      -7.2      3.426      9.623
REMARK  Name = 
REMARK  2 active torsions:
REMARK  status: ('A' for Active; 'I' for Inactive)
REMARK    1  A    between atoms: C_2  and  C_3
REMARK    2  A    between atoms: C_16  and  C_18
REMARK                            x       y       z     vdW  Elec       q    Type
REMARK                         _______ _______ _______ _____ _____    ______ ____
ROOT
ATOM      1  O   UNL     1       2.881   8.557  17.159  0.00  0.00    +0.000 OA
ATOM      2  C   UNL     1       2.275   8.384  18.211  0.00  0.00    +0.000 C 
ATOM      3  N   UNL     1       1.667   9.454  18.876  0.00  0.00    +0.000 N 
ATOM      4  C   UNL     1       1.864  10.823  18.357  0.00  0.00    +0.000 C 
ATOM      5  C   UNL     1       0.534  11.565  18.120  0.00  0.00    +0.000 C 
ATOM      6  N   UNL     1      -0.357  11.440  19.285  0.00  0.00    +0.000 N 
ATOM      7  C   UNL     1      -0.798  12.594  19.938  0.00  0.00    +0.000 C 
ATOM      8  O   UNL     1      -0.521  13.711  19.501  0.00  0.00    +0.000 OA
ATOM      9  C   UNL     1      -0.624  10.046  19.631  0.00  0.00    +0.000 C 
ATOM     10  C   UNL     1       0.699   9.351  19.984  0.00  0.00    +0.000 C 
ENDROOT
BRANCH   2  11
ATOM     11  C   UNL     1       2.153   7.058  18.791  0.00  0.00    +0.000 A 
ATOM     12  C   UNL     1       2.210   6.709  20.131  0.00  0.00    +0.000 A 
ATOM     13  C   UNL     1       2.099   5.297  20.238  0.00  0.00    +0.000 A 
ATOM     14  C   UNL     1       2.136   4.386  21.311  0.00  0.00    +0.000 A 
ATOM     15  C   UNL     1       2.025   3.015  21.046  0.00  0.00    +0.000 A 
ATOM     16  C   UNL     1       1.895   2.550  19.739  0.00  0.00    +0.000 A 
ATOM     17  C   UNL     1       1.844   3.438  18.660  0.00  0.00    +0.000 A 
ATOM     18  C   UNL     1       1.932   4.805  18.947  0.00  0.00    +0.000 A 
ATOM     19  N   UNL     1       1.851   5.896  18.115  0.00  0.00    +0.000 N 
ATOM     20  H   UNL     1       1.655   5.842  17.125  0.00  0.00    +0.000 HD
ENDBRANCH   2  11
BRANCH   7  21
ATOM     21  C   UNL     1      -1.618  12.525  21.186  0.00  0.00    +0.000 A 
ATOM     22  C   UNL     1      -1.043  12.552  22.471  0.00  0.00    +0.000 A 
ATOM     23  C   UNL     1      -1.820  12.444  23.624  0.00  0.00    +0.000 A 
ATOM     24  C   UNL     1      -3.210  12.392  23.547  0.00  0.00    +0.000 A 
ATOM     25  C   UNL     1      -3.788  12.484  22.277  0.00  0.00    +0.000 A 
ATOM     26  N   UNL     1      -5.120  12.544  21.926  0.00  0.00    +0.000 N 
ATOM     27  C   UNL     1      -5.247  12.663  20.571  0.00  0.00    +0.000 A 
ATOM     28  C   UNL     1      -3.984  12.638  20.030  0.00  0.00    +0.000 A 
ATOM     29  C   UNL     1      -3.036  12.546  21.098  0.00  0.00    +0.000 A 
ATOM     30  H   UNL     1      -5.887  12.538  22.584  0.00  0.00    +0.000 HD
ENDBRANCH   7  21
TORSDOF 2
ENDMDL
MODEL 6
REMARK VINA RESULT:      -7.2      0.993      2.140
REMARK  Name = 
REMARK  2 active torsions:
REMARK  status: ('A' for Active; 'I' for Inactive)
REMARK    1  A    between atoms: C_2  and  C_3
REMARK    2  A    between atoms: C_16  and  C_18
REMARK                            x       y       z     vdW  Elec       q    Type
REMARK                         _______ _______ _______ _____ _____    ______ ____
ROOT
ATOM      1  O   UNL     1      -0.727   7.760  21.442  0.00  0.00    +0.000 OA
ATOM      2  C   UNL     1       0.267   8.243  20.910  0.00  0.00    +0.000 C 
ATOM      3  N   UNL     1       1.398   7.461  20.657  0.00  0.00    +0.000 N 
ATOM      4  C   UNL     1       1.429   6.068  21.146  0.00  0.00    +0.000 C 
ATOM      5  C   UNL     1       1.756   5.054  20.031  0.00  0.00    +0.000 C 
ATOM      6  N   UNL     1       2.925   5.488  19.249  0.00  0.00    +0.000 N 
ATOM      7  C   UNL     1       4.048   4.659  19.176  0.00  0.00    +0.000 C 
ATOM      8  O   UNL     1       4.039   3.538  19.685  0.00  0.00    +0.000 OA
ATOM      9  C   UNL     1       2.742   6.817  18.670  0.00  0.00    +0.000 C 
ATOM     10  C   UNL     1       2.539   7.836  19.800  0.00  0.00    +0.000 C 
ENDROOT
BRANCH   2  11
ATOM     11  C   UNL     1       0.294   9.639  20.510  0.00  0.00    +0.000 A 
ATOM     12  C   UNL     1       0.886  10.701  21.176  0.00  0.00    +0.000 A 
ATOM     13  C   UNL     1       0.619  11.895  20.454  0.00  0.00    +0.000 A 
ATOM     14  C   UNL     1       0.914  13.256  20.660  0.00  0.00    +0.000 A 
ATOM     15  C   UNL     1       0.455  14.202  19.735  0.00  0.00    +0.000 A 
ATOM     16  C   UNL     1      -0.299  13.810  18.631  0.00  0.00    +0.000 A 
ATOM     17  C   UNL     1      -0.595  12.463  18.401  0.00  0.00    +0.000 A 
ATOM     18  C   UNL     1      -0.106  11.530  19.323  0.00  0.00    +0.000 A 
ATOM     19  N   UNL     1      -0.182  10.158  19.326  0.00  0.00    +0.000 N 
ATOM     20  H   UNL     1      -0.590   9.610  18.582  0.00  0.00    +0.000 HD
ENDBRANCH   2  11
BRANCH   7  21
ATOM     21  C   UNL     1       5.300   5.091  18.484  0.00  0.00    +0.000 A 
ATOM     22  C   UNL     1       6.389   5.657  19.173  0.00  0.00    +0.000 A 
ATOM     23  C   UNL     1       7.533   6.094  18.505  0.00  0.00    +0.000 A 
ATOM     24  C   UNL     1       7.674   5.906  17.133  0.00  0.00    +0.000 A 
ATOM     25  C   UNL     1       6.643   5.238  16.464  0.00  0.00    +0.000 A 
ATOM     26  N   UNL     1       6.566   4.849  15.144  0.00  0.00    +0.000 N 
ATOM     27  C   UNL     1       5.392   4.189  14.913  0.00  0.00    +0.000 A 
ATOM     28  C   UNL     1       4.678   4.186  16.088  0.00  0.00    +0.000 A 
ATOM     29  C   UNL     1       5.463   4.829  17.096  0.00  0.00    +0.000 A 
ATOM     30  H   UNL     1       7.294   5.001  14.459  0.00  0.00    +0.000 HD
ENDBRANCH   7  21
TORSDOF 2
ENDMDL
MODEL 7
REMARK VINA RESULT:      -7.2      1.756      8.106
REMARK  Name = 
REMARK  2 active torsions:
REMARK  status: ('A' for Active; 'I' for Inactive)
REMARK    1  A    between atoms: C_2  and  C_3
REMARK    2  A    between atoms: C_16  and  C_18
REMARK                            x       y       z     vdW  Elec       q    Type
REMARK                         _______ _______ _______ _____ _____    ______ ____
ROOT
ATOM      1  O   UNL     1       3.052   4.564  20.506  0.00  0.00    +0.000 OA
ATOM      2  C   UNL     1       2.986   5.399  19.610  0.00  0.00    +0.000 C 
ATOM      3  N   UNL     1       2.081   6.462  19.683  0.00  0.00    +0.000 N 
ATOM      4  C   UNL     1       1.117   6.505  20.801  0.00  0.00    +0.000 C 
ATOM      5  C   UNL     1       1.154   7.843  21.566  0.00  0.00    +0.000 C 
ATOM      6  N   UNL     1       1.115   8.984  20.638  0.00  0.00    +0.000 N 
ATOM      7  C   UNL     1       0.080   9.917  20.741  0.00  0.00    +0.000 C 
ATOM      8  O   UNL     1      -0.748   9.843  21.649  0.00  0.00    +0.000 OA
ATOM      9  C   UNL     1       2.203   8.943  19.663  0.00  0.00    +0.000 C 
ATOM     10  C   UNL     1       2.080   7.662  18.825  0.00  0.00    +0.000 C 
ENDROOT
BRANCH   2  11
ATOM     11  C   UNL     1       3.860   5.319  18.452  0.00  0.00    +0.000 A 
ATOM     12  C   UNL     1       3.605   4.700  17.238  0.00  0.00    +0.000 A 
ATOM     13  C   UNL     1       4.757   4.821  16.416  0.00  0.00    +0.000 A 
ATOM     14  C   UNL     1       5.100   4.364  15.130  0.00  0.00    +0.000 A 
ATOM     15  C   UNL     1       6.375   4.645  14.623  0.00  0.00    +0.000 A 
ATOM     16  C   UNL     1       7.303   5.354  15.382  0.00  0.00    +0.000 A 
ATOM     17  C   UNL     1       6.980   5.828  16.658  0.00  0.00    +0.000 A 
ATOM     18  C   UNL     1       5.693   5.558  17.137  0.00  0.00    +0.000 A 
ATOM     19  N   UNL     1       5.081   5.941  18.306  0.00  0.00    +0.000 N 
ATOM     20  H   UNL     1       5.499   6.551  18.994  0.00  0.00    +0.000 HD
ENDBRANCH   2  11
BRANCH   7  21
ATOM     21  C   UNL     1      -0.069  11.037  19.763  0.00  0.00    +0.000 A 
ATOM     22  C   UNL     1       0.744  12.186  19.800  0.00  0.00    +0.000 A 
ATOM     23  C   UNL     1       0.564  13.241  18.905  0.00  0.00    +0.000 A 
ATOM     24  C   UNL     1      -0.377  13.156  17.881  0.00  0.00    +0.000 A 
ATOM     25  C   UNL     1      -1.104  11.967  17.771  0.00  0.00    +0.000 A 
ATOM     26  N   UNL     1      -2.021  11.589  16.814  0.00  0.00    +0.000 N 
ATOM     27  C   UNL     1      -2.472  10.324  17.064  0.00  0.00    +0.000 A 
ATOM     28  C   UNL     1      -1.873   9.889  18.222  0.00  0.00    +0.000 A 
ATOM     29  C   UNL     1      -0.980  10.910  18.680  0.00  0.00    +0.000 A 
ATOM     30  H   UNL     1      -2.289  12.158  16.022  0.00  0.00    +0.000 HD
ENDBRANCH   7  21
TORSDOF 2
ENDMDL
MODEL 8
REMARK VINA RESULT:      -7.0      1.355      7.966
REMARK  Name = 
REMARK  2 active torsions:
REMARK  status: ('A' for Active; 'I' for Inactive)
REMARK    1  A    between atoms: C_2  and  C_3
REMARK    2  A    between atoms: C_16  and  C_18
REMARK                            x       y       z     vdW  Elec       q    Type
REMARK                         _______ _______ _______ _____ _____    ______ ____
ROOT
ATOM      1  O   UNL     1       3.562   4.249  20.369  0.00  0.00    +0.000 OA
ATOM      2  C   UNL     1       3.326   5.016  19.442  0.00  0.00    +0.000 C 
ATOM      3  N   UNL     1       2.326   5.988  19.550  0.00  0.00    +0.000 N 
ATOM      4  C   UNL     1       1.471   6.004  20.754  0.00  0.00    +0.000 C 
ATOM      5  C   UNL     1       1.440   7.384  21.442  0.00  0.00    +0.000 C 
ATOM      6  N   UNL     1       1.196   8.456  20.464  0.00  0.00    +0.000 N 
ATOM      7  C   UNL     1       0.083   9.287  20.621  0.00  0.00    +0.000 C 
ATOM      8  O   UNL     1      -0.644   9.188  21.610  0.00  0.00    +0.000 OA
ATOM      9  C   UNL     1       2.185   8.463  19.389  0.00  0.00    +0.000 C 
ATOM     10  C   UNL     1       2.119   7.126  18.635  0.00  0.00    +0.000 C 
ENDROOT
BRANCH   2  11
ATOM     11  C   UNL     1       4.091   4.952  18.209  0.00  0.00    +0.000 A 
ATOM     12  C   UNL     1       3.761   4.283  17.040  0.00  0.00    +0.000 A 
ATOM     13  C   UNL     1       4.822   4.445  16.110  0.00  0.00    +0.000 A 
ATOM     14  C   UNL     1       5.070   3.970  14.809  0.00  0.00    +0.000 A 
ATOM     15  C   UNL     1       6.273   4.308  14.175  0.00  0.00    +0.000 A 
ATOM     16  C   UNL     1       7.224   5.092  14.826  0.00  0.00    +0.000 A 
ATOM     17  C   UNL     1       6.993   5.585  16.114  0.00  0.00    +0.000 A 
ATOM     18  C   UNL     1       5.775   5.256  16.720  0.00  0.00    +0.000 A 
ATOM     19  N   UNL     1       5.253   5.639  17.932  0.00  0.00    +0.000 N 
ATOM     20  H   UNL     1       5.696   6.293  18.561  0.00  0.00    +0.000 HD
ENDBRANCH   2  11
BRANCH   7  21
ATOM     21  C   UNL     1      -0.272  10.324  19.606  0.00  0.00    +0.000 A 
ATOM     22  C   UNL     1      -1.280  10.126  18.643  0.00  0.00    +0.000 A 
ATOM     23  C   UNL     1      -1.569  11.088  17.675  0.00  0.00    +0.000 A 
ATOM     24  C   UNL     1      -0.926  12.323  17.682  0.00  0.00    +0.000 A 
ATOM     25  C   UNL     1      -0.010  12.567  18.709  0.00  0.00    +0.000 A 
ATOM     26  N   UNL     1       0.692  13.718  18.999  0.00  0.00    +0.000 N 
ATOM     27  C   UNL     1       1.459  13.536  20.115  0.00  0.00    +0.000 A 
ATOM     28  C   UNL     1       1.285  12.238  20.533  0.00  0.00    +0.000 A 
ATOM     29  C   UNL     1       0.338  11.607  19.666  0.00  0.00    +0.000 A 
ATOM     30  H   UNL     1       0.619  14.580  18.477  0.00  0.00    +0.000 HD
ENDBRANCH   7  21
TORSDOF 2
ENDMDL
MODEL 9
REMARK VINA RESULT:      -7.0      3.820      9.654
REMARK  Name = 
REMARK  2 active torsions:
REMARK  status: ('A' for Active; 'I' for Inactive)
REMARK    1  A    between atoms: C_2  and  C_3
REMARK    2  A    between atoms: C_16  and  C_18
REMARK                            x       y       z     vdW  Elec       q    Type
REMARK                         _______ _______ _______ _____ _____    ______ ____
ROOT
ATOM      1  O   UNL     1       2.037   9.402  22.625  0.00  0.00    +0.000 OA
ATOM      2  C   UNL     1       1.269   9.021  21.748  0.00  0.00    +0.000 C 
ATOM      3  N   UNL     1       0.072   9.698  21.497  0.00  0.00    +0.000 N 
ATOM      4  C   UNL     1      -0.318  10.814  22.382  0.00  0.00    +0.000 C 
ATOM      5  C   UNL     1      -0.630  12.108  21.604  0.00  0.00    +0.000 C 
ATOM      6  N   UNL     1      -1.530  11.840  20.470  0.00  0.00    +0.000 N 
ATOM      7  C   UNL     1      -2.761  12.498  20.402  0.00  0.00    +0.000 C 
ATOM      8  O   UNL     1      -3.063  13.359  21.228  0.00  0.00    +0.000 OA
ATOM      9  C   UNL     1      -0.989  10.834  19.559  0.00  0.00    +0.000 C 
ATOM     10  C   UNL     1      -0.799   9.514  20.320  0.00  0.00    +0.000 C 
ENDROOT
BRANCH   2  11
ATOM     11  C   UNL     1       1.589   7.864  20.930  0.00  0.00    +0.000 A 
ATOM     12  C   UNL     1       2.165   7.849  19.669  0.00  0.00    +0.000 A 
ATOM     13  C   UNL     1       2.244   6.503  19.222  0.00  0.00    +0.000 A 
ATOM     14  C   UNL     1       2.681   5.886  18.035  0.00  0.00    +0.000 A 
ATOM     15  C   UNL     1       2.583   4.493  17.914  0.00  0.00    +0.000 A 
ATOM     16  C   UNL     1       2.047   3.725  18.945  0.00  0.00    +0.000 A 
ATOM     17  C   UNL     1       1.617   4.317  20.137  0.00  0.00    +0.000 A 
ATOM     18  C   UNL     1       1.746   5.706  20.249  0.00  0.00    +0.000 A 
ATOM     19  N   UNL     1       1.471   6.543  21.303  0.00  0.00    +0.000 N 
ATOM     20  H   UNL     1       1.165   6.229  22.213  0.00  0.00    +0.000 HD
ENDBRANCH   2  11
BRANCH   7  21
ATOM     21  C   UNL     1      -3.758  12.189  19.332  0.00  0.00    +0.000 A 
ATOM     22  C   UNL     1      -3.378  11.853  18.019  0.00  0.00    +0.000 A 
ATOM     23  C   UNL     1      -4.322  11.609  17.021  0.00  0.00    +0.000 A 
ATOM     24  C   UNL     1      -5.684  11.606  17.313  0.00  0.00    +0.000 A 
ATOM     25  C   UNL     1      -6.059  11.823  18.642  0.00  0.00    +0.000 A 
ATOM     26  N   UNL     1      -7.313  11.787  19.213  0.00  0.00    +0.000 N 
ATOM     27  C   UNL     1      -7.228  12.026  20.556  0.00  0.00    +0.000 A 
ATOM     28  C   UNL     1      -5.907  12.261  20.855  0.00  0.00    +0.000 A 
ATOM     29  C   UNL     1      -5.140  12.117  19.656  0.00  0.00    +0.000 A 
ATOM     30  H   UNL     1      -8.165  11.578  18.711  0.00  0.00    +0.000 HD
ENDBRANCH   7  21
TORSDOF 2
ENDMDL
