MODEL 1
REMARK VINA RESULT:      -9.1      0.000      0.000
REMARK  Name = 
REMARK  5 active torsions:
REMARK  status: ('A' for Active; 'I' for Inactive)
REMARK    1  A    between atoms: C_1  and  O_2
REMARK    2  A    between atoms: O_2  and  C_3
REMARK    3  A    between atoms: C_5  and  C_6
REMARK    4  A    between atoms: C_6  and  C_8
REMARK    5  A    between atoms: C_11  and  C_12
REMARK                            x       y       z     vdW  Elec       q    Type
REMARK                         _______ _______ _______ _____ _____    ______ ____
ROOT
ATOM      1  C   UNL     1       7.557   7.354  17.577  0.00  0.00    +0.000 A 
ATOM      2  C   UNL     1       8.241   7.215  18.768  0.00  0.00    +0.000 A 
ATOM      3  N   UNL     1       8.766   8.447  19.033  0.00  0.00    +0.000 N 
ATOM      4  C   UNL     1       8.320   9.314  18.069  0.00  0.00    +0.000 A 
ATOM      5  N   UNL     1       7.608   8.671  17.165  0.00  0.00    +0.000 NA
ATOM      6  H   UNL     1       9.354   8.700  19.812  0.00  0.00    +0.000 HD
ENDROOT
BRANCH   4   7
ATOM      7  C   UNL     1       8.600  10.774  18.046  0.00  0.00    +0.000 A 
ATOM      8  C   UNL     1       7.903  11.712  17.317  0.00  0.00    +0.000 A 
ATOM      9  N   UNL     1       8.460  12.939  17.580  0.00  0.00    +0.000 N 
ATOM     10  C   UNL     1       9.539  12.802  18.425  0.00  0.00    +0.000 A 
ATOM     11  C   UNL     1      10.421  13.769  18.925  0.00  0.00    +0.000 A 
ATOM     12  C   UNL     1      11.459  13.328  19.750  0.00  0.00    +0.000 A 
ATOM     13  C   UNL     1      11.602  11.985  20.078  0.00  0.00    +0.000 A 
ATOM     14  C   UNL     1      10.699  11.040  19.590  0.00  0.00    +0.000 A 
ATOM     15  C   UNL     1       9.648  11.448  18.739  0.00  0.00    +0.000 A 
ATOM     16  H   UNL     1       8.145  13.818  17.192  0.00  0.00    +0.000 HD
ENDBRANCH   4   7
BRANCH   1  17
ATOM     17  C   UNL     1       6.867   6.291  16.855  0.00  0.00    +0.000 C 
ATOM     18  O   UNL     1       7.324   5.809  15.818  0.00  0.00    +0.000 OA
BRANCH  17  21
ATOM     19  C   UNL     1       3.210   6.230  17.961  0.00  0.00    +0.000 A 
ATOM     20  C   UNL     1       4.482   6.703  17.608  0.00  0.00    +0.000 A 
ATOM     21  C   UNL     1       5.537   5.819  17.343  0.00  0.00    +0.000 A 
ATOM     22  C   UNL     1       5.305   4.441  17.421  0.00  0.00    +0.000 A 
ATOM     23  C   UNL     1       4.037   3.963  17.754  0.00  0.00    +0.000 A 
ATOM     24  C   UNL     1       2.987   4.850  18.044  0.00  0.00    +0.000 A 
ATOM     25  O   UNL     1       1.731   4.390  18.347  0.00  0.00    +0.000 OA
ATOM     26  C   UNL     1       1.732   3.018  18.741  0.00  0.00    +0.000 C 
ATOM     27  C   UNL     1       2.523   2.198  17.743  0.00  0.00    +0.000 C 
ATOM     28  O   UNL     1       3.898   2.595  17.757  0.00  0.00    +0.000 OA
BRANCH  19  30
ATOM     29  C   UNL     1       2.672   8.541  17.745  0.00  0.00    +0.000 C 
ATOM     30  O   UNL     1       2.278   7.226  18.116  0.00  0.00    +0.000 OA
ENDBRANCH  19  30
ENDBRANCH  17  21
ENDBRANCH   1  17
TORSDOF 4
ENDMDL
MODEL 2
REMARK VINA RESULT:      -9.1      4.590      7.298
REMARK  Name = 
REMARK  5 active torsions:
REMARK  status: ('A' for Active; 'I' for Inactive)
REMARK    1  A    between atoms: C_1  and  O_2
REMARK    2  A    between atoms: O_2  and  C_3
REMARK    3  A    between atoms: C_5  and  C_6
REMARK    4  A    between atoms: C_6  and  C_8
REMARK    5  A    between atoms: C_11  and  C_12
REMARK                            x       y       z     vdW  Elec       q    Type
REMARK                         _______ _______ _______ _____ _____    ______ ____
ROOT
ATOM      1  C   UNL     1       2.492   5.207  19.546  0.00  0.00    +0.000 A 
ATOM      2  C   UNL     1       2.135   5.133  20.878  0.00  0.00    +0.000 A 
ATOM      3  N   UNL     1       1.733   6.393  21.218  0.00  0.00    +0.000 N 
ATOM      4  C   UNL     1       1.763   7.168  20.088  0.00  0.00    +0.000 A 
ATOM      5  N   UNL     1       2.241   6.479  19.071  0.00  0.00    +0.000 NA
ATOM      6  H   UNL     1       1.435   6.708  22.129  0.00  0.00    +0.000 HD
ENDROOT
BRANCH   4   7
ATOM      7  C   UNL     1       1.318   8.584  20.019  0.00  0.00    +0.000 A 
ATOM      8  C   UNL     1       1.557   9.448  18.973  0.00  0.00    +0.000 A 
ATOM      9  N   UNL     1       0.972  10.650  19.286  0.00  0.00    +0.000 N 
ATOM     10  C   UNL     1       0.407  10.593  20.541  0.00  0.00    +0.000 A 
ATOM     11  C   UNL     1      -0.256  11.583  21.278  0.00  0.00    +0.000 A 
ATOM     12  C   UNL     1      -0.703  11.243  22.557  0.00  0.00    +0.000 A 
ATOM     13  C   UNL     1      -0.516   9.966  23.073  0.00  0.00    +0.000 A 
ATOM     14  C   UNL     1       0.125   8.986  22.315  0.00  0.00    +0.000 A 
ATOM     15  C   UNL     1       0.605   9.301  21.025  0.00  0.00    +0.000 A 
ATOM     16  H   UNL     1       0.975  11.472  18.698  0.00  0.00    +0.000 HD
ENDBRANCH   4   7
BRANCH   1  17
ATOM     17  C   UNL     1       3.038   4.119  18.742  0.00  0.00    +0.000 C 
ATOM     18  O   UNL     1       2.540   2.993  18.753  0.00  0.00    +0.000 OA
BRANCH  17  21
ATOM     19  C   UNL     1       6.694   4.628  17.754  0.00  0.00    +0.000 A 
ATOM     20  C   UNL     1       5.532   4.518  18.533  0.00  0.00    +0.000 A 
ATOM     21  C   UNL     1       4.274   4.354  17.938  0.00  0.00    +0.000 A 
ATOM     22  C   UNL     1       4.184   4.287  16.543  0.00  0.00    +0.000 A 
ATOM     23  C   UNL     1       5.338   4.378  15.763  0.00  0.00    +0.000 A 
ATOM     24  C   UNL     1       6.597   4.566  16.359  0.00  0.00    +0.000 A 
ATOM     25  O   UNL     1       7.739   4.632  15.603  0.00  0.00    +0.000 OA
ATOM     26  C   UNL     1       7.470   4.912  14.229  0.00  0.00    +0.000 C 
ATOM     27  C   UNL     1       6.381   3.991  13.721  0.00  0.00    +0.000 C 
ATOM     28  O   UNL     1       5.152   4.252  14.406  0.00  0.00    +0.000 OA
BRANCH  19  30
ATOM     29  C   UNL     1       8.042   5.901  19.251  0.00  0.00    +0.000 C 
ATOM     30  O   UNL     1       7.846   4.712  18.497  0.00  0.00    +0.000 OA
ENDBRANCH  19  30
ENDBRANCH  17  21
ENDBRANCH   1  17
TORSDOF 4
ENDMDL
MODEL 3
REMARK VINA RESULT:      -8.9      3.899      7.047
REMARK  Name = 
REMARK  5 active torsions:
REMARK  status: ('A' for Active; 'I' for Inactive)
REMARK    1  A    between atoms: C_1  and  O_2
REMARK    2  A    between atoms: O_2  and  C_3
REMARK    3  A    between atoms: C_5  and  C_6
REMARK    4  A    between atoms: C_6  and  C_8
REMARK    5  A    between atoms: C_11  and  C_12
REMARK                            x       y       z     vdW  Elec       q    Type
REMARK                         _______ _______ _______ _____ _____    ______ ____
ROOT
ATOM      1  C   UNL     1       3.221   5.308  18.745  0.00  0.00    +0.000 A 
ATOM      2  C   UNL     1       2.857   5.204  20.072  0.00  0.00    +0.000 A 
ATOM      3  N   UNL     1       2.311   6.413  20.396  0.00  0.00    +0.000 N 
ATOM      4  C   UNL     1       2.268   7.178  19.260  0.00  0.00    +0.000 A 
ATOM      5  N   UNL     1       2.834   6.540  18.255  0.00  0.00    +0.000 NA
ATOM      6  H   UNL     1       1.968   6.700  21.300  0.00  0.00    +0.000 HD
ENDROOT
BRANCH   4   7
ATOM      7  C   UNL     1       1.668   8.535  19.173  0.00  0.00    +0.000 A 
ATOM      8  C   UNL     1       1.714   9.361  18.072  0.00  0.00    +0.000 A 
ATOM      9  N   UNL     1       1.033  10.511  18.388  0.00  0.00    +0.000 N 
ATOM     10  C   UNL     1       0.595  10.462  19.693  0.00  0.00    +0.000 A 
ATOM     11  C   UNL     1      -0.101  11.416  20.448  0.00  0.00    +0.000 A 
ATOM     12  C   UNL     1      -0.389  11.101  21.778  0.00  0.00    +0.000 A 
ATOM     13  C   UNL     1      -0.017   9.879  22.328  0.00  0.00    +0.000 A 
ATOM     14  C   UNL     1       0.654   8.932  21.555  0.00  0.00    +0.000 A 
ATOM     15  C   UNL     1       0.976   9.226  20.211  0.00  0.00    +0.000 A 
ATOM     16  H   UNL     1       0.892  11.295  17.767  0.00  0.00    +0.000 HD
ENDBRANCH   4   7
BRANCH   1  17
ATOM     17  C   UNL     1       3.897   4.283  17.957  0.00  0.00    +0.000 C 
ATOM     18  O   UNL     1       3.715   3.083  18.164  0.00  0.00    +0.000 OA
BRANCH  17  21
ATOM     19  C   UNL     1       6.935   5.840  16.241  0.00  0.00    +0.000 A 
ATOM     20  C   UNL     1       5.955   5.555  17.204  0.00  0.00    +0.000 A 
ATOM     21  C   UNL     1       4.886   4.694  16.918  0.00  0.00    +0.000 A 
ATOM     22  C   UNL     1       4.809   4.102  15.652  0.00  0.00    +0.000 A 
ATOM     23  C   UNL     1       5.790   4.368  14.695  0.00  0.00    +0.000 A 
ATOM     24  C   UNL     1       6.848   5.250  14.974  0.00  0.00    +0.000 A 
ATOM     25  O   UNL     1       7.829   5.498  14.050  0.00  0.00    +0.000 OA
ATOM     26  C   UNL     1       7.438   5.134  12.726  0.00  0.00    +0.000 C 
ATOM     27  C   UNL     1       6.858   3.735  12.728  0.00  0.00    +0.000 C 
ATOM     28  O   UNL     1       5.653   3.701  13.500  0.00  0.00    +0.000 OA
BRANCH  19  30
ATOM     29  C   UNL     1       7.576   7.702  17.581  0.00  0.00    +0.000 C 
ATOM     30  O   UNL     1       7.945   6.643  16.708  0.00  0.00    +0.000 OA
ENDBRANCH  19  30
ENDBRANCH  17  21
ENDBRANCH   1  17
TORSDOF 4
ENDMDL
MODEL 4
REMARK VINA RESULT:      -8.8      6.074      9.372
REMARK  Name = 
REMARK  5 active torsions:
REMARK  status: ('A' for Active; 'I' for Inactive)
REMARK    1  A    between atoms: C_1  and  O_2
REMARK    2  A    between atoms: O_2  and  C_3
REMARK    3  A    between atoms: C_5  and  C_6
REMARK    4  A    between atoms: C_6  and  C_8
REMARK    5  A    between atoms: C_11  and  C_12
REMARK                            x       y       z     vdW  Elec       q    Type
REMARK                         _______ _______ _______ _____ _____    ______ ____
ROOT
ATOM      1  C   UNL     1       1.229   9.223  20.166  0.00  0.00    +0.000 A 
ATOM      2  C   UNL     1       1.203   8.345  21.231  0.00  0.00    +0.000 A 
ATOM      3  N   UNL     1       1.732   7.179  20.754  0.00  0.00    +0.000 N 
ATOM      4  C   UNL     1       2.146   7.396  19.466  0.00  0.00    +0.000 A 
ATOM      5  N   UNL     1       1.830   8.616  19.081  0.00  0.00    +0.000 NA
ATOM      6  H   UNL     1       1.834   6.311  21.257  0.00  0.00    +0.000 HD
ENDROOT
BRANCH   4   7
ATOM      7  C   UNL     1       2.852   6.396  18.623  0.00  0.00    +0.000 A 
ATOM      8  C   UNL     1       3.935   6.655  17.812  0.00  0.00    +0.000 A 
ATOM      9  N   UNL     1       4.300   5.472  17.218  0.00  0.00    +0.000 N 
ATOM     10  C   UNL     1       3.436   4.466  17.588  0.00  0.00    +0.000 A 
ATOM     11  C   UNL     1       3.399   3.119  17.202  0.00  0.00    +0.000 A 
ATOM     12  C   UNL     1       2.374   2.327  17.723  0.00  0.00    +0.000 A 
ATOM     13  C   UNL     1       1.435   2.847  18.607  0.00  0.00    +0.000 A 
ATOM     14  C   UNL     1       1.502   4.184  18.999  0.00  0.00    +0.000 A 
ATOM     15  C   UNL     1       2.515   5.018  18.478  0.00  0.00    +0.000 A 
ATOM     16  H   UNL     1       5.073   5.355  16.578  0.00  0.00    +0.000 HD
ENDBRANCH   4   7
BRANCH   1  17
ATOM     17  C   UNL     1       0.717  10.589  20.168  0.00  0.00    +0.000 C 
ATOM     18  O   UNL     1       1.314  11.503  20.737  0.00  0.00    +0.000 OA
BRANCH  17  21
ATOM     19  C   UNL     1      -2.706  12.106  19.407  0.00  0.00    +0.000 A 
ATOM     20  C   UNL     1      -1.526  11.766  20.085  0.00  0.00    +0.000 A 
ATOM     21  C   UNL     1      -0.597  10.878  19.523  0.00  0.00    +0.000 A 
ATOM     22  C   UNL     1      -0.853  10.338  18.258  0.00  0.00    +0.000 A 
ATOM     23  C   UNL     1      -2.017  10.685  17.570  0.00  0.00    +0.000 A 
ATOM     24  C   UNL     1      -2.959  11.556  18.145  0.00  0.00    +0.000 A 
ATOM     25  O   UNL     1      -4.093  11.923  17.467  0.00  0.00    +0.000 OA
ATOM     26  C   UNL     1      -4.395  11.040  16.387  0.00  0.00    +0.000 C 
ATOM     27  C   UNL     1      -3.156  10.814  15.547  0.00  0.00    +0.000 C 
ATOM     28  O   UNL     1      -2.154  10.140  16.315  0.00  0.00    +0.000 OA
BRANCH  19  30
ATOM     29  C   UNL     1      -4.346  12.557  21.076  0.00  0.00    +0.000 C 
ATOM     30  O   UNL     1      -3.467  13.039  20.067  0.00  0.00    +0.000 OA
ENDBRANCH  19  30
ENDBRANCH  17  21
ENDBRANCH   1  17
TORSDOF 4
ENDMDL
MODEL 5
REMARK VINA RESULT:      -8.8      6.190      9.630
REMARK  Name = 
REMARK  5 active torsions:
REMARK  status: ('A' for Active; 'I' for Inactive)
REMARK    1  A    between atoms: C_1  and  O_2
REMARK    2  A    between atoms: O_2  and  C_3
REMARK    3  A    between atoms: C_5  and  C_6
REMARK    4  A    between atoms: C_6  and  C_8
REMARK    5  A    between atoms: C_11  and  C_12
REMARK                            x       y       z     vdW  Elec       q    Type
REMARK                         _______ _______ _______ _____ _____    ______ ____
ROOT
ATOM      1  C   UNL     1       1.275   9.403  19.530  0.00  0.00    +0.000 A 
ATOM      2  C   UNL     1       1.124   9.020  20.848  0.00  0.00    +0.000 A 
ATOM      3  N   UNL     1       1.600   7.742  20.912  0.00  0.00    +0.000 N 
ATOM      4  C   UNL     1       2.108   7.416  19.682  0.00  0.00    +0.000 A 
ATOM      5  N   UNL     1       1.901   8.395  18.824  0.00  0.00    +0.000 NA
ATOM      6  H   UNL     1       1.612   7.140  21.722  0.00  0.00    +0.000 HD
ENDROOT
BRANCH   4   7
ATOM      7  C   UNL     1       2.796   6.138  19.360  0.00  0.00    +0.000 A 
ATOM      8  C   UNL     1       4.033   6.022  18.765  0.00  0.00    +0.000 A 
ATOM      9  N   UNL     1       4.317   4.683  18.656  0.00  0.00    +0.000 N 
ATOM     10  C   UNL     1       3.260   3.932  19.122  0.00  0.00    +0.000 A 
ATOM     11  C   UNL     1       3.093   2.542  19.169  0.00  0.00    +0.000 A 
ATOM     12  C   UNL     1       1.885   2.055  19.672  0.00  0.00    +0.000 A 
ATOM     13  C   UNL     1       0.892   2.915  20.128  0.00  0.00    +0.000 A 
ATOM     14  C   UNL     1       1.086   4.295  20.096  0.00  0.00    +0.000 A 
ATOM     15  C   UNL     1       2.289   4.823  19.577  0.00  0.00    +0.000 A 
ATOM     16  H   UNL     1       5.166   4.296  18.267  0.00  0.00    +0.000 HD
ENDBRANCH   4   7
BRANCH   1  17
ATOM     17  C   UNL     1       0.859  10.677  18.954  0.00  0.00    +0.000 C 
ATOM     18  O   UNL     1       1.649  11.610  18.805  0.00  0.00    +0.000 OA
BRANCH  17  21
ATOM     19  C   UNL     1      -2.569  10.308  17.307  0.00  0.00    +0.000 A 
ATOM     20  C   UNL     1      -1.195  10.179  17.554  0.00  0.00    +0.000 A 
ATOM     21  C   UNL     1      -0.575  10.884  18.596  0.00  0.00    +0.000 A 
ATOM     22  C   UNL     1      -1.352  11.717  19.409  0.00  0.00    +0.000 A 
ATOM     23  C   UNL     1      -2.724  11.837  19.180  0.00  0.00    +0.000 A 
ATOM     24  C   UNL     1      -3.339  11.150  18.120  0.00  0.00    +0.000 A 
ATOM     25  O   UNL     1      -4.690  11.241  17.903  0.00  0.00    +0.000 OA
ATOM     26  C   UNL     1      -5.273  12.373  18.549  0.00  0.00    +0.000 C 
ATOM     27  C   UNL     1      -4.821  12.428  19.993  0.00  0.00    +0.000 C 
ATOM     28  O   UNL     1      -3.407  12.642  20.061  0.00  0.00    +0.000 OA
BRANCH  19  30
ATOM     29  C   UNL     1      -2.994  10.030  14.980  0.00  0.00    +0.000 C 
ATOM     30  O   UNL     1      -3.024   9.497  16.298  0.00  0.00    +0.000 OA
ENDBRANCH  19  30
ENDBRANCH  17  21
ENDBRANCH   1  17
TORSDOF 4
ENDMDL
MODEL 6
REMARK VINA RESULT:      -8.8      1.247      1.267
REMARK  Name = 
REMARK  5 active torsions:
REMARK  status: ('A' for Active; 'I' for Inactive)
REMARK    1  A    between atoms: C_1  and  O_2
REMARK    2  A    between atoms: O_2  and  C_3
REMARK    3  A    between atoms: C_5  and  C_6
REMARK    4  A    between atoms: C_6  and  C_8
REMARK    5  A    between atoms: C_11  and  C_12
REMARK                            x       y       z     vdW  Elec       q    Type
REMARK                         _______ _______ _______ _____ _____    ______ ____
ROOT
ATOM      1  C   UNL     1       7.870   7.909  17.763  0.00  0.00    +0.000 A 
ATOM      2  C   UNL     1       8.574   7.932  18.951  0.00  0.00    +0.000 A 
ATOM      3  N   UNL     1       9.046   9.207  19.070  0.00  0.00    +0.000 N 
ATOM      4  C   UNL     1       8.551   9.943  18.024  0.00  0.00    +0.000 A 
ATOM      5  N   UNL     1       7.858   9.174  17.209  0.00  0.00    +0.000 NA
ATOM      6  H   UNL     1       9.633   9.570  19.806  0.00  0.00    +0.000 HD
ENDROOT
BRANCH   4   7
ATOM      7  C   UNL     1       8.766  11.402  17.837  0.00  0.00    +0.000 A 
ATOM      8  C   UNL     1       7.803  12.310  17.457  0.00  0.00    +0.000 A 
ATOM      9  N   UNL     1       8.396  13.548  17.414  0.00  0.00    +0.000 N 
ATOM     10  C   UNL     1       9.738  13.445  17.706  0.00  0.00    +0.000 A 
ATOM     11  C   UNL     1      10.732  14.432  17.741  0.00  0.00    +0.000 A 
ATOM     12  C   UNL     1      12.034  14.024  18.043  0.00  0.00    +0.000 A 
ATOM     13  C   UNL     1      12.330  12.694  18.317  0.00  0.00    +0.000 A 
ATOM     14  C   UNL     1      11.323  11.730  18.301  0.00  0.00    +0.000 A 
ATOM     15  C   UNL     1       9.999  12.104  17.982  0.00  0.00    +0.000 A 
ATOM     16  H   UNL     1       7.927  14.412  17.176  0.00  0.00    +0.000 HD
ENDBRANCH   4   7
BRANCH   1  17
ATOM     17  C   UNL     1       7.219   6.744  17.173  0.00  0.00    +0.000 C 
ATOM     18  O   UNL     1       7.610   6.250  16.116  0.00  0.00    +0.000 OA
BRANCH  17  21
ATOM     19  C   UNL     1       3.596   6.164  18.242  0.00  0.00    +0.000 A 
ATOM     20  C   UNL     1       4.741   6.774  17.709  0.00  0.00    +0.000 A 
ATOM     21  C   UNL     1       6.004   6.176  17.829  0.00  0.00    +0.000 A 
ATOM     22  C   UNL     1       6.113   4.943  18.481  0.00  0.00    +0.000 A 
ATOM     23  C   UNL     1       4.975   4.322  18.999  0.00  0.00    +0.000 A 
ATOM     24  C   UNL     1       3.714   4.933  18.899  0.00  0.00    +0.000 A 
ATOM     25  O   UNL     1       2.586   4.320  19.381  0.00  0.00    +0.000 OA
ATOM     26  C   UNL     1       2.885   3.282  20.315  0.00  0.00    +0.000 C 
ATOM     27  C   UNL     1       3.953   2.372  19.746  0.00  0.00    +0.000 C 
ATOM     28  O   UNL     1       5.178   3.091  19.578  0.00  0.00    +0.000 OA
BRANCH  19  30
ATOM     29  C   UNL     1       2.082   7.892  18.870  0.00  0.00    +0.000 C 
ATOM     30  O   UNL     1       2.436   6.847  17.974  0.00  0.00    +0.000 OA
ENDBRANCH  19  30
ENDBRANCH  17  21
ENDBRANCH   1  17
TORSDOF 4
ENDMDL
MODEL 7
REMARK VINA RESULT:      -8.7      6.068      9.433
REMARK  Name = 
REMARK  5 active torsions:
REMARK  status: ('A' for Active; 'I' for Inactive)
REMARK    1  A    between atoms: C_1  and  O_2
REMARK    2  A    between atoms: O_2  and  C_3
REMARK    3  A    between atoms: C_5  and  C_6
REMARK    4  A    between atoms: C_6  and  C_8
REMARK    5  A    between atoms: C_11  and  C_12
REMARK                            x       y       z     vdW  Elec       q    Type
REMARK                         _______ _______ _______ _____ _____    ______ ____
ROOT
ATOM      1  C   UNL     1       1.560   8.880  19.368  0.00  0.00    +0.000 A 
ATOM      2  C   UNL     1       1.297   8.529  20.677  0.00  0.00    +0.000 A 
ATOM      3  N   UNL     1       1.779   7.259  20.817  0.00  0.00    +0.000 N 
ATOM      4  C   UNL     1       2.397   6.908  19.645  0.00  0.00    +0.000 A 
ATOM      5  N   UNL     1       2.256   7.862  18.747  0.00  0.00    +0.000 NA
ATOM      6  H   UNL     1       1.725   6.679  21.640  0.00  0.00    +0.000 HD
ENDROOT
BRANCH   4   7
ATOM      7  C   UNL     1       3.124   5.631  19.419  0.00  0.00    +0.000 A 
ATOM      8  C   UNL     1       4.492   5.491  19.346  0.00  0.00    +0.000 A 
ATOM      9  N   UNL     1       4.762   4.160  19.145  0.00  0.00    +0.000 N 
ATOM     10  C   UNL     1       3.589   3.447  19.033  0.00  0.00    +0.000 A 
ATOM     11  C   UNL     1       3.382   2.083  18.788  0.00  0.00    +0.000 A 
ATOM     12  C   UNL     1       2.061   1.638  18.693  0.00  0.00    +0.000 A 
ATOM     13  C   UNL     1       0.991   2.511  18.855  0.00  0.00    +0.000 A 
ATOM     14  C   UNL     1       1.216   3.861  19.122  0.00  0.00    +0.000 A 
ATOM     15  C   UNL     1       2.540   4.348  19.207  0.00  0.00    +0.000 A 
ATOM     16  H   UNL     1       5.686   3.758  19.063  0.00  0.00    +0.000 HD
ENDBRANCH   4   7
BRANCH   1  17
ATOM     17  C   UNL     1       1.183  10.134  18.723  0.00  0.00    +0.000 C 
ATOM     18  O   UNL     1       2.022  10.881  18.220  0.00  0.00    +0.000 OA
BRANCH  17  21
ATOM     19  C   UNL     1      -2.074  11.928  19.604  0.00  0.00    +0.000 A 
ATOM     20  C   UNL     1      -0.754  11.459  19.681  0.00  0.00    +0.000 A 
ATOM     21  C   UNL     1      -0.248  10.559  18.733  0.00  0.00    +0.000 A 
ATOM     22  C   UNL     1      -1.077  10.136  17.687  0.00  0.00    +0.000 A 
ATOM     23  C   UNL     1      -2.386  10.612  17.595  0.00  0.00    +0.000 A 
ATOM     24  C   UNL     1      -2.899  11.496  18.559  0.00  0.00    +0.000 A 
ATOM     25  O   UNL     1      -4.175  11.989  18.464  0.00  0.00    +0.000 OA
ATOM     26  C   UNL     1      -4.997  11.214  17.591  0.00  0.00    +0.000 C 
ATOM     27  C   UNL     1      -4.272  10.972  16.284  0.00  0.00    +0.000 C 
ATOM     28  O   UNL     1      -3.104  10.176  16.506  0.00  0.00    +0.000 OA
BRANCH  19  30
ATOM     29  C   UNL     1      -2.295  12.432  21.922  0.00  0.00    +0.000 C 
ATOM     30  O   UNL     1      -2.383  12.856  20.568  0.00  0.00    +0.000 OA
ENDBRANCH  19  30
ENDBRANCH  17  21
ENDBRANCH   1  17
TORSDOF 4
ENDMDL
MODEL 8
REMARK VINA RESULT:      -8.6      5.216      8.220
REMARK  Name = 
REMARK  5 active torsions:
REMARK  status: ('A' for Active; 'I' for Inactive)
REMARK    1  A    between atoms: C_1  and  O_2
REMARK    2  A    between atoms: O_2  and  C_3
REMARK    3  A    between atoms: C_5  and  C_6
REMARK    4  A    between atoms: C_6  and  C_8
REMARK    5  A    between atoms: C_11  and  C_12
REMARK                            x       y       z     vdW  Elec       q    Type
REMARK                         _______ _______ _______ _____ _____    ______ ____
ROOT
ATOM      1  C   UNL     1       1.960   8.451  18.659  0.00  0.00    +0.000 A 
ATOM      2  C   UNL     1       1.807   8.257  20.017  0.00  0.00    +0.000 A 
ATOM      3  N   UNL     1       0.781   9.077  20.390  0.00  0.00    +0.000 N 
ATOM      4  C   UNL     1       0.278   9.668  19.260  0.00  0.00    +0.000 A 
ATOM      5  N   UNL     1       0.990   9.324  18.205  0.00  0.00    +0.000 NA
ATOM      6  H   UNL     1       0.422   9.213  21.323  0.00  0.00    +0.000 HD
ENDROOT
BRANCH   4   7
ATOM      7  C   UNL     1      -0.903  10.570  19.228  0.00  0.00    +0.000 A 
ATOM      8  C   UNL     1      -1.208  11.523  20.175  0.00  0.00    +0.000 A 
ATOM      9  N   UNL     1      -2.363  12.149  19.775  0.00  0.00    +0.000 N 
ATOM     10  C   UNL     1      -2.837  11.580  18.614  0.00  0.00    +0.000 A 
ATOM     11  C   UNL     1      -3.991  11.868  17.874  0.00  0.00    +0.000 A 
ATOM     12  C   UNL     1      -4.238  11.094  16.737  0.00  0.00    +0.000 A 
ATOM     13  C   UNL     1      -3.362  10.089  16.343  0.00  0.00    +0.000 A 
ATOM     14  C   UNL     1      -2.205   9.833  17.078  0.00  0.00    +0.000 A 
ATOM     15  C   UNL     1      -1.934  10.585  18.243  0.00  0.00    +0.000 A 
ATOM     16  H   UNL     1      -2.819  12.903  20.270  0.00  0.00    +0.000 HD
ENDBRANCH   4   7
BRANCH   1  17
ATOM     17  C   UNL     1       2.972   7.830  17.811  0.00  0.00    +0.000 C 
ATOM     18  O   UNL     1       3.495   8.438  16.877  0.00  0.00    +0.000 OA
BRANCH  17  21
ATOM     19  C   UNL     1       4.946   4.667  18.645  0.00  0.00    +0.000 A 
ATOM     20  C   UNL     1       4.647   6.000  18.329  0.00  0.00    +0.000 A 
ATOM     21  C   UNL     1       3.336   6.400  18.036  0.00  0.00    +0.000 A 
ATOM     22  C   UNL     1       2.310   5.449  18.075  0.00  0.00    +0.000 A 
ATOM     23  C   UNL     1       2.597   4.124  18.405  0.00  0.00    +0.000 A 
ATOM     24  C   UNL     1       3.916   3.719  18.675  0.00  0.00    +0.000 A 
ATOM     25  O   UNL     1       4.205   2.425  19.025  0.00  0.00    +0.000 OA
ATOM     26  C   UNL     1       3.160   1.517  18.674  0.00  0.00    +0.000 C 
ATOM     27  C   UNL     1       1.828   2.059  19.149  0.00  0.00    +0.000 C 
ATOM     28  O   UNL     1       1.516   3.276  18.463  0.00  0.00    +0.000 OA
BRANCH  19  30
ATOM     29  C   UNL     1       7.229   4.746  17.970  0.00  0.00    +0.000 C 
ATOM     30  O   UNL     1       6.263   4.463  18.974  0.00  0.00    +0.000 OA
ENDBRANCH  19  30
ENDBRANCH  17  21
ENDBRANCH   1  17
TORSDOF 4
ENDMDL
MODEL 9
REMARK VINA RESULT:      -8.5      6.093      9.530
REMARK  Name = 
REMARK  5 active torsions:
REMARK  status: ('A' for Active; 'I' for Inactive)
REMARK    1  A    between atoms: C_1  and  O_2
REMARK    2  A    between atoms: O_2  and  C_3
REMARK    3  A    between atoms: C_5  and  C_6
REMARK    4  A    between atoms: C_6  and  C_8
REMARK    5  A    between atoms: C_11  and  C_12
REMARK                            x       y       z     vdW  Elec       q    Type
REMARK                         _______ _______ _______ _____ _____    ______ ____
ROOT
ATOM      1  C   UNL     1       1.355   9.286  19.019  0.00  0.00    +0.000 A 
ATOM      2  C   UNL     1       1.860   9.293  17.734  0.00  0.00    +0.000 A 
ATOM      3  N   UNL     1       2.641   8.176  17.644  0.00  0.00    +0.000 N 
ATOM      4  C   UNL     1       2.521   7.478  18.817  0.00  0.00    +0.000 A 
ATOM      5  N   UNL     1       1.769   8.142  19.672  0.00  0.00    +0.000 NA
ATOM      6  H   UNL     1       3.191   7.885  16.851  0.00  0.00    +0.000 HD
ENDROOT
BRANCH   4   7
ATOM      7  C   UNL     1       3.150   6.159  19.087  0.00  0.00    +0.000 A 
ATOM      8  C   UNL     1       4.427   5.792  18.723  0.00  0.00    +0.000 A 
ATOM      9  N   UNL     1       4.631   4.508  19.167  0.00  0.00    +0.000 N 
ATOM     10  C   UNL     1       3.488   4.022  19.763  0.00  0.00    +0.000 A 
ATOM     11  C   UNL     1       3.227   2.762  20.318  0.00  0.00    +0.000 A 
ATOM     12  C   UNL     1       1.947   2.538  20.831  0.00  0.00    +0.000 A 
ATOM     13  C   UNL     1       0.974   3.532  20.810  0.00  0.00    +0.000 A 
ATOM     14  C   UNL     1       1.261   4.787  20.275  0.00  0.00    +0.000 A 
ATOM     15  C   UNL     1       2.540   5.043  19.731  0.00  0.00    +0.000 A 
ATOM     16  H   UNL     1       5.485   3.980  19.053  0.00  0.00    +0.000 HD
ENDBRANCH   4   7
BRANCH   1  17
ATOM     17  C   UNL     1       0.503  10.311  19.612  0.00  0.00    +0.000 C 
ATOM     18  O   UNL     1       0.811  10.885  20.656  0.00  0.00    +0.000 OA
BRANCH  17  21
ATOM     19  C   UNL     1      -2.517  10.239  17.272  0.00  0.00    +0.000 A 
ATOM     20  C   UNL     1      -1.234  10.009  17.791  0.00  0.00    +0.000 A 
ATOM     21  C   UNL     1      -0.810  10.627  18.976  0.00  0.00    +0.000 A 
ATOM     22  C   UNL     1      -1.693  11.475  19.654  0.00  0.00    +0.000 A 
ATOM     23  C   UNL     1      -2.977  11.695  19.152  0.00  0.00    +0.000 A 
ATOM     24  C   UNL     1      -3.392  11.094  17.951  0.00  0.00    +0.000 A 
ATOM     25  O   UNL     1      -4.660  11.283  17.463  0.00  0.00    +0.000 OA
ATOM     26  C   UNL     1      -5.302  12.423  18.035  0.00  0.00    +0.000 C 
ATOM     27  C   UNL     1      -5.162  12.388  19.543  0.00  0.00    +0.000 C 
ATOM     28  O   UNL     1      -3.785  12.505  19.915  0.00  0.00    +0.000 OA
BRANCH  19  30
ATOM     29  C   UNL     1      -2.855  10.207  14.914  0.00  0.00    +0.000 C 
ATOM     30  O   UNL     1      -2.793   9.502  16.147  0.00  0.00    +0.000 OA
ENDBRANCH  19  30
ENDBRANCH  17  21
ENDBRANCH   1  17
TORSDOF 4
ENDMDL
