MODEL 1
REMARK VINA RESULT:      -7.6      0.000      0.000
REMARK  Name = 
REMARK  11 active torsions:
REMARK  status: ('A' for Active; 'I' for Inactive)
REMARK    1  A    between atoms: C_1  and  S_2
REMARK    2  A    between atoms: S_2  and  C_3
REMARK    3  A    between atoms: C_6  and  C_7
REMARK    4  A    between atoms: C_7  and  C_8
REMARK    5  A    between atoms: C_8  and  C_9
REMARK    6  A    between atoms: C_8  and  N_10
REMARK    7  A    between atoms: N_10  and  C_11
REMARK    8  A    between atoms: C_11  and  C_12
REMARK    9  A    between atoms: C_15  and  O_16
REMARK   10  A    between atoms: O_16  and  C_17
REMARK   11  A    between atoms: C_17  and  C_18
REMARK                            x       y       z     vdW  Elec       q    Type
REMARK                         _______ _______ _______ _____ _____    ______ ____
ROOT
ATOM      1  C   UNL     1       5.479   4.254  19.090  0.00  0.00    +0.000 C 
ENDROOT
BRANCH   1   2
ATOM      2  C   UNL     1       6.248   5.485  18.684  0.00  0.00    +0.000 A 
ATOM      3  C   UNL     1       5.749   6.295  17.658  0.00  0.00    +0.000 A 
ATOM      4  C   UNL     1       6.453   7.415  17.235  0.00  0.00    +0.000 A 
ATOM      5  C   UNL     1       7.654   7.760  17.855  0.00  0.00    +0.000 A 
ATOM      6  C   UNL     1       8.183   6.938  18.849  0.00  0.00    +0.000 A 
ATOM      7  C   UNL     1       7.481   5.807  19.270  0.00  0.00    +0.000 A 
BRANCH   5   8
ATOM      8  O   UNL     1       8.381   8.877  17.553  0.00  0.00    +0.000 OA
BRANCH   8   9
ATOM      9  C   UNL     1       8.866   9.586  18.694  0.00  0.00    +0.000 C 
BRANCH   9  10
ATOM     10  C   UNL     1       9.455  10.885  18.225  0.00  0.00    +0.000 A 
ATOM     11  C   UNL     1      10.842  11.076  18.202  0.00  0.00    +0.000 A 
ATOM     12  C   UNL     1      11.374  12.292  17.780  0.00  0.00    +0.000 A 
ATOM     13  C   UNL     1      10.526  13.327  17.384  0.00  0.00    +0.000 A 
ATOM     14  C   UNL     1       9.145  13.149  17.412  0.00  0.00    +0.000 A 
ATOM     15  C   UNL     1       8.609  11.934  17.833  0.00  0.00    +0.000 A 
ENDBRANCH   9  10
ENDBRANCH   8   9
ENDBRANCH   5   8
ENDBRANCH   1   2
BRANCH   1  16
ATOM     16  N   UNL     1       4.744   3.649  17.973  0.00  0.00    +0.000 NA
ATOM     17  H   UNL     1       4.841   4.250  17.155  0.00  0.00    +0.000 HD
BRANCH  16  18
ATOM     18  C   UNL     1       3.311   3.412  18.245  0.00  0.00    +0.000 C 
ATOM     19  C   UNL     1       2.934   2.076  17.591  0.00  0.00    +0.000 C 
BRANCH  18  20
ATOM     20  C   UNL     1       2.423   4.567  17.730  0.00  0.00    +0.000 C 
BRANCH  20  24
ATOM     21  C   UNL     1       1.706   7.805  20.492  0.00  0.00    +0.000 A 
ATOM     22  C   UNL     1       2.066   8.078  19.169  0.00  0.00    +0.000 A 
ATOM     23  C   UNL     1       2.311   7.035  18.276  0.00  0.00    +0.000 A 
ATOM     24  C   UNL     1       2.221   5.703  18.705  0.00  0.00    +0.000 A 
ATOM     25  C   UNL     1       1.876   5.432  20.030  0.00  0.00    +0.000 A 
ATOM     26  C   UNL     1       1.626   6.477  20.919  0.00  0.00    +0.000 A 
BRANCH  21  28
ATOM     27  C   UNL     1      -0.418   8.795  21.906  0.00  0.00    +0.000 C 
ATOM     28  S   UNL     1       1.347   9.117  21.640  0.00  0.00    +0.000 S 
ENDBRANCH  21  28
ENDBRANCH  20  24
ENDBRANCH  18  20
ENDBRANCH  16  18
ENDBRANCH   1  16
TORSDOF 9
ENDMDL
MODEL 2
REMARK VINA RESULT:      -7.3      5.003      8.439
REMARK  Name = 
REMARK  11 active torsions:
REMARK  status: ('A' for Active; 'I' for Inactive)
REMARK    1  A    between atoms: C_1  and  S_2
REMARK    2  A    between atoms: S_2  and  C_3
REMARK    3  A    between atoms: C_6  and  C_7
REMARK    4  A    between atoms: C_7  and  C_8
REMARK    5  A    between atoms: C_8  and  C_9
REMARK    6  A    between atoms: C_8  and  N_10
REMARK    7  A    between atoms: N_10  and  C_11
REMARK    8  A    between atoms: C_11  and  C_12
REMARK    9  A    between atoms: C_15  and  O_16
REMARK   10  A    between atoms: O_16  and  C_17
REMARK   11  A    between atoms: C_17  and  C_18
REMARK                            x       y       z     vdW  Elec       q    Type
REMARK                         _______ _______ _______ _____ _____    ______ ____
ROOT
ATOM      1  C   UNL     1       3.165   6.471  19.228  0.00  0.00    +0.000 C 
ENDROOT
BRANCH   1   2
ATOM      2  C   UNL     1       2.305   7.706  19.147  0.00  0.00    +0.000 A 
ATOM      3  C   UNL     1       2.317   8.470  17.974  0.00  0.00    +0.000 A 
ATOM      4  C   UNL     1       1.565   9.635  17.882  0.00  0.00    +0.000 A 
ATOM      5  C   UNL     1       0.764  10.035  18.952  0.00  0.00    +0.000 A 
ATOM      6  C   UNL     1       0.776   9.306  20.140  0.00  0.00    +0.000 A 
ATOM      7  C   UNL     1       1.538   8.140  20.237  0.00  0.00    +0.000 A 
BRANCH   5   8
ATOM      8  O   UNL     1      -0.059  11.127  18.928  0.00  0.00    +0.000 OA
BRANCH   8   9
ATOM      9  C   UNL     1      -1.396  10.861  19.353  0.00  0.00    +0.000 C 
BRANCH   9  10
ATOM     10  C   UNL     1      -2.271  10.791  18.135  0.00  0.00    +0.000 A 
ATOM     11  C   UNL     1      -1.917   9.988  17.044  0.00  0.00    +0.000 A 
ATOM     12  C   UNL     1      -2.730   9.946  15.913  0.00  0.00    +0.000 A 
ATOM     13  C   UNL     1      -3.897  10.708  15.862  0.00  0.00    +0.000 A 
ATOM     14  C   UNL     1      -4.252  11.517  16.939  0.00  0.00    +0.000 A 
ATOM     15  C   UNL     1      -3.442  11.562  18.071  0.00  0.00    +0.000 A 
ENDBRANCH   9  10
ENDBRANCH   8   9
ENDBRANCH   5   8
ENDBRANCH   1   2
BRANCH   1  16
ATOM     16  N   UNL     1       2.806   5.600  20.353  0.00  0.00    +0.000 NA
ATOM     17  H   UNL     1       3.552   5.639  21.046  0.00  0.00    +0.000 HD
BRANCH  16  18
ATOM     18  C   UNL     1       2.551   4.194  19.977  0.00  0.00    +0.000 C 
ATOM     19  C   UNL     1       1.718   3.562  21.101  0.00  0.00    +0.000 C 
BRANCH  18  20
ATOM     20  C   UNL     1       3.861   3.412  19.733  0.00  0.00    +0.000 C 
BRANCH  20  24
ATOM     21  C   UNL     1       6.119   4.462  16.208  0.00  0.00    +0.000 A 
ATOM     22  C   UNL     1       6.652   4.697  17.479  0.00  0.00    +0.000 A 
ATOM     23  C   UNL     1       5.922   4.371  18.621  0.00  0.00    +0.000 A 
ATOM     24  C   UNL     1       4.635   3.827  18.504  0.00  0.00    +0.000 A 
ATOM     25  C   UNL     1       4.097   3.606  17.234  0.00  0.00    +0.000 A 
ATOM     26  C   UNL     1       4.833   3.928  16.094  0.00  0.00    +0.000 A 
BRANCH  21  28
ATOM     27  C   UNL     1       6.134   3.804  13.552  0.00  0.00    +0.000 C 
ATOM     28  S   UNL     1       7.048   4.830  14.735  0.00  0.00    +0.000 S 
ENDBRANCH  21  28
ENDBRANCH  20  24
ENDBRANCH  18  20
ENDBRANCH  16  18
ENDBRANCH   1  16
TORSDOF 9
ENDMDL
MODEL 3
REMARK VINA RESULT:      -7.3      1.372      2.184
REMARK  Name = 
REMARK  11 active torsions:
REMARK  status: ('A' for Active; 'I' for Inactive)
REMARK    1  A    between atoms: C_1  and  S_2
REMARK    2  A    between atoms: S_2  and  C_3
REMARK    3  A    between atoms: C_6  and  C_7
REMARK    4  A    between atoms: C_7  and  C_8
REMARK    5  A    between atoms: C_8  and  C_9
REMARK    6  A    between atoms: C_8  and  N_10
REMARK    7  A    between atoms: N_10  and  C_11
REMARK    8  A    between atoms: C_11  and  C_12
REMARK    9  A    between atoms: C_15  and  O_16
REMARK   10  A    between atoms: O_16  and  C_17
REMARK   11  A    between atoms: C_17  and  C_18
REMARK                            x       y       z     vdW  Elec       q    Type
REMARK                         _______ _______ _______ _____ _____    ______ ____
ROOT
ATOM      1  C   UNL     1       4.904   4.393  17.407  0.00  0.00    +0.000 C 
ENDROOT
BRANCH   1   2
ATOM      2  C   UNL     1       5.956   5.433  17.696  0.00  0.00    +0.000 A 
ATOM      3  C   UNL     1       6.916   5.178  18.682  0.00  0.00    +0.000 A 
ATOM      4  C   UNL     1       7.876   6.132  18.998  0.00  0.00    +0.000 A 
ATOM      5  C   UNL     1       7.909   7.344  18.308  0.00  0.00    +0.000 A 
ATOM      6  C   UNL     1       6.932   7.627  17.354  0.00  0.00    +0.000 A 
ATOM      7  C   UNL     1       5.962   6.673  17.041  0.00  0.00    +0.000 A 
BRANCH   5   8
ATOM      8  O   UNL     1       8.854   8.312  18.503  0.00  0.00    +0.000 OA
BRANCH   8   9
ATOM      9  C   UNL     1       8.423   9.628  18.154  0.00  0.00    +0.000 C 
BRANCH   9  10
ATOM     10  C   UNL     1       9.382  10.613  18.758  0.00  0.00    +0.000 A 
ATOM     11  C   UNL     1       9.396  10.842  20.139  0.00  0.00    +0.000 A 
ATOM     12  C   UNL     1      10.279  11.771  20.686  0.00  0.00    +0.000 A 
ATOM     13  C   UNL     1      11.151  12.479  19.857  0.00  0.00    +0.000 A 
ATOM     14  C   UNL     1      11.138  12.262  18.481  0.00  0.00    +0.000 A 
ATOM     15  C   UNL     1      10.255  11.336  17.932  0.00  0.00    +0.000 A 
ENDBRANCH   9  10
ENDBRANCH   8   9
ENDBRANCH   5   8
ENDBRANCH   1   2
BRANCH   1  16
ATOM     16  N   UNL     1       4.208   3.938  18.616  0.00  0.00    +0.000 NA
ATOM     17  H   UNL     1       3.715   3.071  18.402  0.00  0.00    +0.000 HD
BRANCH  16  18
ATOM     18  C   UNL     1       3.260   4.921  19.179  0.00  0.00    +0.000 C 
ATOM     19  C   UNL     1       2.095   4.135  19.796  0.00  0.00    +0.000 C 
BRANCH  18  20
ATOM     20  C   UNL     1       2.765   5.926  18.114  0.00  0.00    +0.000 C 
BRANCH  20  24
ATOM     21  C   UNL     1       1.192   9.621  19.695  0.00  0.00    +0.000 A 
ATOM     22  C   UNL     1       1.409   8.530  20.543  0.00  0.00    +0.000 A 
ATOM     23  C   UNL     1       1.906   7.330  20.035  0.00  0.00    +0.000 A 
ATOM     24  C   UNL     1       2.169   7.200  18.664  0.00  0.00    +0.000 A 
ATOM     25  C   UNL     1       1.937   8.284  17.815  0.00  0.00    +0.000 A 
ATOM     26  C   UNL     1       1.445   9.485  18.328  0.00  0.00    +0.000 A 
BRANCH  21  28
ATOM     27  C   UNL     1      -0.023  10.619  21.935  0.00  0.00    +0.000 C 
ATOM     28  S   UNL     1       0.598  11.176  20.325  0.00  0.00    +0.000 S 
ENDBRANCH  21  28
ENDBRANCH  20  24
ENDBRANCH  18  20
ENDBRANCH  16  18
ENDBRANCH   1  16
TORSDOF 9
ENDMDL
MODEL 4
REMARK VINA RESULT:      -7.1      1.519      2.150
REMARK  Name = 
REMARK  11 active torsions:
REMARK  status: ('A' for Active; 'I' for Inactive)
REMARK    1  A    between atoms: C_1  and  S_2
REMARK    2  A    between atoms: S_2  and  C_3
REMARK    3  A    between atoms: C_6  and  C_7
REMARK    4  A    between atoms: C_7  and  C_8
REMARK    5  A    between atoms: C_8  and  C_9
REMARK    6  A    between atoms: C_8  and  N_10
REMARK    7  A    between atoms: N_10  and  C_11
REMARK    8  A    between atoms: C_11  and  C_12
REMARK    9  A    between atoms: C_15  and  O_16
REMARK   10  A    between atoms: O_16  and  C_17
REMARK   11  A    between atoms: C_17  and  C_18
REMARK                            x       y       z     vdW  Elec       q    Type
REMARK                         _______ _______ _______ _____ _____    ______ ____
ROOT
ATOM      1  C   UNL     1       4.706   4.073  17.966  0.00  0.00    +0.000 C 
ENDROOT
BRANCH   1   2
ATOM      2  C   UNL     1       5.766   5.142  18.042  0.00  0.00    +0.000 A 
ATOM      3  C   UNL     1       6.588   5.209  19.173  0.00  0.00    +0.000 A 
ATOM      4  C   UNL     1       7.549   6.206  19.290  0.00  0.00    +0.000 A 
ATOM      5  C   UNL     1       7.723   7.132  18.262  0.00  0.00    +0.000 A 
ATOM      6  C   UNL     1       6.883   7.101  17.150  0.00  0.00    +0.000 A 
ATOM      7  C   UNL     1       5.911   6.106  17.034  0.00  0.00    +0.000 A 
BRANCH   5   8
ATOM      8  O   UNL     1       8.684   8.104  18.259  0.00  0.00    +0.000 OA
BRANCH   8   9
ATOM      9  C   UNL     1       8.181   9.424  18.053  0.00  0.00    +0.000 C 
BRANCH   9  10
ATOM     10  C   UNL     1       9.183  10.400  18.599  0.00  0.00    +0.000 A 
ATOM     11  C   UNL     1      10.016  11.126  17.739  0.00  0.00    +0.000 A 
ATOM     12  C   UNL     1      10.953  12.016  18.260  0.00  0.00    +0.000 A 
ATOM     13  C   UNL     1      11.068  12.183  19.641  0.00  0.00    +0.000 A 
ATOM     14  C   UNL     1      10.249  11.457  20.503  0.00  0.00    +0.000 A 
ATOM     15  C   UNL     1       9.312  10.566  19.986  0.00  0.00    +0.000 A 
ENDBRANCH   9  10
ENDBRANCH   8   9
ENDBRANCH   5   8
ENDBRANCH   1   2
BRANCH   1  16
ATOM     16  N   UNL     1       3.709   4.183  19.036  0.00  0.00    +0.000 NA
ATOM     17  H   UNL     1       3.381   3.248  19.275  0.00  0.00    +0.000 HD
BRANCH  16  18
ATOM     18  C   UNL     1       2.554   5.043  18.706  0.00  0.00    +0.000 C 
ATOM     19  C   UNL     1       1.695   4.287  17.683  0.00  0.00    +0.000 C 
BRANCH  18  20
ATOM     20  C   UNL     1       2.993   6.424  18.169  0.00  0.00    +0.000 C 
BRANCH  20  24
ATOM     21  C   UNL     1       0.762   9.720  19.839  0.00  0.00    +0.000 A 
ATOM     22  C   UNL     1       1.054   9.691  18.472  0.00  0.00    +0.000 A 
ATOM     23  C   UNL     1       1.785   8.635  17.930  0.00  0.00    +0.000 A 
ATOM     24  C   UNL     1       2.255   7.604  18.756  0.00  0.00    +0.000 A 
ATOM     25  C   UNL     1       1.976   7.641  20.124  0.00  0.00    +0.000 A 
ATOM     26  C   UNL     1       1.239   8.697  20.662  0.00  0.00    +0.000 A 
BRANCH  21  28
ATOM     27  C   UNL     1       0.913  12.425  20.222  0.00  0.00    +0.000 C 
ATOM     28  S   UNL     1      -0.205  11.035  20.549  0.00  0.00    +0.000 S 
ENDBRANCH  21  28
ENDBRANCH  20  24
ENDBRANCH  18  20
ENDBRANCH  16  18
ENDBRANCH   1  16
TORSDOF 9
ENDMDL
MODEL 5
REMARK VINA RESULT:      -7.1      1.344      1.953
REMARK  Name = 
REMARK  11 active torsions:
REMARK  status: ('A' for Active; 'I' for Inactive)
REMARK    1  A    between atoms: C_1  and  S_2
REMARK    2  A    between atoms: S_2  and  C_3
REMARK    3  A    between atoms: C_6  and  C_7
REMARK    4  A    between atoms: C_7  and  C_8
REMARK    5  A    between atoms: C_8  and  C_9
REMARK    6  A    between atoms: C_8  and  N_10
REMARK    7  A    between atoms: N_10  and  C_11
REMARK    8  A    between atoms: C_11  and  C_12
REMARK    9  A    between atoms: C_15  and  O_16
REMARK   10  A    between atoms: O_16  and  C_17
REMARK   11  A    between atoms: C_17  and  C_18
REMARK                            x       y       z     vdW  Elec       q    Type
REMARK                         _______ _______ _______ _____ _____    ______ ____
ROOT
ATOM      1  C   UNL     1       5.082   3.927  16.405  0.00  0.00    +0.000 C 
ENDROOT
BRANCH   1   2
ATOM      2  C   UNL     1       5.943   5.026  16.976  0.00  0.00    +0.000 A 
ATOM      3  C   UNL     1       5.744   6.342  16.544  0.00  0.00    +0.000 A 
ATOM      4  C   UNL     1       6.545   7.371  17.022  0.00  0.00    +0.000 A 
ATOM      5  C   UNL     1       7.538   7.103  17.966  0.00  0.00    +0.000 A 
ATOM      6  C   UNL     1       7.773   5.790  18.372  0.00  0.00    +0.000 A 
ATOM      7  C   UNL     1       6.974   4.753  17.886  0.00  0.00    +0.000 A 
BRANCH   5   8
ATOM      8  O   UNL     1       8.328   8.058  18.542  0.00  0.00    +0.000 OA
BRANCH   8   9
ATOM      9  C   UNL     1       8.278   9.328  17.890  0.00  0.00    +0.000 C 
BRANCH   9  10
ATOM     10  C   UNL     1       9.139  10.286  18.663  0.00  0.00    +0.000 A 
ATOM     11  C   UNL     1       9.144  10.275  20.063  0.00  0.00    +0.000 A 
ATOM     12  C   UNL     1       9.934  11.180  20.767  0.00  0.00    +0.000 A 
ATOM     13  C   UNL     1      10.721  12.105  20.079  0.00  0.00    +0.000 A 
ATOM     14  C   UNL     1      10.715  12.129  18.686  0.00  0.00    +0.000 A 
ATOM     15  C   UNL     1       9.925  11.226  17.979  0.00  0.00    +0.000 A 
ENDBRANCH   9  10
ENDBRANCH   8   9
ENDBRANCH   5   8
ENDBRANCH   1   2
BRANCH   1  16
ATOM     16  N   UNL     1       4.871   2.822  17.347  0.00  0.00    +0.000 NA
ATOM     17  H   UNL     1       4.784   1.955  16.819  0.00  0.00    +0.000 HD
BRANCH  16  18
ATOM     18  C   UNL     1       3.694   2.988  18.225  0.00  0.00    +0.000 C 
ATOM     19  C   UNL     1       2.604   3.690  17.404  0.00  0.00    +0.000 C 
BRANCH  18  20
ATOM     20  C   UNL     1       4.034   3.776  19.510  0.00  0.00    +0.000 C 
BRANCH  20  24
ATOM     21  C   UNL     1       1.449   7.081  20.518  0.00  0.00    +0.000 A 
ATOM     22  C   UNL     1       1.269   5.837  21.130  0.00  0.00    +0.000 A 
ATOM     23  C   UNL     1       2.093   4.763  20.799  0.00  0.00    +0.000 A 
ATOM     24  C   UNL     1       3.096   4.915  19.830  0.00  0.00    +0.000 A 
ATOM     25  C   UNL     1       3.265   6.153  19.208  0.00  0.00    +0.000 A 
ATOM     26  C   UNL     1       2.442   7.228  19.546  0.00  0.00    +0.000 A 
BRANCH  21  28
ATOM     27  C   UNL     1       1.490   9.211  22.235  0.00  0.00    +0.000 C 
ATOM     28  S   UNL     1       0.437   8.480  20.953  0.00  0.00    +0.000 S 
ENDBRANCH  21  28
ENDBRANCH  20  24
ENDBRANCH  18  20
ENDBRANCH  16  18
ENDBRANCH   1  16
TORSDOF 9
ENDMDL
MODEL 6
REMARK VINA RESULT:      -7.0      1.000      1.428
REMARK  Name = 
REMARK  11 active torsions:
REMARK  status: ('A' for Active; 'I' for Inactive)
REMARK    1  A    between atoms: C_1  and  S_2
REMARK    2  A    between atoms: S_2  and  C_3
REMARK    3  A    between atoms: C_6  and  C_7
REMARK    4  A    between atoms: C_7  and  C_8
REMARK    5  A    between atoms: C_8  and  C_9
REMARK    6  A    between atoms: C_8  and  N_10
REMARK    7  A    between atoms: N_10  and  C_11
REMARK    8  A    between atoms: C_11  and  C_12
REMARK    9  A    between atoms: C_15  and  O_16
REMARK   10  A    between atoms: O_16  and  C_17
REMARK   11  A    between atoms: C_17  and  C_18
REMARK                            x       y       z     vdW  Elec       q    Type
REMARK                         _______ _______ _______ _____ _____    ______ ____
ROOT
ATOM      1  C   UNL     1       5.538   4.276  18.778  0.00  0.00    +0.000 C 
ENDROOT
BRANCH   1   2
ATOM      2  C   UNL     1       6.339   5.523  18.501  0.00  0.00    +0.000 A 
ATOM      3  C   UNL     1       5.923   6.389  17.483  0.00  0.00    +0.000 A 
ATOM      4  C   UNL     1       6.660   7.526  17.178  0.00  0.00    +0.000 A 
ATOM      5  C   UNL     1       7.809   7.831  17.909  0.00  0.00    +0.000 A 
ATOM      6  C   UNL     1       8.256   6.954  18.896  0.00  0.00    +0.000 A 
ATOM      7  C   UNL     1       7.522   5.806  19.199  0.00  0.00    +0.000 A 
BRANCH   5   8
ATOM      8  O   UNL     1       8.558   8.959  17.726  0.00  0.00    +0.000 OA
BRANCH   8   9
ATOM      9  C   UNL     1       8.969   9.592  18.938  0.00  0.00    +0.000 C 
BRANCH   9  10
ATOM     10  C   UNL     1       9.531  10.942  18.597  0.00  0.00    +0.000 A 
ATOM     11  C   UNL     1       8.773  11.871  17.874  0.00  0.00    +0.000 A 
ATOM     12  C   UNL     1       9.313  13.114  17.550  0.00  0.00    +0.000 A 
ATOM     13  C   UNL     1      10.614  13.434  17.939  0.00  0.00    +0.000 A 
ATOM     14  C   UNL     1      11.378  12.512  18.651  0.00  0.00    +0.000 A 
ATOM     15  C   UNL     1      10.842  11.269  18.976  0.00  0.00    +0.000 A 
ENDBRANCH   9  10
ENDBRANCH   8   9
ENDBRANCH   5   8
ENDBRANCH   1   2
BRANCH   1  16
ATOM     16  N   UNL     1       4.453   4.071  17.812  0.00  0.00    +0.000 NA
ATOM     17  H   UNL     1       4.704   4.528  16.937  0.00  0.00    +0.000 HD
BRANCH  16  18
ATOM     18  C   UNL     1       3.135   4.562  18.265  0.00  0.00    +0.000 C 
ATOM     19  C   UNL     1       2.110   3.456  17.980  0.00  0.00    +0.000 C 
BRANCH  18  20
ATOM     20  C   UNL     1       2.743   5.890  17.580  0.00  0.00    +0.000 C 
BRANCH  20  24
ATOM     21  C   UNL     1       1.285   8.956  20.246  0.00  0.00    +0.000 A 
ATOM     22  C   UNL     1       1.441   9.226  18.883  0.00  0.00    +0.000 A 
ATOM     23  C   UNL     1       1.923   8.243  18.019  0.00  0.00    +0.000 A 
ATOM     24  C   UNL     1       2.279   6.981  18.516  0.00  0.00    +0.000 A 
ATOM     25  C   UNL     1       2.138   6.717  19.880  0.00  0.00    +0.000 A 
ATOM     26  C   UNL     1       1.650   7.701  20.740  0.00  0.00    +0.000 A 
BRANCH  21  28
ATOM     27  C   UNL     1       0.986  11.672  20.394  0.00  0.00    +0.000 C 
ATOM     28  S   UNL     1       0.633  10.180  21.362  0.00  0.00    +0.000 S 
ENDBRANCH  21  28
ENDBRANCH  20  24
ENDBRANCH  18  20
ENDBRANCH  16  18
ENDBRANCH   1  16
TORSDOF 9
ENDMDL
MODEL 7
REMARK VINA RESULT:      -7.0      1.235      1.933
REMARK  Name = 
REMARK  11 active torsions:
REMARK  status: ('A' for Active; 'I' for Inactive)
REMARK    1  A    between atoms: C_1  and  S_2
REMARK    2  A    between atoms: S_2  and  C_3
REMARK    3  A    between atoms: C_6  and  C_7
REMARK    4  A    between atoms: C_7  and  C_8
REMARK    5  A    between atoms: C_8  and  C_9
REMARK    6  A    between atoms: C_8  and  N_10
REMARK    7  A    between atoms: N_10  and  C_11
REMARK    8  A    between atoms: C_11  and  C_12
REMARK    9  A    between atoms: C_15  and  O_16
REMARK   10  A    between atoms: O_16  and  C_17
REMARK   11  A    between atoms: C_17  and  C_18
REMARK                            x       y       z     vdW  Elec       q    Type
REMARK                         _______ _______ _______ _____ _____    ______ ____
ROOT
ATOM      1  C   UNL     1       5.213   4.072  17.068  0.00  0.00    +0.000 C 
ENDROOT
BRANCH   1   2
ATOM      2  C   UNL     1       6.118   5.200  17.494  0.00  0.00    +0.000 A 
ATOM      3  C   UNL     1       6.071   6.413  16.798  0.00  0.00    +0.000 A 
ATOM      4  C   UNL     1       6.920   7.458  17.142  0.00  0.00    +0.000 A 
ATOM      5  C   UNL     1       7.806   7.315  18.210  0.00  0.00    +0.000 A 
ATOM      6  C   UNL     1       7.892   6.098  18.883  0.00  0.00    +0.000 A 
ATOM      7  C   UNL     1       7.046   5.043  18.534  0.00  0.00    +0.000 A 
BRANCH   5   8
ATOM      8  O   UNL     1       8.629   8.309  18.662  0.00  0.00    +0.000 OA
BRANCH   8   9
ATOM      9  C   UNL     1       8.426   9.571  18.026  0.00  0.00    +0.000 C 
BRANCH   9  10
ATOM     10  C   UNL     1       9.358  10.568  18.652  0.00  0.00    +0.000 A 
ATOM     11  C   UNL     1       9.473  10.663  20.044  0.00  0.00    +0.000 A 
ATOM     12  C   UNL     1      10.329  11.604  20.613  0.00  0.00    +0.000 A 
ATOM     13  C   UNL     1      11.070  12.459  19.796  0.00  0.00    +0.000 A 
ATOM     14  C   UNL     1      10.955  12.377  18.410  0.00  0.00    +0.000 A 
ATOM     15  C   UNL     1      10.099  11.438  17.839  0.00  0.00    +0.000 A 
ENDBRANCH   9  10
ENDBRANCH   8   9
ENDBRANCH   5   8
ENDBRANCH   1   2
BRANCH   1  16
ATOM     16  N   UNL     1       4.824   3.202  18.183  0.00  0.00    +0.000 NA
ATOM     17  H   UNL     1       5.410   2.368  18.165  0.00  0.00    +0.000 HD
BRANCH  16  18
ATOM     18  C   UNL     1       3.401   2.807  18.180  0.00  0.00    +0.000 C 
ATOM     19  C   UNL     1       2.763   3.395  16.914  0.00  0.00    +0.000 C 
BRANCH  18  20
ATOM     20  C   UNL     1       2.665   3.274  19.456  0.00  0.00    +0.000 C 
BRANCH  20  24
ATOM     21  C   UNL     1       1.794   7.499  19.591  0.00  0.00    +0.000 A 
ATOM     22  C   UNL     1       1.523   6.690  20.699  0.00  0.00    +0.000 A 
ATOM     23  C   UNL     1       1.790   5.322  20.656  0.00  0.00    +0.000 A 
ATOM     24  C   UNL     1       2.313   4.742  19.491  0.00  0.00    +0.000 A 
ATOM     25  C   UNL     1       2.570   5.548  18.380  0.00  0.00    +0.000 A 
ATOM     26  C   UNL     1       2.306   6.917  18.429  0.00  0.00    +0.000 A 
BRANCH  21  28
ATOM     27  C   UNL     1       1.989   9.671  17.939  0.00  0.00    +0.000 C 
ATOM     28  S   UNL     1       1.501   9.254  19.635  0.00  0.00    +0.000 S 
ENDBRANCH  21  28
ENDBRANCH  20  24
ENDBRANCH  18  20
ENDBRANCH  16  18
ENDBRANCH   1  16
TORSDOF 9
ENDMDL
MODEL 8
REMARK VINA RESULT:      -7.0      3.859      6.789
REMARK  Name = 
REMARK  11 active torsions:
REMARK  status: ('A' for Active; 'I' for Inactive)
REMARK    1  A    between atoms: C_1  and  S_2
REMARK    2  A    between atoms: S_2  and  C_3
REMARK    3  A    between atoms: C_6  and  C_7
REMARK    4  A    between atoms: C_7  and  C_8
REMARK    5  A    between atoms: C_8  and  C_9
REMARK    6  A    between atoms: C_8  and  N_10
REMARK    7  A    between atoms: N_10  and  C_11
REMARK    8  A    between atoms: C_11  and  C_12
REMARK    9  A    between atoms: C_15  and  O_16
REMARK   10  A    between atoms: O_16  and  C_17
REMARK   11  A    between atoms: C_17  and  C_18
REMARK                            x       y       z     vdW  Elec       q    Type
REMARK                         _______ _______ _______ _____ _____    ______ ____
ROOT
ATOM      1  C   UNL     1       1.911   5.105  20.694  0.00  0.00    +0.000 C 
ENDROOT
BRANCH   1   2
ATOM      2  C   UNL     1       1.823   6.493  20.112  0.00  0.00    +0.000 A 
ATOM      3  C   UNL     1       2.349   6.733  18.838  0.00  0.00    +0.000 A 
ATOM      4  C   UNL     1       2.318   8.009  18.290  0.00  0.00    +0.000 A 
ATOM      5  C   UNL     1       1.730   9.059  18.996  0.00  0.00    +0.000 A 
ATOM      6  C   UNL     1       1.241   8.841  20.283  0.00  0.00    +0.000 A 
ATOM      7  C   UNL     1       1.279   7.561  20.840  0.00  0.00    +0.000 A 
BRANCH   5   8
ATOM      8  O   UNL     1       1.594  10.329  18.511  0.00  0.00    +0.000 OA
BRANCH   8   9
ATOM      9  C   UNL     1       0.287  10.881  18.674  0.00  0.00    +0.000 C 
BRANCH   9  10
ATOM     10  C   UNL     1       0.431  12.312  19.104  0.00  0.00    +0.000 A 
ATOM     11  C   UNL     1      -0.267  13.331  18.445  0.00  0.00    +0.000 A 
ATOM     12  C   UNL     1      -0.112  14.657  18.843  0.00  0.00    +0.000 A 
ATOM     13  C   UNL     1       0.746  14.975  19.897  0.00  0.00    +0.000 A 
ATOM     14  C   UNL     1       1.451  13.968  20.553  0.00  0.00    +0.000 A 
ATOM     15  C   UNL     1       1.298  12.642  20.157  0.00  0.00    +0.000 A 
ENDBRANCH   9  10
ENDBRANCH   8   9
ENDBRANCH   5   8
ENDBRANCH   1   2
BRANCH   1  16
ATOM     16  N   UNL     1       1.312   4.085  19.826  0.00  0.00    +0.000 NA
ATOM     17  H   UNL     1       0.299   4.195  19.845  0.00  0.00    +0.000 HD
BRANCH  16  18
ATOM     18  C   UNL     1       1.666   2.696  20.184  0.00  0.00    +0.000 C 
ATOM     19  C   UNL     1       2.205   2.715  21.621  0.00  0.00    +0.000 C 
BRANCH  18  20
ATOM     20  C   UNL     1       2.690   2.086  19.201  0.00  0.00    +0.000 C 
BRANCH  20  24
ATOM     21  C   UNL     1       5.527   4.793  17.398  0.00  0.00    +0.000 A 
ATOM     22  C   UNL     1       5.684   4.397  18.729  0.00  0.00    +0.000 A 
ATOM     23  C   UNL     1       4.763   3.532  19.321  0.00  0.00    +0.000 A 
ATOM     24  C   UNL     1       3.658   3.072  18.590  0.00  0.00    +0.000 A 
ATOM     25  C   UNL     1       3.494   3.480  17.265  0.00  0.00    +0.000 A 
ATOM     26  C   UNL     1       4.420   4.341  16.675  0.00  0.00    +0.000 A 
BRANCH  21  28
ATOM     27  C   UNL     1       7.525   6.533  18.082  0.00  0.00    +0.000 C 
ATOM     28  S   UNL     1       6.710   5.863  16.607  0.00  0.00    +0.000 S 
ENDBRANCH  21  28
ENDBRANCH  20  24
ENDBRANCH  18  20
ENDBRANCH  16  18
ENDBRANCH   1  16
TORSDOF 9
ENDMDL
MODEL 9
REMARK VINA RESULT:      -6.9      4.424      6.185
REMARK  Name = 
REMARK  11 active torsions:
REMARK  status: ('A' for Active; 'I' for Inactive)
REMARK    1  A    between atoms: C_1  and  S_2
REMARK    2  A    between atoms: S_2  and  C_3
REMARK    3  A    between atoms: C_6  and  C_7
REMARK    4  A    between atoms: C_7  and  C_8
REMARK    5  A    between atoms: C_8  and  C_9
REMARK    6  A    between atoms: C_8  and  N_10
REMARK    7  A    between atoms: N_10  and  C_11
REMARK    8  A    between atoms: C_11  and  C_12
REMARK    9  A    between atoms: C_15  and  O_16
REMARK   10  A    between atoms: O_16  and  C_17
REMARK   11  A    between atoms: C_17  and  C_18
REMARK                            x       y       z     vdW  Elec       q    Type
REMARK                         _______ _______ _______ _____ _____    ______ ____
ROOT
ATOM      1  C   UNL     1       1.741   5.141  20.833  0.00  0.00    +0.000 C 
ENDROOT
BRANCH   1   2
ATOM      2  C   UNL     1       1.797   6.462  20.109  0.00  0.00    +0.000 A 
ATOM      3  C   UNL     1       1.249   7.597  20.717  0.00  0.00    +0.000 A 
ATOM      4  C   UNL     1       1.250   8.821  20.060  0.00  0.00    +0.000 A 
ATOM      5  C   UNL     1       1.829   8.934  18.796  0.00  0.00    +0.000 A 
ATOM      6  C   UNL     1       2.340   7.803  18.163  0.00  0.00    +0.000 A 
ATOM      7  C   UNL     1       2.332   6.570  18.818  0.00  0.00    +0.000 A 
BRANCH   5   8
ATOM      8  O   UNL     1       1.936  10.108  18.103  0.00  0.00    +0.000 OA
BRANCH   8   9
ATOM      9  C   UNL     1       1.025  11.122  18.526  0.00  0.00    +0.000 C 
BRANCH   9  10
ATOM     10  C   UNL     1       1.822  12.288  19.036  0.00  0.00    +0.000 A 
ATOM     11  C   UNL     1       1.829  12.610  20.398  0.00  0.00    +0.000 A 
ATOM     12  C   UNL     1       2.560  13.704  20.855  0.00  0.00    +0.000 A 
ATOM     13  C   UNL     1       3.283  14.487  19.955  0.00  0.00    +0.000 A 
ATOM     14  C   UNL     1       3.275  14.179  18.596  0.00  0.00    +0.000 A 
ATOM     15  C   UNL     1       2.545  13.086  18.136  0.00  0.00    +0.000 A 
ENDBRANCH   9  10
ENDBRANCH   8   9
ENDBRANCH   5   8
ENDBRANCH   1   2
BRANCH   1  16
ATOM     16  N   UNL     1       1.207   4.058  20.001  0.00  0.00    +0.000 NA
ATOM     17  H   UNL     1       0.190   4.133  19.982  0.00  0.00    +0.000 HD
BRANCH  16  18
ATOM     18  C   UNL     1       1.595   2.703  20.441  0.00  0.00    +0.000 C 
ATOM     19  C   UNL     1       2.265   2.840  21.815  0.00  0.00    +0.000 C 
BRANCH  18  20
ATOM     20  C   UNL     1       2.525   2.005  19.423  0.00  0.00    +0.000 C 
BRANCH  20  24
ATOM     21  C   UNL     1       5.235   4.722  17.449  0.00  0.00    +0.000 A 
ATOM     22  C   UNL     1       4.207   4.108  16.727  0.00  0.00    +0.000 A 
ATOM     23  C   UNL     1       3.336   3.220  17.357  0.00  0.00    +0.000 A 
ATOM     24  C   UNL     1       3.500   2.917  18.717  0.00  0.00    +0.000 A 
ATOM     25  C   UNL     1       4.536   3.519  19.433  0.00  0.00    +0.000 A 
ATOM     26  C   UNL     1       5.402   4.411  18.800  0.00  0.00    +0.000 A 
BRANCH  21  28
ATOM     27  C   UNL     1       6.924   4.869  15.301  0.00  0.00    +0.000 C 
ATOM     28  S   UNL     1       6.334   5.891  16.678  0.00  0.00    +0.000 S 
ENDBRANCH  21  28
ENDBRANCH  20  24
ENDBRANCH  18  20
ENDBRANCH  16  18
ENDBRANCH   1  16
TORSDOF 9
ENDMDL
