MODEL 1
REMARK VINA RESULT:      -7.0      0.000      0.000
REMARK  Name = 
REMARK  3 active torsions:
REMARK  status: ('A' for Active; 'I' for Inactive)
REMARK    1  A    between atoms: S_2  and  C_4
REMARK    2  A    between atoms: S_2  and  N_10
REMARK    3  A    between atoms: C_14  and  C_15
REMARK                            x       y       z     vdW  Elec       q    Type
REMARK                         _______ _______ _______ _____ _____    ______ ____
ROOT
ATOM      1  N   UNL     1       6.103   4.406  17.283  0.00  0.00    +0.000 N 
ATOM      2  C   UNL     1       6.477   4.941  18.655  0.00  0.00    +0.000 C 
ATOM      3  C   UNL     1       5.509   4.280  19.633  0.00  0.00    +0.000 C 
ATOM      4  C   UNL     1       4.288   4.172  18.736  0.00  0.00    +0.000 A 
ATOM      5  C   UNL     1       3.028   3.747  19.151  0.00  0.00    +0.000 A 
ATOM      6  C   UNL     1       2.749   2.408  18.882  0.00  0.00    +0.000 A 
ATOM      7  C   UNL     1       3.488   1.753  17.881  0.00  0.00    +0.000 A 
ATOM      8  C   UNL     1       4.474   2.444  17.134  0.00  0.00    +0.000 A 
ATOM      9  C   UNL     1       4.835   3.721  17.539  0.00  0.00    +0.000 A 
ENDROOT
BRANCH   5  10
ATOM     10  C   UNL     1       1.837   4.725  18.924  0.00  0.00    +0.000 C 
ATOM     11  C   UNL     1       2.201   6.052  18.233  0.00  0.00    +0.000 C 
ATOM     12  C   UNL     1       2.854   7.046  19.183  0.00  0.00    +0.000 C 
ATOM     13  N   UNL     1       2.021   7.310  20.356  0.00  0.00    +0.000 NA
ATOM     14  C   UNL     1       1.664   6.076  21.059  0.00  0.00    +0.000 C 
ATOM     15  C   UNL     1       0.987   5.049  20.155  0.00  0.00    +0.000 C 
ATOM     16  H   UNL     1       1.170   7.782  20.050  0.00  0.00    +0.000 HD
ENDBRANCH   5  10
BRANCH   1  18
ATOM     17  O   UNL     1       6.956   6.715  16.356  0.00  0.00    +0.000 OA
ATOM     18  S   UNL     1       5.918   5.728  16.124  0.00  0.00    +0.000 S 
ATOM     19  O   UNL     1       4.534   6.120  16.084  0.00  0.00    +0.000 OA
BRANCH  18  20
ATOM     20  C   UNL     1       6.312   4.981  14.525  0.00  0.00    +0.000 A 
ATOM     21  C   UNL     1       7.469   5.357  13.844  0.00  0.00    +0.000 A 
ATOM     22  C   UNL     1       7.756   4.779  12.602  0.00  0.00    +0.000 A 
ATOM     23  C   UNL     1       6.892   3.824  12.048  0.00  0.00    +0.000 A 
ATOM     24  C   UNL     1       5.744   3.444  12.734  0.00  0.00    +0.000 A 
ATOM     25  C   UNL     1       5.451   4.018  13.976  0.00  0.00    +0.000 A 
ENDBRANCH  18  20
ENDBRANCH   1  18
TORSDOF 3
ENDMDL
MODEL 2
REMARK VINA RESULT:      -7.0      2.587      4.377
REMARK  Name = 
REMARK  3 active torsions:
REMARK  status: ('A' for Active; 'I' for Inactive)
REMARK    1  A    between atoms: S_2  and  C_4
REMARK    2  A    between atoms: S_2  and  N_10
REMARK    3  A    between atoms: C_14  and  C_15
REMARK                            x       y       z     vdW  Elec       q    Type
REMARK                         _______ _______ _______ _____ _____    ______ ____
ROOT
ATOM      1  N   UNL     1       5.612   5.335  16.774  0.00  0.00    +0.000 N 
ATOM      2  C   UNL     1       5.714   4.273  15.693  0.00  0.00    +0.000 C 
ATOM      3  C   UNL     1       4.331   3.632  15.613  0.00  0.00    +0.000 C 
ATOM      4  C   UNL     1       3.919   3.750  17.070  0.00  0.00    +0.000 A 
ATOM      5  C   UNL     1       2.764   3.200  17.621  0.00  0.00    +0.000 A 
ATOM      6  C   UNL     1       1.698   4.091  17.744  0.00  0.00    +0.000 A 
ATOM      7  C   UNL     1       1.970   5.470  17.754  0.00  0.00    +0.000 A 
ATOM      8  C   UNL     1       3.301   5.951  17.673  0.00  0.00    +0.000 A 
ATOM      9  C   UNL     1       4.314   5.047  17.386  0.00  0.00    +0.000 A 
ENDROOT
BRANCH   5  10
ATOM     10  C   UNL     1       2.944   2.219  18.817  0.00  0.00    +0.000 C 
ATOM     11  C   UNL     1       1.643   1.822  19.540  0.00  0.00    +0.000 C 
ATOM     12  C   UNL     1       1.145   2.906  20.485  0.00  0.00    +0.000 C 
ATOM     13  N   UNL     1       2.161   3.285  21.466  0.00  0.00    +0.000 NA
ATOM     14  C   UNL     1       3.413   3.691  20.824  0.00  0.00    +0.000 C 
ATOM     15  C   UNL     1       3.969   2.630  19.877  0.00  0.00    +0.000 C 
ATOM     16  H   UNL     1       2.338   2.487  22.076  0.00  0.00    +0.000 HD
ENDBRANCH   5  10
BRANCH   1  18
ATOM     17  O   UNL     1       8.015   4.420  17.326  0.00  0.00    +0.000 OA
ATOM     18  S   UNL     1       6.938   5.180  17.933  0.00  0.00    +0.000 S 
ATOM     19  O   UNL     1       6.398   4.789  19.208  0.00  0.00    +0.000 OA
BRANCH  18  20
ATOM     20  C   UNL     1       7.576   6.863  18.112  0.00  0.00    +0.000 A 
ATOM     21  C   UNL     1       8.495   7.158  19.118  0.00  0.00    +0.000 A 
ATOM     22  C   UNL     1       8.973   8.467  19.253  0.00  0.00    +0.000 A 
ATOM     23  C   UNL     1       8.537   9.473  18.378  0.00  0.00    +0.000 A 
ATOM     24  C   UNL     1       7.628   9.173  17.370  0.00  0.00    +0.000 A 
ATOM     25  C   UNL     1       7.147   7.867  17.230  0.00  0.00    +0.000 A 
ENDBRANCH  18  20
ENDBRANCH   1  18
TORSDOF 3
ENDMDL
MODEL 3
REMARK VINA RESULT:      -6.9      2.642      4.450
REMARK  Name = 
REMARK  3 active torsions:
REMARK  status: ('A' for Active; 'I' for Inactive)
REMARK    1  A    between atoms: S_2  and  C_4
REMARK    2  A    between atoms: S_2  and  N_10
REMARK    3  A    between atoms: C_14  and  C_15
REMARK                            x       y       z     vdW  Elec       q    Type
REMARK                         _______ _______ _______ _____ _____    ______ ____
ROOT
ATOM      1  N   UNL     1       5.638   5.274  16.670  0.00  0.00    +0.000 N 
ATOM      2  C   UNL     1       5.050   3.930  16.276  0.00  0.00    +0.000 C 
ATOM      3  C   UNL     1       3.559   4.025  16.587  0.00  0.00    +0.000 C 
ATOM      4  C   UNL     1       3.617   4.942  17.796  0.00  0.00    +0.000 A 
ATOM      5  C   UNL     1       2.527   5.282  18.595  0.00  0.00    +0.000 A 
ATOM      6  C   UNL     1       1.943   6.510  18.290  0.00  0.00    +0.000 A 
ATOM      7  C   UNL     1       2.703   7.461  17.585  0.00  0.00    +0.000 A 
ATOM      8  C   UNL     1       4.046   7.195  17.219  0.00  0.00    +0.000 A 
ATOM      9  C   UNL     1       4.535   5.908  17.393  0.00  0.00    +0.000 A 
ENDROOT
BRANCH   5  10
ATOM     10  C   UNL     1       2.634   4.963  20.116  0.00  0.00    +0.000 C 
ATOM     11  C   UNL     1       3.622   3.841  20.483  0.00  0.00    +0.000 C 
ATOM     12  C   UNL     1       3.055   2.454  20.218  0.00  0.00    +0.000 C 
ATOM     13  N   UNL     1       1.785   2.240  20.910  0.00  0.00    +0.000 NA
ATOM     14  C   UNL     1       0.803   3.275  20.576  0.00  0.00    +0.000 C 
ATOM     15  C   UNL     1       1.313   4.689  20.840  0.00  0.00    +0.000 C 
ATOM     16  H   UNL     1       1.956   2.250  21.915  0.00  0.00    +0.000 HD
ENDBRANCH   5  10
BRANCH   1  18
ATOM     17  O   UNL     1       8.108   4.408  16.925  0.00  0.00    +0.000 OA
ATOM     18  S   UNL     1       7.063   5.059  17.693  0.00  0.00    +0.000 S 
ATOM     19  O   UNL     1       6.647   4.524  18.962  0.00  0.00    +0.000 OA
BRANCH  18  20
ATOM     20  C   UNL     1       7.660   6.741  17.989  0.00  0.00    +0.000 A 
ATOM     21  C   UNL     1       7.374   7.755  17.076  0.00  0.00    +0.000 A 
ATOM     22  C   UNL     1       7.851   9.049  17.312  0.00  0.00    +0.000 A 
ATOM     23  C   UNL     1       8.607   9.328  18.460  0.00  0.00    +0.000 A 
ATOM     24  C   UNL     1       8.882   8.317  19.373  0.00  0.00    +0.000 A 
ATOM     25  C   UNL     1       8.408   7.021  19.144  0.00  0.00    +0.000 A 
ENDBRANCH  18  20
ENDBRANCH   1  18
TORSDOF 3
ENDMDL
MODEL 4
REMARK VINA RESULT:      -6.9      2.564      4.371
REMARK  Name = 
REMARK  3 active torsions:
REMARK  status: ('A' for Active; 'I' for Inactive)
REMARK    1  A    between atoms: S_2  and  C_4
REMARK    2  A    between atoms: S_2  and  N_10
REMARK    3  A    between atoms: C_14  and  C_15
REMARK                            x       y       z     vdW  Elec       q    Type
REMARK                         _______ _______ _______ _____ _____    ______ ____
ROOT
ATOM      1  N   UNL     1       5.622   5.342  16.645  0.00  0.00    +0.000 N 
ATOM      2  C   UNL     1       5.653   4.234  15.606  0.00  0.00    +0.000 C 
ATOM      3  C   UNL     1       4.244   3.647  15.588  0.00  0.00    +0.000 C 
ATOM      4  C   UNL     1       3.876   3.842  17.048  0.00  0.00    +0.000 A 
ATOM      5  C   UNL     1       2.715   3.363  17.650  0.00  0.00    +0.000 A 
ATOM      6  C   UNL     1       1.689   4.300  17.763  0.00  0.00    +0.000 A 
ATOM      7  C   UNL     1       2.016   5.667  17.708  0.00  0.00    +0.000 A 
ATOM      8  C   UNL     1       3.362   6.089  17.574  0.00  0.00    +0.000 A 
ATOM      9  C   UNL     1       4.330   5.133  17.300  0.00  0.00    +0.000 A 
ENDROOT
BRANCH   5  10
ATOM     10  C   UNL     1       2.887   2.424  18.882  0.00  0.00    +0.000 C 
ATOM     11  C   UNL     1       1.575   1.886  19.483  0.00  0.00    +0.000 C 
ATOM     12  C   UNL     1       0.863   2.914  20.349  0.00  0.00    +0.000 C 
ATOM     13  N   UNL     1       1.724   3.423  21.415  0.00  0.00    +0.000 NA
ATOM     14  C   UNL     1       2.979   3.966  20.889  0.00  0.00    +0.000 C 
ATOM     15  C   UNL     1       3.746   2.967  20.027  0.00  0.00    +0.000 C 
ATOM     16  H   UNL     1       1.931   2.659  22.058  0.00  0.00    +0.000 HD
ENDBRANCH   5  10
BRANCH   1  18
ATOM     17  O   UNL     1       8.059   4.476  17.122  0.00  0.00    +0.000 OA
ATOM     18  S   UNL     1       6.971   5.180  17.775  0.00  0.00    +0.000 S 
ATOM     19  O   UNL     1       6.464   4.725  19.042  0.00  0.00    +0.000 OA
BRANCH  18  20
ATOM     20  C   UNL     1       7.565   6.872  18.011  0.00  0.00    +0.000 A 
ATOM     21  C   UNL     1       7.109   7.895  17.181  0.00  0.00    +0.000 A 
ATOM     22  C   UNL     1       7.584   9.198  17.367  0.00  0.00    +0.000 A 
ATOM     23  C   UNL     1       8.509   9.476  18.385  0.00  0.00    +0.000 A 
ATOM     24  C   UNL     1       8.955   8.456  19.216  0.00  0.00    +0.000 A 
ATOM     25  C   UNL     1       8.483   7.151  19.036  0.00  0.00    +0.000 A 
ENDBRANCH  18  20
ENDBRANCH   1  18
TORSDOF 3
ENDMDL
MODEL 5
REMARK VINA RESULT:      -6.9      2.630      4.412
REMARK  Name = 
REMARK  3 active torsions:
REMARK  status: ('A' for Active; 'I' for Inactive)
REMARK    1  A    between atoms: S_2  and  C_4
REMARK    2  A    between atoms: S_2  and  N_10
REMARK    3  A    between atoms: C_14  and  C_15
REMARK                            x       y       z     vdW  Elec       q    Type
REMARK                         _______ _______ _______ _____ _____    ______ ____
ROOT
ATOM      1  N   UNL     1       5.543   5.239  16.564  0.00  0.00    +0.000 N 
ATOM      2  C   UNL     1       4.883   3.927  16.178  0.00  0.00    +0.000 C 
ATOM      3  C   UNL     1       3.423   4.059  16.603  0.00  0.00    +0.000 C 
ATOM      4  C   UNL     1       3.601   4.937  17.829  0.00  0.00    +0.000 A 
ATOM      5  C   UNL     1       2.585   5.286  18.717  0.00  0.00    +0.000 A 
ATOM      6  C   UNL     1       2.022   6.541  18.491  0.00  0.00    +0.000 A 
ATOM      7  C   UNL     1       2.758   7.489  17.759  0.00  0.00    +0.000 A 
ATOM      8  C   UNL     1       4.061   7.192  17.285  0.00  0.00    +0.000 A 
ATOM      9  C   UNL     1       4.518   5.885  17.386  0.00  0.00    +0.000 A 
ENDROOT
BRANCH   5  10
ATOM     10  C   UNL     1       2.794   4.918  20.216  0.00  0.00    +0.000 C 
ATOM     11  C   UNL     1       3.758   3.746  20.475  0.00  0.00    +0.000 C 
ATOM     12  C   UNL     1       3.115   2.392  20.218  0.00  0.00    +0.000 C 
ATOM     13  N   UNL     1       1.893   2.209  21.000  0.00  0.00    +0.000 NA
ATOM     14  C   UNL     1       0.934   3.292  20.771  0.00  0.00    +0.000 C 
ATOM     15  C   UNL     1       1.522   4.676  21.033  0.00  0.00    +0.000 C 
ATOM     16  H   UNL     1       2.140   2.182  21.989  0.00  0.00    +0.000 HD
ENDBRANCH   5  10
BRANCH   1  18
ATOM     17  O   UNL     1       8.030   4.384  16.582  0.00  0.00    +0.000 OA
ATOM     18  S   UNL     1       7.032   4.950  17.471  0.00  0.00    +0.000 S 
ATOM     19  O   UNL     1       6.702   4.295  18.709  0.00  0.00    +0.000 OA
BRANCH  18  20
ATOM     20  C   UNL     1       7.637   6.604  17.883  0.00  0.00    +0.000 A 
ATOM     21  C   UNL     1       8.268   6.834  19.104  0.00  0.00    +0.000 A 
ATOM     22  C   UNL     1       8.722   8.121  19.414  0.00  0.00    +0.000 A 
ATOM     23  C   UNL     1       8.548   9.172  18.501  0.00  0.00    +0.000 A 
ATOM     24  C   UNL     1       7.926   8.938  17.281  0.00  0.00    +0.000 A 
ATOM     25  C   UNL     1       7.471   7.653  16.964  0.00  0.00    +0.000 A 
ENDBRANCH  18  20
ENDBRANCH   1  18
TORSDOF 3
ENDMDL
MODEL 6
REMARK VINA RESULT:      -6.8      6.564      9.515
REMARK  Name = 
REMARK  3 active torsions:
REMARK  status: ('A' for Active; 'I' for Inactive)
REMARK    1  A    between atoms: S_2  and  C_4
REMARK    2  A    between atoms: S_2  and  N_10
REMARK    3  A    between atoms: C_14  and  C_15
REMARK                            x       y       z     vdW  Elec       q    Type
REMARK                         _______ _______ _______ _____ _____    ______ ____
ROOT
ATOM      1  N   UNL     1       0.599  10.317  20.079  0.00  0.00    +0.000 N 
ATOM      2  C   UNL     1      -0.790  10.276  19.466  0.00  0.00    +0.000 C 
ATOM      3  C   UNL     1      -1.361  11.681  19.644  0.00  0.00    +0.000 C 
ATOM      4  C   UNL     1      -0.696  12.053  20.958  0.00  0.00    +0.000 A 
ATOM      5  C   UNL     1      -0.957  13.211  21.686  0.00  0.00    +0.000 A 
ATOM      6  C   UNL     1      -0.043  14.244  21.482  0.00  0.00    +0.000 A 
ATOM      7  C   UNL     1       1.230  13.927  20.977  0.00  0.00    +0.000 A 
ATOM      8  C   UNL     1       1.595  12.584  20.710  0.00  0.00    +0.000 A 
ATOM      9  C   UNL     1       0.609  11.609  20.768  0.00  0.00    +0.000 A 
ENDROOT
BRANCH   5  10
ATOM     10  C   UNL     1      -1.433  13.035  23.158  0.00  0.00    +0.000 C 
ATOM     11  C   UNL     1      -2.646  12.105  23.348  0.00  0.00    +0.000 C 
ATOM     12  C   UNL     1      -3.962  12.781  22.989  0.00  0.00    +0.000 C 
ATOM     13  N   UNL     1      -4.164  14.019  23.742  0.00  0.00    +0.000 NA
ATOM     14  C   UNL     1      -3.041  14.945  23.576  0.00  0.00    +0.000 C 
ATOM     15  C   UNL     1      -1.696  14.324  23.940  0.00  0.00    +0.000 C 
ATOM     16  H   UNL     1      -4.266  13.786  24.729  0.00  0.00    +0.000 HD
ENDBRANCH   5  10
BRANCH   1  18
ATOM     17  O   UNL     1      -0.461   8.404  21.539  0.00  0.00    +0.000 OA
ATOM     18  S   UNL     1       0.832   8.969  21.198  0.00  0.00    +0.000 S 
ATOM     19  O   UNL     1       1.747   9.375  22.231  0.00  0.00    +0.000 OA
BRANCH  18  20
ATOM     20  C   UNL     1       1.665   7.703  20.209  0.00  0.00    +0.000 A 
ATOM     21  C   UNL     1       1.777   6.401  20.693  0.00  0.00    +0.000 A 
ATOM     22  C   UNL     1       2.433   5.434  19.923  0.00  0.00    +0.000 A 
ATOM     23  C   UNL     1       2.968   5.770  18.670  0.00  0.00    +0.000 A 
ATOM     24  C   UNL     1       2.846   7.067  18.187  0.00  0.00    +0.000 A 
ATOM     25  C   UNL     1       2.191   8.038  18.952  0.00  0.00    +0.000 A 
ENDBRANCH  18  20
ENDBRANCH   1  18
TORSDOF 3
ENDMDL
MODEL 7
REMARK VINA RESULT:      -6.7      1.951      3.253
REMARK  Name = 
REMARK  3 active torsions:
REMARK  status: ('A' for Active; 'I' for Inactive)
REMARK    1  A    between atoms: S_2  and  C_4
REMARK    2  A    between atoms: S_2  and  N_10
REMARK    3  A    between atoms: C_14  and  C_15
REMARK                            x       y       z     vdW  Elec       q    Type
REMARK                         _______ _______ _______ _____ _____    ______ ____
ROOT
ATOM      1  N   UNL     1       6.012   5.732  17.011  0.00  0.00    +0.000 N 
ATOM      2  C   UNL     1       5.329   6.467  15.871  0.00  0.00    +0.000 C 
ATOM      3  C   UNL     1       3.926   6.795  16.375  0.00  0.00    +0.000 C 
ATOM      4  C   UNL     1       3.693   5.586  17.263  0.00  0.00    +0.000 A 
ATOM      5  C   UNL     1       2.492   5.282  17.901  0.00  0.00    +0.000 A 
ATOM      6  C   UNL     1       2.428   5.677  19.237  0.00  0.00    +0.000 A 
ATOM      7  C   UNL     1       3.629   5.902  19.932  0.00  0.00    +0.000 A 
ATOM      8  C   UNL     1       4.884   5.703  19.303  0.00  0.00    +0.000 A 
ATOM      9  C   UNL     1       4.907   5.472  17.934  0.00  0.00    +0.000 A 
ENDROOT
BRANCH   5  10
ATOM     10  C   UNL     1       1.855   3.895  17.594  0.00  0.00    +0.000 C 
ATOM     11  C   UNL     1       0.716   3.473  18.541  0.00  0.00    +0.000 C 
ATOM     12  C   UNL     1       1.229   2.957  19.877  0.00  0.00    +0.000 C 
ATOM     13  N   UNL     1       2.171   1.850  19.712  0.00  0.00    +0.000 NA
ATOM     14  C   UNL     1       3.285   2.212  18.832  0.00  0.00    +0.000 C 
ATOM     15  C   UNL     1       2.827   2.720  17.467  0.00  0.00    +0.000 C 
ATOM     16  H   UNL     1       1.672   1.055  19.314  0.00  0.00    +0.000 HD
ENDBRANCH   5  10
BRANCH   1  18
ATOM     17  O   UNL     1       5.809   3.147  16.571  0.00  0.00    +0.000 OA
ATOM     18  S   UNL     1       6.758   4.236  16.434  0.00  0.00    +0.000 S 
ATOM     19  O   UNL     1       8.078   4.130  16.995  0.00  0.00    +0.000 OA
BRANCH  18  20
ATOM     20  C   UNL     1       6.949   4.487  14.653  0.00  0.00    +0.000 A 
ATOM     21  C   UNL     1       6.157   3.771  13.757  0.00  0.00    +0.000 A 
ATOM     22  C   UNL     1       6.323   3.967  12.382  0.00  0.00    +0.000 A 
ATOM     23  C   UNL     1       7.273   4.882  11.906  0.00  0.00    +0.000 A 
ATOM     24  C   UNL     1       8.055   5.602  12.802  0.00  0.00    +0.000 A 
ATOM     25  C   UNL     1       7.893   5.411  14.179  0.00  0.00    +0.000 A 
ENDBRANCH  18  20
ENDBRANCH   1  18
TORSDOF 3
ENDMDL
MODEL 8
REMARK VINA RESULT:      -6.5      2.090      3.493
REMARK  Name = 
REMARK  3 active torsions:
REMARK  status: ('A' for Active; 'I' for Inactive)
REMARK    1  A    between atoms: S_2  and  C_4
REMARK    2  A    between atoms: S_2  and  N_10
REMARK    3  A    between atoms: C_14  and  C_15
REMARK                            x       y       z     vdW  Elec       q    Type
REMARK                         _______ _______ _______ _____ _____    ______ ____
ROOT
ATOM      1  N   UNL     1       5.462   6.153  18.366  0.00  0.00    +0.000 N 
ATOM      2  C   UNL     1       5.052   6.847  17.079  0.00  0.00    +0.000 C 
ATOM      3  C   UNL     1       3.526   6.888  17.102  0.00  0.00    +0.000 C 
ATOM      4  C   UNL     1       3.255   5.590  17.843  0.00  0.00    +0.000 A 
ATOM      5  C   UNL     1       1.994   5.035  18.047  0.00  0.00    +0.000 A 
ATOM      6  C   UNL     1       1.435   5.306  19.295  0.00  0.00    +0.000 A 
ATOM      7  C   UNL     1       2.287   5.680  20.349  0.00  0.00    +0.000 A 
ATOM      8  C   UNL     1       3.690   5.749  20.162  0.00  0.00    +0.000 A 
ATOM      9  C   UNL     1       4.191   5.634  18.872  0.00  0.00    +0.000 A 
ENDROOT
BRANCH   5  10
ATOM     10  C   UNL     1       1.761   3.587  17.522  0.00  0.00    +0.000 C 
ATOM     11  C   UNL     1       0.639   2.806  18.231  0.00  0.00    +0.000 C 
ATOM     12  C   UNL     1       1.072   2.261  19.585  0.00  0.00    +0.000 C 
ATOM     13  N   UNL     1       2.268   1.425  19.482  0.00  0.00    +0.000 NA
ATOM     14  C   UNL     1       3.372   2.135  18.830  0.00  0.00    +0.000 C 
ATOM     15  C   UNL     1       2.998   2.687  17.457  0.00  0.00    +0.000 C 
ATOM     16  H   UNL     1       2.037   0.592  18.941  0.00  0.00    +0.000 HD
ENDBRANCH   5  10
BRANCH   1  18
ATOM     17  O   UNL     1       6.141   3.626  18.636  0.00  0.00    +0.000 OA
ATOM     18  S   UNL     1       6.621   4.859  18.039  0.00  0.00    +0.000 S 
ATOM     19  O   UNL     1       7.947   5.340  18.322  0.00  0.00    +0.000 OA
BRANCH  18  20
ATOM     20  C   UNL     1       6.513   4.601  16.252  0.00  0.00    +0.000 A 
ATOM     21  C   UNL     1       5.515   3.786  15.722  0.00  0.00    +0.000 A 
ATOM     22  C   UNL     1       5.449   3.587  14.338  0.00  0.00    +0.000 A 
ATOM     23  C   UNL     1       6.377   4.208  13.488  0.00  0.00    +0.000 A 
ATOM     24  C   UNL     1       7.365   5.028  14.019  0.00  0.00    +0.000 A 
ATOM     25  C   UNL     1       7.436   5.232  15.401  0.00  0.00    +0.000 A 
ENDBRANCH  18  20
ENDBRANCH   1  18
TORSDOF 3
ENDMDL
MODEL 9
REMARK VINA RESULT:      -6.4      2.616      6.174
REMARK  Name = 
REMARK  3 active torsions:
REMARK  status: ('A' for Active; 'I' for Inactive)
REMARK    1  A    between atoms: S_2  and  C_4
REMARK    2  A    between atoms: S_2  and  N_10
REMARK    3  A    between atoms: C_14  and  C_15
REMARK                            x       y       z     vdW  Elec       q    Type
REMARK                         _______ _______ _______ _____ _____    ______ ____
ROOT
ATOM      1  N   UNL     1       2.901   3.011  19.557  0.00  0.00    +0.000 N 
ATOM      2  C   UNL     1       3.035   1.693  18.815  0.00  0.00    +0.000 C 
ATOM      3  C   UNL     1       4.393   1.747  18.121  0.00  0.00    +0.000 C 
ATOM      4  C   UNL     1       4.467   3.237  17.837  0.00  0.00    +0.000 A 
ATOM      5  C   UNL     1       5.462   3.860  17.087  0.00  0.00    +0.000 A 
ATOM      6  C   UNL     1       6.481   4.440  17.841  0.00  0.00    +0.000 A 
ATOM      7  C   UNL     1       6.228   4.753  19.189  0.00  0.00    +0.000 A 
ATOM      8  C   UNL     1       4.954   4.517  19.765  0.00  0.00    +0.000 A 
ATOM      9  C   UNL     1       4.024   3.791  19.035  0.00  0.00    +0.000 A 
ENDROOT
BRANCH   5  10
ATOM     10  C   UNL     1       5.006   4.688  15.849  0.00  0.00    +0.000 C 
ATOM     11  C   UNL     1       5.242   4.012  14.486  0.00  0.00    +0.000 C 
ATOM     12  C   UNL     1       6.691   4.103  14.031  0.00  0.00    +0.000 C 
ATOM     13  N   UNL     1       7.166   5.485  13.986  0.00  0.00    +0.000 NA
ATOM     14  C   UNL     1       6.980   6.165  15.270  0.00  0.00    +0.000 C 
ATOM     15  C   UNL     1       5.537   6.121  15.766  0.00  0.00    +0.000 C 
ATOM     16  H   UNL     1       6.647   5.984  13.263  0.00  0.00    +0.000 HD
ENDBRANCH   5  10
BRANCH   1  18
ATOM     17  O   UNL     1       0.445   3.561  20.323  0.00  0.00    +0.000 OA
ATOM     18  S   UNL     1       1.345   3.774  19.205  0.00  0.00    +0.000 S 
ATOM     19  O   UNL     1       0.946   3.420  17.869  0.00  0.00    +0.000 OA
BRANCH  18  20
ATOM     20  C   UNL     1       1.704   5.547  19.206  0.00  0.00    +0.000 A 
ATOM     21  C   UNL     1       1.591   6.282  20.385  0.00  0.00    +0.000 A 
ATOM     22  C   UNL     1       1.862   7.655  20.370  0.00  0.00    +0.000 A 
ATOM     23  C   UNL     1       2.250   8.288  19.180  0.00  0.00    +0.000 A 
ATOM     24  C   UNL     1       2.371   7.550  18.008  0.00  0.00    +0.000 A 
ATOM     25  C   UNL     1       2.103   6.177  18.016  0.00  0.00    +0.000 A 
ENDBRANCH  18  20
ENDBRANCH   1  18
TORSDOF 3
ENDMDL
