MODEL 1
REMARK VINA RESULT:      -8.9      0.000      0.000
REMARK  Name = 
REMARK  6 active torsions:
REMARK  status: ('A' for Active; 'I' for Inactive)
REMARK    1  A    between atoms: C_1  and  C_2
REMARK    2  A    between atoms: C_6  and  C_7
REMARK    3  A    between atoms: C_10  and  C_12
REMARK    4  A    between atoms: C_12  and  C_13
REMARK    5  A    between atoms: C_19  and  O_20
REMARK    6  A    between atoms: C_19  and  C_21
REMARK                            x       y       z     vdW  Elec       q    Type
REMARK                         _______ _______ _______ _____ _____    ______ ____
ROOT
ATOM      1  C   UNL     1       2.822   7.118  18.204  0.00  0.00    +0.000 C 
ATOM      2  N   UNL     1       3.951   7.360  17.613  0.00  0.00    +0.000 NA
ATOM      3  N   UNL     1       4.488   6.139  17.225  0.00  0.00    +0.000 N 
ATOM      4  C   UNL     1       5.730   6.134  16.595  0.00  0.00    +0.000 C 
ATOM      5  O   UNL     1       6.348   7.168  16.325  0.00  0.00    +0.000 OA
ATOM      6  C   UNL     1       3.751   5.019  17.845  0.00  0.00    +0.000 C 
ATOM      7  C   UNL     1       2.415   5.675  18.191  0.00  0.00    +0.000 C 
ENDROOT
BRANCH   1  13
ATOM      8  C   UNL     1       0.612   9.074  22.251  0.00  0.00    +0.000 C 
ATOM      9  C   UNL     1       0.878   9.108  20.774  0.00  0.00    +0.000 A 
ATOM     10  C   UNL     1       0.324  10.113  19.974  0.00  0.00    +0.000 A 
ATOM     11  C   UNL     1       0.582  10.147  18.605  0.00  0.00    +0.000 A 
ATOM     12  C   UNL     1       1.399   9.178  18.023  0.00  0.00    +0.000 A 
ATOM     13  C   UNL     1       1.957   8.161  18.807  0.00  0.00    +0.000 A 
ATOM     14  C   UNL     1       1.689   8.128  20.182  0.00  0.00    +0.000 A 
ENDBRANCH   1  13
BRANCH   6  15
ATOM     15  C   UNL     1       4.463   4.461  19.119  0.00  0.00    +0.000 C 
ATOM     16  F   UNL     1       5.106   3.294  18.901  0.00  0.00    +0.000 F 
ATOM     17  F   UNL     1       5.351   5.322  19.660  0.00  0.00    +0.000 F 
ATOM     18  F   UNL     1       3.526   4.210  20.076  0.00  0.00    +0.000 F 
ENDBRANCH   6  15
BRANCH   6  19
ATOM     19  O   UNL     1       3.467   4.024  16.849  0.00  0.00    +0.000 OA
ATOM     20  H   UNL     1       2.500   3.998  16.714  0.00  0.00    +0.000 HD
ENDBRANCH   6  19
BRANCH   4  21
ATOM     21  C   UNL     1       6.327   4.788  16.201  0.00  0.00    +0.000 C 
BRANCH  21  22
ATOM     22  C   UNL     1       6.486   4.552  14.713  0.00  0.00    +0.000 A 
ATOM     23  C   UNL     1       7.550   5.172  14.034  0.00  0.00    +0.000 A 
ATOM     24  C   UNL     1       7.764   4.942  12.672  0.00  0.00    +0.000 A 
ATOM     25  C   UNL     1       6.926   4.083  11.969  0.00  0.00    +0.000 A 
ATOM     26  C   UNL     1       5.875   3.451  12.628  0.00  0.00    +0.000 A 
ATOM     27  C   UNL     1       5.659   3.680  13.991  0.00  0.00    +0.000 A 
ENDBRANCH  21  22
ENDBRANCH   4  21
TORSDOF 5
ENDMDL
MODEL 2
REMARK VINA RESULT:      -8.6      0.250      1.241
REMARK  Name = 
REMARK  6 active torsions:
REMARK  status: ('A' for Active; 'I' for Inactive)
REMARK    1  A    between atoms: C_1  and  C_2
REMARK    2  A    between atoms: C_6  and  C_7
REMARK    3  A    between atoms: C_10  and  C_12
REMARK    4  A    between atoms: C_12  and  C_13
REMARK    5  A    between atoms: C_19  and  O_20
REMARK    6  A    between atoms: C_19  and  C_21
REMARK                            x       y       z     vdW  Elec       q    Type
REMARK                         _______ _______ _______ _____ _____    ______ ____
ROOT
ATOM      1  C   UNL     1       2.638   7.184  18.285  0.00  0.00    +0.000 C 
ATOM      2  N   UNL     1       3.715   7.387  17.591  0.00  0.00    +0.000 NA
ATOM      3  N   UNL     1       4.235   6.143  17.257  0.00  0.00    +0.000 N 
ATOM      4  C   UNL     1       5.424   6.096  16.534  0.00  0.00    +0.000 C 
ATOM      5  O   UNL     1       6.007   7.111  16.138  0.00  0.00    +0.000 OA
ATOM      6  C   UNL     1       3.561   5.069  18.016  0.00  0.00    +0.000 C 
ATOM      7  C   UNL     1       2.248   5.742  18.413  0.00  0.00    +0.000 C 
ENDROOT
BRANCH   1  13
ATOM      8  C   UNL     1       0.432   9.232  22.289  0.00  0.00    +0.000 C 
ATOM      9  C   UNL     1       0.732   9.258  20.818  0.00  0.00    +0.000 A 
ATOM     10  C   UNL     1       0.245  10.290  20.009  0.00  0.00    +0.000 A 
ATOM     11  C   UNL     1       0.535  10.315  18.646  0.00  0.00    +0.000 A 
ATOM     12  C   UNL     1       1.318   9.310  18.079  0.00  0.00    +0.000 A 
ATOM     13  C   UNL     1       1.810   8.266  18.872  0.00  0.00    +0.000 A 
ATOM     14  C   UNL     1       1.510   8.242  20.240  0.00  0.00    +0.000 A 
ENDBRANCH   1  13
BRANCH   6  15
ATOM     15  C   UNL     1       4.376   4.615  19.269  0.00  0.00    +0.000 C 
ATOM     16  F   UNL     1       5.137   5.599  19.795  0.00  0.00    +0.000 F 
ATOM     17  F   UNL     1       3.605   4.119  20.261  0.00  0.00    +0.000 F 
ATOM     18  F   UNL     1       5.233   3.621  18.904  0.00  0.00    +0.000 F 
ENDBRANCH   6  15
BRANCH   6  19
ATOM     19  O   UNL     1       3.212   3.999  17.123  0.00  0.00    +0.000 OA
ATOM     20  H   UNL     1       3.877   3.972  16.409  0.00  0.00    +0.000 HD
ENDBRANCH   6  19
BRANCH   4  21
ATOM     21  C   UNL     1       6.005   4.728  16.198  0.00  0.00    +0.000 C 
BRANCH  21  22
ATOM     22  C   UNL     1       6.341   4.498  14.739  0.00  0.00    +0.000 A 
ATOM     23  C   UNL     1       5.462   3.737  13.948  0.00  0.00    +0.000 A 
ATOM     24  C   UNL     1       5.706   3.542  12.586  0.00  0.00    +0.000 A 
ATOM     25  C   UNL     1       6.827   4.111  11.989  0.00  0.00    +0.000 A 
ATOM     26  C   UNL     1       7.701   4.879  12.754  0.00  0.00    +0.000 A 
ATOM     27  C   UNL     1       7.458   5.075  14.118  0.00  0.00    +0.000 A 
ENDBRANCH  21  22
ENDBRANCH   4  21
TORSDOF 5
ENDMDL
MODEL 3
REMARK VINA RESULT:      -8.5      0.590      1.373
REMARK  Name = 
REMARK  6 active torsions:
REMARK  status: ('A' for Active; 'I' for Inactive)
REMARK    1  A    between atoms: C_1  and  C_2
REMARK    2  A    between atoms: C_6  and  C_7
REMARK    3  A    between atoms: C_10  and  C_12
REMARK    4  A    between atoms: C_12  and  C_13
REMARK    5  A    between atoms: C_19  and  O_20
REMARK    6  A    between atoms: C_19  and  C_21
REMARK                            x       y       z     vdW  Elec       q    Type
REMARK                         _______ _______ _______ _____ _____    ______ ____
ROOT
ATOM      1  C   UNL     1       2.823   6.686  18.457  0.00  0.00    +0.000 C 
ATOM      2  N   UNL     1       3.926   6.919  17.815  0.00  0.00    +0.000 NA
ATOM      3  N   UNL     1       4.364   5.710  17.288  0.00  0.00    +0.000 N 
ATOM      4  C   UNL     1       5.562   5.694  16.579  0.00  0.00    +0.000 C 
ATOM      5  O   UNL     1       6.223   6.714  16.358  0.00  0.00    +0.000 OA
ATOM      6  C   UNL     1       3.601   4.580  17.857  0.00  0.00    +0.000 C 
ATOM      7  C   UNL     1       2.330   5.274  18.346  0.00  0.00    +0.000 C 
ENDROOT
BRANCH   1  13
ATOM      8  C   UNL     1       0.443  11.093  18.504  0.00  0.00    +0.000 C 
ATOM      9  C   UNL     1       0.909   9.863  19.227  0.00  0.00    +0.000 A 
ATOM     10  C   UNL     1       0.624   9.683  20.585  0.00  0.00    +0.000 A 
ATOM     11  C   UNL     1       1.050   8.534  21.249  0.00  0.00    +0.000 A 
ATOM     12  C   UNL     1       1.761   7.551  20.561  0.00  0.00    +0.000 A 
ATOM     13  C   UNL     1       2.061   7.716  19.203  0.00  0.00    +0.000 A 
ATOM     14  C   UNL     1       1.637   8.877  18.542  0.00  0.00    +0.000 A 
ENDBRANCH   1  13
BRANCH   6  15
ATOM     15  C   UNL     1       4.355   3.873  19.027  0.00  0.00    +0.000 C 
ATOM     16  F   UNL     1       4.590   2.563  18.795  0.00  0.00    +0.000 F 
ATOM     17  F   UNL     1       5.535   4.451  19.335  0.00  0.00    +0.000 F 
ATOM     18  F   UNL     1       3.585   3.930  20.151  0.00  0.00    +0.000 F 
ENDBRANCH   6  15
BRANCH   6  19
ATOM     19  O   UNL     1       3.197   3.696  16.800  0.00  0.00    +0.000 OA
ATOM     20  H   UNL     1       3.691   3.941  15.994  0.00  0.00    +0.000 HD
ENDBRANCH   6  19
BRANCH   4  21
ATOM     21  C   UNL     1       6.052   4.359  16.031  0.00  0.00    +0.000 C 
BRANCH  21  22
ATOM     22  C   UNL     1       6.344   4.328  14.545  0.00  0.00    +0.000 A 
ATOM     23  C   UNL     1       7.415   5.089  14.043  0.00  0.00    +0.000 A 
ATOM     24  C   UNL     1       7.751   5.050  12.688  0.00  0.00    +0.000 A 
ATOM     25  C   UNL     1       7.029   4.245  11.812  0.00  0.00    +0.000 A 
ATOM     26  C   UNL     1       5.974   3.474  12.293  0.00  0.00    +0.000 A 
ATOM     27  C   UNL     1       5.636   3.512  13.650  0.00  0.00    +0.000 A 
ENDBRANCH  21  22
ENDBRANCH   4  21
TORSDOF 5
ENDMDL
MODEL 4
REMARK VINA RESULT:      -8.5      0.642      1.798
REMARK  Name = 
REMARK  6 active torsions:
REMARK  status: ('A' for Active; 'I' for Inactive)
REMARK    1  A    between atoms: C_1  and  C_2
REMARK    2  A    between atoms: C_6  and  C_7
REMARK    3  A    between atoms: C_10  and  C_12
REMARK    4  A    between atoms: C_12  and  C_13
REMARK    5  A    between atoms: C_19  and  O_20
REMARK    6  A    between atoms: C_19  and  C_21
REMARK                            x       y       z     vdW  Elec       q    Type
REMARK                         _______ _______ _______ _____ _____    ______ ____
ROOT
ATOM      1  C   UNL     1       2.759   6.683  18.485  0.00  0.00    +0.000 C 
ATOM      2  N   UNL     1       3.843   6.884  17.803  0.00  0.00    +0.000 NA
ATOM      3  N   UNL     1       4.239   5.660  17.280  0.00  0.00    +0.000 N 
ATOM      4  C   UNL     1       5.412   5.609  16.531  0.00  0.00    +0.000 C 
ATOM      5  O   UNL     1       6.086   6.612  16.273  0.00  0.00    +0.000 OA
ATOM      6  C   UNL     1       3.472   4.554  17.891  0.00  0.00    +0.000 C 
ATOM      7  C   UNL     1       2.234   5.281  18.411  0.00  0.00    +0.000 C 
ENDROOT
BRANCH   1  13
ATOM      8  C   UNL     1       0.552  11.179  18.567  0.00  0.00    +0.000 C 
ATOM      9  C   UNL     1       0.976   9.929  19.281  0.00  0.00    +0.000 A 
ATOM     10  C   UNL     1       0.695   9.756  20.641  0.00  0.00    +0.000 A 
ATOM     11  C   UNL     1       1.081   8.589  21.298  0.00  0.00    +0.000 A 
ATOM     12  C   UNL     1       1.749   7.582  20.600  0.00  0.00    +0.000 A 
ATOM     13  C   UNL     1       2.043   7.740  19.241  0.00  0.00    +0.000 A 
ATOM     14  C   UNL     1       1.659   8.918  18.587  0.00  0.00    +0.000 A 
ENDBRANCH   1  13
BRANCH   6  15
ATOM     15  C   UNL     1       4.251   3.847  19.045  0.00  0.00    +0.000 C 
ATOM     16  F   UNL     1       5.458   4.402  19.292  0.00  0.00    +0.000 F 
ATOM     17  F   UNL     1       3.571   3.813  20.211  0.00  0.00    +0.000 F 
ATOM     18  F   UNL     1       4.490   2.553  18.692  0.00  0.00    +0.000 F 
ENDBRANCH   6  15
BRANCH   6  19
ATOM     19  O   UNL     1       3.015   3.663  16.860  0.00  0.00    +0.000 OA
ATOM     20  H   UNL     1       2.838   4.192  16.059  0.00  0.00    +0.000 HD
ENDBRANCH   6  19
BRANCH   4  21
ATOM     21  C   UNL     1       5.856   4.257  15.986  0.00  0.00    +0.000 C 
BRANCH  21  22
ATOM     22  C   UNL     1       6.327   4.252  14.547  0.00  0.00    +0.000 A 
ATOM     23  C   UNL     1       5.613   3.500  13.598  0.00  0.00    +0.000 A 
ATOM     24  C   UNL     1       5.982   3.506  12.250  0.00  0.00    +0.000 A 
ATOM     25  C   UNL     1       7.065   4.270  11.827  0.00  0.00    +0.000 A 
ATOM     26  C   UNL     1       7.776   5.031  12.751  0.00  0.00    +0.000 A 
ATOM     27  C   UNL     1       7.408   5.025  14.100  0.00  0.00    +0.000 A 
ENDBRANCH  21  22
ENDBRANCH   4  21
TORSDOF 5
ENDMDL
MODEL 5
REMARK VINA RESULT:      -8.0      1.323      2.054
REMARK  Name = 
REMARK  6 active torsions:
REMARK  status: ('A' for Active; 'I' for Inactive)
REMARK    1  A    between atoms: C_1  and  C_2
REMARK    2  A    between atoms: C_6  and  C_7
REMARK    3  A    between atoms: C_10  and  C_12
REMARK    4  A    between atoms: C_12  and  C_13
REMARK    5  A    between atoms: C_19  and  O_20
REMARK    6  A    between atoms: C_19  and  C_21
REMARK                            x       y       z     vdW  Elec       q    Type
REMARK                         _______ _______ _______ _____ _____    ______ ____
ROOT
ATOM      1  C   UNL     1       3.444   6.610  18.435  0.00  0.00    +0.000 C 
ATOM      2  N   UNL     1       3.874   6.902  17.246  0.00  0.00    +0.000 NA
ATOM      3  N   UNL     1       4.801   5.932  16.889  0.00  0.00    +0.000 N 
ATOM      4  C   UNL     1       5.438   6.048  15.656  0.00  0.00    +0.000 C 
ATOM      5  O   UNL     1       5.178   6.948  14.850  0.00  0.00    +0.000 OA
ATOM      6  C   UNL     1       5.166   5.098  18.053  0.00  0.00    +0.000 C 
ATOM      7  C   UNL     1       3.975   5.320  18.984  0.00  0.00    +0.000 C 
ENDROOT
BRANCH   1  13
ATOM      8  C   UNL     1       0.528  10.674  18.711  0.00  0.00    +0.000 C 
ATOM      9  C   UNL     1       1.058   9.412  19.329  0.00  0.00    +0.000 A 
ATOM     10  C   UNL     1       0.635   9.011  20.601  0.00  0.00    +0.000 A 
ATOM     11  C   UNL     1       1.121   7.834  21.167  0.00  0.00    +0.000 A 
ATOM     12  C   UNL     1       2.032   7.044  20.464  0.00  0.00    +0.000 A 
ATOM     13  C   UNL     1       2.470   7.433  19.193  0.00  0.00    +0.000 A 
ATOM     14  C   UNL     1       1.984   8.621  18.632  0.00  0.00    +0.000 A 
ENDBRANCH   1  13
BRANCH   6  15
ATOM     15  C   UNL     1       6.506   5.547  18.719  0.00  0.00    +0.000 C 
ATOM     16  F   UNL     1       6.910   6.775  18.328  0.00  0.00    +0.000 F 
ATOM     17  F   UNL     1       6.465   5.540  20.068  0.00  0.00    +0.000 F 
ATOM     18  F   UNL     1       7.495   4.684  18.352  0.00  0.00    +0.000 F 
ENDBRANCH   6  15
BRANCH   6  19
ATOM     19  O   UNL     1       5.133   3.712  17.678  0.00  0.00    +0.000 OA
ATOM     20  H   UNL     1       5.981   3.495  17.245  0.00  0.00    +0.000 HD
ENDBRANCH   6  19
BRANCH   4  21
ATOM     21  C   UNL     1       6.477   4.997  15.284  0.00  0.00    +0.000 C 
BRANCH  21  22
ATOM     22  C   UNL     1       6.359   4.423  13.888  0.00  0.00    +0.000 A 
ATOM     23  C   UNL     1       7.418   4.608  12.982  0.00  0.00    +0.000 A 
ATOM     24  C   UNL     1       7.373   4.053  11.700  0.00  0.00    +0.000 A 
ATOM     25  C   UNL     1       6.274   3.296  11.305  0.00  0.00    +0.000 A 
ATOM     26  C   UNL     1       5.222   3.092  12.194  0.00  0.00    +0.000 A 
ATOM     27  C   UNL     1       5.265   3.647  13.477  0.00  0.00    +0.000 A 
ENDBRANCH  21  22
ENDBRANCH   4  21
TORSDOF 5
ENDMDL
MODEL 6
REMARK VINA RESULT:      -8.0      1.224      7.528
REMARK  Name = 
REMARK  6 active torsions:
REMARK  status: ('A' for Active; 'I' for Inactive)
REMARK    1  A    between atoms: C_1  and  C_2
REMARK    2  A    between atoms: C_6  and  C_7
REMARK    3  A    between atoms: C_10  and  C_12
REMARK    4  A    between atoms: C_12  and  C_13
REMARK    5  A    between atoms: C_19  and  O_20
REMARK    6  A    between atoms: C_19  and  C_21
REMARK                            x       y       z     vdW  Elec       q    Type
REMARK                         _______ _______ _______ _____ _____    ______ ____
ROOT
ATOM      1  C   UNL     1       5.699   5.182  15.473  0.00  0.00    +0.000 C 
ATOM      2  N   UNL     1       4.538   4.857  15.953  0.00  0.00    +0.000 NA
ATOM      3  N   UNL     1       4.426   5.449  17.205  0.00  0.00    +0.000 N 
ATOM      4  C   UNL     1       3.270   5.215  17.945  0.00  0.00    +0.000 C 
ATOM      5  O   UNL     1       2.324   4.546  17.516  0.00  0.00    +0.000 OA
ATOM      6  C   UNL     1       5.727   5.988  17.651  0.00  0.00    +0.000 C 
ATOM      7  C   UNL     1       6.476   6.137  16.328  0.00  0.00    +0.000 C 
ENDROOT
BRANCH   1  13
ATOM      8  C   UNL     1       5.263   2.175  11.491  0.00  0.00    +0.000 C 
ATOM      9  C   UNL     1       6.012   3.242  12.235  0.00  0.00    +0.000 A 
ATOM     10  C   UNL     1       7.184   3.791  11.704  0.00  0.00    +0.000 A 
ATOM     11  C   UNL     1       7.871   4.789  12.393  0.00  0.00    +0.000 A 
ATOM     12  C   UNL     1       7.389   5.251  13.618  0.00  0.00    +0.000 A 
ATOM     13  C   UNL     1       6.221   4.709  14.168  0.00  0.00    +0.000 A 
ATOM     14  C   UNL     1       5.539   3.701  13.474  0.00  0.00    +0.000 A 
ENDBRANCH   1  13
BRANCH   6  15
ATOM     15  C   UNL     1       6.474   5.027  18.629  0.00  0.00    +0.000 C 
ATOM     16  F   UNL     1       6.694   5.569  19.846  0.00  0.00    +0.000 F 
ATOM     17  F   UNL     1       5.839   3.849  18.815  0.00  0.00    +0.000 F 
ATOM     18  F   UNL     1       7.700   4.733  18.112  0.00  0.00    +0.000 F 
ENDBRANCH   6  15
BRANCH   6  19
ATOM     19  O   UNL     1       5.543   7.318  18.163  0.00  0.00    +0.000 OA
ATOM     20  H   UNL     1       6.422   7.733  18.251  0.00  0.00    +0.000 HD
ENDBRANCH   6  19
BRANCH   4  21
ATOM     21  C   UNL     1       3.166   5.843  19.330  0.00  0.00    +0.000 C 
BRANCH  21  22
ATOM     22  C   UNL     1       2.356   7.120  19.413  0.00  0.00    +0.000 A 
ATOM     23  C   UNL     1       1.760   7.471  20.637  0.00  0.00    +0.000 A 
ATOM     24  C   UNL     1       1.046   8.665  20.772  0.00  0.00    +0.000 A 
ATOM     25  C   UNL     1       0.923   9.531  19.690  0.00  0.00    +0.000 A 
ATOM     26  C   UNL     1       1.519   9.205  18.474  0.00  0.00    +0.000 A 
ATOM     27  C   UNL     1       2.233   8.011  18.337  0.00  0.00    +0.000 A 
ENDBRANCH  21  22
ENDBRANCH   4  21
TORSDOF 5
ENDMDL
MODEL 7
REMARK VINA RESULT:      -8.0      1.362      2.279
REMARK  Name = 
REMARK  6 active torsions:
REMARK  status: ('A' for Active; 'I' for Inactive)
REMARK    1  A    between atoms: C_1  and  C_2
REMARK    2  A    between atoms: C_6  and  C_7
REMARK    3  A    between atoms: C_10  and  C_12
REMARK    4  A    between atoms: C_12  and  C_13
REMARK    5  A    between atoms: C_19  and  O_20
REMARK    6  A    between atoms: C_19  and  C_21
REMARK                            x       y       z     vdW  Elec       q    Type
REMARK                         _______ _______ _______ _____ _____    ______ ____
ROOT
ATOM      1  C   UNL     1       3.491   6.558  18.390  0.00  0.00    +0.000 C 
ATOM      2  N   UNL     1       3.921   6.856  17.203  0.00  0.00    +0.000 NA
ATOM      3  N   UNL     1       4.844   5.885  16.838  0.00  0.00    +0.000 N 
ATOM      4  C   UNL     1       5.480   6.007  15.605  0.00  0.00    +0.000 C 
ATOM      5  O   UNL     1       5.222   6.913  14.806  0.00  0.00    +0.000 OA
ATOM      6  C   UNL     1       5.207   5.042  17.996  0.00  0.00    +0.000 C 
ATOM      7  C   UNL     1       4.018   5.262  18.930  0.00  0.00    +0.000 C 
ENDROOT
BRANCH   1  13
ATOM      8  C   UNL     1       0.600  10.637  18.701  0.00  0.00    +0.000 C 
ATOM      9  C   UNL     1       1.121   9.367  19.308  0.00  0.00    +0.000 A 
ATOM     10  C   UNL     1       0.695   8.956  20.575  0.00  0.00    +0.000 A 
ATOM     11  C   UNL     1       1.173   7.770  21.131  0.00  0.00    +0.000 A 
ATOM     12  C   UNL     1       2.079   6.982  20.422  0.00  0.00    +0.000 A 
ATOM     13  C   UNL     1       2.522   7.380  19.155  0.00  0.00    +0.000 A 
ATOM     14  C   UNL     1       2.043   8.576  18.604  0.00  0.00    +0.000 A 
ENDBRANCH   1  13
BRANCH   6  15
ATOM     15  C   UNL     1       6.549   5.481  18.663  0.00  0.00    +0.000 C 
ATOM     16  F   UNL     1       6.480   5.540  20.011  0.00  0.00    +0.000 F 
ATOM     17  F   UNL     1       7.594   4.688  18.342  0.00  0.00    +0.000 F 
ATOM     18  F   UNL     1       6.865   6.737  18.240  0.00  0.00    +0.000 F 
ENDBRANCH   6  15
BRANCH   6  19
ATOM     19  O   UNL     1       5.168   3.658  17.611  0.00  0.00    +0.000 OA
ATOM     20  H   UNL     1       4.957   3.615  16.659  0.00  0.00    +0.000 HD
ENDBRANCH   6  19
BRANCH   4  21
ATOM     21  C   UNL     1       6.514   4.954  15.225  0.00  0.00    +0.000 C 
BRANCH  21  22
ATOM     22  C   UNL     1       6.309   4.288  13.880  0.00  0.00    +0.000 A 
ATOM     23  C   UNL     1       5.043   3.765  13.564  0.00  0.00    +0.000 A 
ATOM     24  C   UNL     1       4.796   3.187  12.316  0.00  0.00    +0.000 A 
ATOM     25  C   UNL     1       5.805   3.131  11.360  0.00  0.00    +0.000 A 
ATOM     26  C   UNL     1       7.061   3.656  11.651  0.00  0.00    +0.000 A 
ATOM     27  C   UNL     1       7.311   4.234  12.900  0.00  0.00    +0.000 A 
ENDBRANCH  21  22
ENDBRANCH   4  21
TORSDOF 5
ENDMDL
MODEL 8
REMARK VINA RESULT:      -7.9      2.356      7.998
REMARK  Name = 
REMARK  6 active torsions:
REMARK  status: ('A' for Active; 'I' for Inactive)
REMARK    1  A    between atoms: C_1  and  C_2
REMARK    2  A    between atoms: C_6  and  C_7
REMARK    3  A    between atoms: C_10  and  C_12
REMARK    4  A    between atoms: C_12  and  C_13
REMARK    5  A    between atoms: C_19  and  O_20
REMARK    6  A    between atoms: C_19  and  C_21
REMARK                            x       y       z     vdW  Elec       q    Type
REMARK                         _______ _______ _______ _____ _____    ______ ____
ROOT
ATOM      1  C   UNL     1       4.285   5.328  18.587  0.00  0.00    +0.000 C 
ATOM      2  N   UNL     1       3.643   6.455  18.603  0.00  0.00    +0.000 NA
ATOM      3  N   UNL     1       2.726   6.397  19.645  0.00  0.00    +0.000 N 
ATOM      4  C   UNL     1       1.883   7.488  19.845  0.00  0.00    +0.000 C 
ATOM      5  O   UNL     1       1.950   8.518  19.167  0.00  0.00    +0.000 OA
ATOM      6  C   UNL     1       2.614   5.021  20.171  0.00  0.00    +0.000 C 
ATOM      7  C   UNL     1       3.931   4.400  19.710  0.00  0.00    +0.000 C 
ENDROOT
BRANCH   1  13
ATOM      8  C   UNL     1       5.508   4.128  13.880  0.00  0.00    +0.000 C 
ATOM      9  C   UNL     1       5.917   4.386  15.301  0.00  0.00    +0.000 A 
ATOM     10  C   UNL     1       7.261   4.303  15.682  0.00  0.00    +0.000 A 
ATOM     11  C   UNL     1       7.638   4.554  17.000  0.00  0.00    +0.000 A 
ATOM     12  C   UNL     1       6.674   4.894  17.950  0.00  0.00    +0.000 A 
ATOM     13  C   UNL     1       5.324   4.976  17.589  0.00  0.00    +0.000 A 
ATOM     14  C   UNL     1       4.950   4.716  16.264  0.00  0.00    +0.000 A 
ENDBRANCH   1  13
BRANCH   6  15
ATOM     15  C   UNL     1       1.383   4.254  19.593  0.00  0.00    +0.000 C 
ATOM     16  F   UNL     1       1.034   4.664  18.354  0.00  0.00    +0.000 F 
ATOM     17  F   UNL     1       1.557   2.916  19.546  0.00  0.00    +0.000 F 
ATOM     18  F   UNL     1       0.302   4.482  20.391  0.00  0.00    +0.000 F 
ENDBRANCH   6  15
BRANCH   6  19
ATOM     19  O   UNL     1       2.663   5.054  21.607  0.00  0.00    +0.000 OA
ATOM     20  H   UNL     1       1.824   4.688  21.947  0.00  0.00    +0.000 HD
ENDBRANCH   6  19
BRANCH   4  21
ATOM     21  C   UNL     1       0.859   7.404  20.970  0.00  0.00    +0.000 C 
BRANCH  21  22
ATOM     22  C   UNL     1       0.205   8.714  21.360  0.00  0.00    +0.000 A 
ATOM     23  C   UNL     1       0.020   9.005  22.723  0.00  0.00    +0.000 A 
ATOM     24  C   UNL     1      -0.533  10.222  23.129  0.00  0.00    +0.000 A 
ATOM     25  C   UNL     1      -0.903  11.172  22.182  0.00  0.00    +0.000 A 
ATOM     26  C   UNL     1      -0.715  10.906  20.828  0.00  0.00    +0.000 A 
ATOM     27  C   UNL     1      -0.162   9.688  20.420  0.00  0.00    +0.000 A 
ENDBRANCH  21  22
ENDBRANCH   4  21
TORSDOF 5
ENDMDL
MODEL 9
REMARK VINA RESULT:      -7.8      1.566      7.647
REMARK  Name = 
REMARK  6 active torsions:
REMARK  status: ('A' for Active; 'I' for Inactive)
REMARK    1  A    between atoms: C_1  and  C_2
REMARK    2  A    between atoms: C_6  and  C_7
REMARK    3  A    between atoms: C_10  and  C_12
REMARK    4  A    between atoms: C_12  and  C_13
REMARK    5  A    between atoms: C_19  and  O_20
REMARK    6  A    between atoms: C_19  and  C_21
REMARK                            x       y       z     vdW  Elec       q    Type
REMARK                         _______ _______ _______ _____ _____    ______ ____
ROOT
ATOM      1  C   UNL     1       5.167   4.913  15.999  0.00  0.00    +0.000 C 
ATOM      2  N   UNL     1       4.618   6.047  16.308  0.00  0.00    +0.000 NA
ATOM      3  N   UNL     1       4.054   5.906  17.570  0.00  0.00    +0.000 N 
ATOM      4  C   UNL     1       3.367   6.990  18.112  0.00  0.00    +0.000 C 
ATOM      5  O   UNL     1       3.280   8.081  17.539  0.00  0.00    +0.000 OA
ATOM      6  C   UNL     1       4.035   4.488  17.983  0.00  0.00    +0.000 C 
ATOM      7  C   UNL     1       5.119   3.886  17.091  0.00  0.00    +0.000 C 
ENDROOT
BRANCH   1  13
ATOM      8  C   UNL     1       5.170   2.621  11.545  0.00  0.00    +0.000 C 
ATOM      9  C   UNL     1       5.843   3.519  12.543  0.00  0.00    +0.000 A 
ATOM     10  C   UNL     1       7.085   4.096  12.258  0.00  0.00    +0.000 A 
ATOM     11  C   UNL     1       7.701   4.937  13.182  0.00  0.00    +0.000 A 
ATOM     12  C   UNL     1       7.079   5.212  14.400  0.00  0.00    +0.000 A 
ATOM     13  C   UNL     1       5.839   4.639  14.706  0.00  0.00    +0.000 A 
ATOM     14  C   UNL     1       5.227   3.788  13.775  0.00  0.00    +0.000 A 
ENDBRANCH   1  13
BRANCH   6  15
ATOM     15  C   UNL     1       2.649   3.809  17.740  0.00  0.00    +0.000 C 
ATOM     16  F   UNL     1       1.755   4.623  17.138  0.00  0.00    +0.000 F 
ATOM     17  F   UNL     1       2.726   2.676  17.009  0.00  0.00    +0.000 F 
ATOM     18  F   UNL     1       2.106   3.465  18.941  0.00  0.00    +0.000 F 
ENDBRANCH   6  15
BRANCH   6  19
ATOM     19  O   UNL     1       4.514   4.376  19.333  0.00  0.00    +0.000 OA
ATOM     20  H   UNL     1       3.748   4.199  19.912  0.00  0.00    +0.000 HD
ENDBRANCH   6  19
BRANCH   4  21
ATOM     21  C   UNL     1       2.725   6.818  19.483  0.00  0.00    +0.000 C 
BRANCH  21  22
ATOM     22  C   UNL     1       1.754   7.905  19.894  0.00  0.00    +0.000 A 
ATOM     23  C   UNL     1       1.201   7.874  21.186  0.00  0.00    +0.000 A 
ATOM     24  C   UNL     1       0.341   8.884  21.624  0.00  0.00    +0.000 A 
ATOM     25  C   UNL     1       0.025   9.947  20.783  0.00  0.00    +0.000 A 
ATOM     26  C   UNL     1       0.574  10.001  19.505  0.00  0.00    +0.000 A 
ATOM     27  C   UNL     1       1.435   8.990  19.064  0.00  0.00    +0.000 A 
ENDBRANCH  21  22
ENDBRANCH   4  21
TORSDOF 5
ENDMDL
