MODEL 1
REMARK VINA RESULT:      -6.1      0.000      0.000
REMARK  Name = 
REMARK  4 active torsions:
REMARK  status: ('A' for Active; 'I' for Inactive)
REMARK    1  A    between atoms: C_1  and  C_2
REMARK    2  A    between atoms: C_2  and  C_3
REMARK    3  A    between atoms: N_4  and  N_5
REMARK    4  A    between atoms: C_10  and  C_11
REMARK                            x       y       z     vdW  Elec       q    Type
REMARK                         _______ _______ _______ _____ _____    ______ ____
ROOT
ATOM      1  C   UNL     1       3.217   6.097  18.644  0.00  0.00    +0.000 C 
ATOM      2  C   UNL     1       3.781   4.869  17.984  0.00  0.00    +0.000 C 
ATOM      3  C   UNL     1       3.603   3.602  18.408  0.00  0.00    +0.000 C 
ENDROOT
BRANCH   3   4
ATOM      4  C   UNL     1       2.753   3.281  19.508  0.00  0.00    +0.000 A 
ATOM      5  C   UNL     1       1.364   3.271  19.572  0.00  0.00    +0.000 A 
ATOM      6  C   UNL     1       0.987   2.904  20.888  0.00  0.00    +0.000 A 
ATOM      7  C   UNL     1       2.158   2.722  21.575  0.00  0.00    +0.000 A 
ATOM      8  O   UNL     1       3.216   2.947  20.763  0.00  0.00    +0.000 OA
ENDBRANCH   3   4
BRANCH   2   9
ATOM      9  C   UNL     1       4.619   5.072  16.764  0.00  0.00    +0.000 C 
ATOM     10  N   UNL     1       5.216   4.078  16.196  0.00  0.00    +0.000 NA
BRANCH  10  11
ATOM     11  N   UNL     1       6.002   4.311  15.112  0.00  0.00    +0.000 N 
ATOM     12  C   UNL     1       5.954   3.877  13.813  0.00  0.00    +0.000 A 
ATOM     13  N   UNL     1       6.939   4.402  13.115  0.00  0.00    +0.000 NA
ATOM     14  N   UNL     1       7.664   5.205  13.961  0.00  0.00    +0.000 NA
ATOM     15  C   UNL     1       7.096   5.140  15.143  0.00  0.00    +0.000 A 
ENDBRANCH  10  11
ENDBRANCH   2   9
TORSDOF 3
ENDMDL
MODEL 2
REMARK VINA RESULT:      -6.0      0.808      1.253
REMARK  Name = 
REMARK  4 active torsions:
REMARK  status: ('A' for Active; 'I' for Inactive)
REMARK    1  A    between atoms: C_1  and  C_2
REMARK    2  A    between atoms: C_2  and  C_3
REMARK    3  A    between atoms: N_4  and  N_5
REMARK    4  A    between atoms: C_10  and  C_11
REMARK                            x       y       z     vdW  Elec       q    Type
REMARK                         _______ _______ _______ _____ _____    ______ ____
ROOT
ATOM      1  C   UNL     1       3.298   2.163  17.440  0.00  0.00    +0.000 C 
ATOM      2  C   UNL     1       3.816   3.524  17.815  0.00  0.00    +0.000 C 
ATOM      3  C   UNL     1       3.508   4.194  18.943  0.00  0.00    +0.000 C 
ENDROOT
BRANCH   3   4
ATOM      4  C   UNL     1       2.707   3.618  19.975  0.00  0.00    +0.000 A 
ATOM      5  C   UNL     1       1.344   3.756  20.210  0.00  0.00    +0.000 A 
ATOM      6  C   UNL     1       1.020   3.004  21.368  0.00  0.00    +0.000 A 
ATOM      7  C   UNL     1       2.198   2.454  21.798  0.00  0.00    +0.000 A 
ATOM      8  O   UNL     1       3.210   2.815  20.978  0.00  0.00    +0.000 OA
ENDBRANCH   3   4
BRANCH   2   9
ATOM      9  C   UNL     1       4.739   4.196  16.851  0.00  0.00    +0.000 C 
ATOM     10  N   UNL     1       5.351   3.520  15.937  0.00  0.00    +0.000 NA
BRANCH  10  11
ATOM     11  N   UNL     1       6.213   4.163  15.106  0.00  0.00    +0.000 N 
ATOM     12  C   UNL     1       6.391   4.142  13.747  0.00  0.00    +0.000 A 
ATOM     13  N   UNL     1       7.355   4.967  13.396  0.00  0.00    +0.000 NA
ATOM     14  N   UNL     1       7.836   5.553  14.541  0.00  0.00    +0.000 NA
ATOM     15  C   UNL     1       7.149   5.064  15.548  0.00  0.00    +0.000 A 
ENDBRANCH  10  11
ENDBRANCH   2   9
TORSDOF 3
ENDMDL
MODEL 3
REMARK VINA RESULT:      -6.0      3.495      6.997
REMARK  Name = 
REMARK  4 active torsions:
REMARK  status: ('A' for Active; 'I' for Inactive)
REMARK    1  A    between atoms: C_1  and  C_2
REMARK    2  A    between atoms: C_2  and  C_3
REMARK    3  A    between atoms: N_4  and  N_5
REMARK    4  A    between atoms: C_10  and  C_11
REMARK                            x       y       z     vdW  Elec       q    Type
REMARK                         _______ _______ _______ _____ _____    ______ ____
ROOT
ATOM      1  C   UNL     1       5.066   6.566  15.901  0.00  0.00    +0.000 C 
ATOM      2  C   UNL     1       5.059   5.112  16.282  0.00  0.00    +0.000 C 
ATOM      3  C   UNL     1       5.608   4.113  15.563  0.00  0.00    +0.000 C 
ENDROOT
BRANCH   3   4
ATOM      4  C   UNL     1       6.358   4.355  14.374  0.00  0.00    +0.000 A 
ATOM      5  C   UNL     1       6.197   3.809  13.106  0.00  0.00    +0.000 A 
ATOM      6  C   UNL     1       7.201   4.349  12.264  0.00  0.00    +0.000 A 
ATOM      7  C   UNL     1       7.942   5.186  13.055  0.00  0.00    +0.000 A 
ATOM      8  O   UNL     1       7.450   5.196  14.314  0.00  0.00    +0.000 OA
ENDBRANCH   3   4
BRANCH   2   9
ATOM      9  C   UNL     1       4.377   4.742  17.559  0.00  0.00    +0.000 C 
ATOM     10  N   UNL     1       3.107   4.915  17.708  0.00  0.00    +0.000 NA
BRANCH  10  11
ATOM     11  N   UNL     1       2.532   4.603  18.900  0.00  0.00    +0.000 N 
ATOM     12  C   UNL     1       2.853   4.903  20.198  0.00  0.00    +0.000 A 
ATOM     13  N   UNL     1       1.967   4.386  21.022  0.00  0.00    +0.000 NA
ATOM     14  N   UNL     1       1.033   3.725  20.264  0.00  0.00    +0.000 NA
ATOM     15  C   UNL     1       1.382   3.862  19.006  0.00  0.00    +0.000 A 
ENDBRANCH  10  11
ENDBRANCH   2   9
TORSDOF 3
ENDMDL
MODEL 4
REMARK VINA RESULT:      -6.0      1.253      1.352
REMARK  Name = 
REMARK  4 active torsions:
REMARK  status: ('A' for Active; 'I' for Inactive)
REMARK    1  A    between atoms: C_1  and  C_2
REMARK    2  A    between atoms: C_2  and  C_3
REMARK    3  A    between atoms: N_4  and  N_5
REMARK    4  A    between atoms: C_10  and  C_11
REMARK                            x       y       z     vdW  Elec       q    Type
REMARK                         _______ _______ _______ _____ _____    ______ ____
ROOT
ATOM      1  C   UNL     1       5.232   4.337  18.825  0.00  0.00    +0.000 C 
ATOM      2  C   UNL     1       4.391   4.345  17.579  0.00  0.00    +0.000 C 
ATOM      3  C   UNL     1       3.072   4.073  17.523  0.00  0.00    +0.000 C 
ENDROOT
BRANCH   3   4
ATOM      4  C   UNL     1       2.296   3.834  18.696  0.00  0.00    +0.000 A 
ATOM      5  C   UNL     1       1.844   2.629  19.221  0.00  0.00    +0.000 A 
ATOM      6  C   UNL     1       1.095   2.912  20.391  0.00  0.00    +0.000 A 
ATOM      7  C   UNL     1       1.106   4.276  20.521  0.00  0.00    +0.000 A 
ATOM      8  O   UNL     1       1.816   4.835  19.515  0.00  0.00    +0.000 OA
ENDBRANCH   3   4
BRANCH   2   9
ATOM      9  C   UNL     1       5.077   4.671  16.292  0.00  0.00    +0.000 C 
ATOM     10  N   UNL     1       5.631   3.746  15.582  0.00  0.00    +0.000 NA
BRANCH  10  11
ATOM     11  N   UNL     1       6.280   4.090  14.438  0.00  0.00    +0.000 N 
ATOM     12  C   UNL     1       6.211   3.627  13.150  0.00  0.00    +0.000 A 
ATOM     13  N   UNL     1       7.033   4.301  12.374  0.00  0.00    +0.000 NA
ATOM     14  N   UNL     1       7.667   5.235  13.155  0.00  0.00    +0.000 NA
ATOM     15  C   UNL     1       7.210   5.096  14.378  0.00  0.00    +0.000 A 
ENDBRANCH  10  11
ENDBRANCH   2   9
TORSDOF 3
ENDMDL
MODEL 5
REMARK VINA RESULT:      -5.9      1.195      1.235
REMARK  Name = 
REMARK  4 active torsions:
REMARK  status: ('A' for Active; 'I' for Inactive)
REMARK    1  A    between atoms: C_1  and  C_2
REMARK    2  A    between atoms: C_2  and  C_3
REMARK    3  A    between atoms: N_4  and  N_5
REMARK    4  A    between atoms: C_10  and  C_11
REMARK                            x       y       z     vdW  Elec       q    Type
REMARK                         _______ _______ _______ _____ _____    ______ ____
ROOT
ATOM      1  C   UNL     1       5.309   4.518  19.054  0.00  0.00    +0.000 C 
ATOM      2  C   UNL     1       4.734   4.172  17.708  0.00  0.00    +0.000 C 
ATOM      3  C   UNL     1       3.518   3.632  17.493  0.00  0.00    +0.000 C 
ENDROOT
BRANCH   3   4
ATOM      4  C   UNL     1       2.585   3.416  18.550  0.00  0.00    +0.000 A 
ATOM      5  C   UNL     1       1.528   4.218  18.967  0.00  0.00    +0.000 A 
ATOM      6  C   UNL     1       0.904   3.583  20.071  0.00  0.00    +0.000 A 
ATOM      7  C   UNL     1       1.615   2.434  20.292  0.00  0.00    +0.000 A 
ATOM      8  O   UNL     1       2.620   2.325  19.394  0.00  0.00    +0.000 OA
ENDBRANCH   3   4
BRANCH   2   9
ATOM      9  C   UNL     1       5.587   4.437  16.510  0.00  0.00    +0.000 C 
ATOM     10  N   UNL     1       5.260   3.980  15.348  0.00  0.00    +0.000 NA
BRANCH  10  11
ATOM     11  N   UNL     1       6.085   4.210  14.292  0.00  0.00    +0.000 N 
ATOM     12  C   UNL     1       6.153   3.682  13.029  0.00  0.00    +0.000 A 
ATOM     13  N   UNL     1       7.126   4.247  12.346  0.00  0.00    +0.000 NA
ATOM     14  N   UNL     1       7.724   5.173  13.166  0.00  0.00    +0.000 NA
ATOM     15  C   UNL     1       7.095   5.138  14.318  0.00  0.00    +0.000 A 
ENDBRANCH  10  11
ENDBRANCH   2   9
TORSDOF 3
ENDMDL
MODEL 6
REMARK VINA RESULT:      -5.9      3.509      6.979
REMARK  Name = 
REMARK  4 active torsions:
REMARK  status: ('A' for Active; 'I' for Inactive)
REMARK    1  A    between atoms: C_1  and  C_2
REMARK    2  A    between atoms: C_2  and  C_3
REMARK    3  A    between atoms: N_4  and  N_5
REMARK    4  A    between atoms: C_10  and  C_11
REMARK                            x       y       z     vdW  Elec       q    Type
REMARK                         _______ _______ _______ _____ _____    ______ ____
ROOT
ATOM      1  C   UNL     1       7.326   4.504  17.119  0.00  0.00    +0.000 C 
ATOM      2  C   UNL     1       5.861   4.674  16.823  0.00  0.00    +0.000 C 
ATOM      3  C   UNL     1       5.320   4.781  15.594  0.00  0.00    +0.000 C 
ENDROOT
BRANCH   3   4
ATOM      4  C   UNL     1       6.098   4.645  14.406  0.00  0.00    +0.000 A 
ATOM      5  C   UNL     1       5.992   3.703  13.388  0.00  0.00    +0.000 A 
ATOM      6  C   UNL     1       7.004   3.973  12.433  0.00  0.00    +0.000 A 
ATOM      7  C   UNL     1       7.694   5.053  12.914  0.00  0.00    +0.000 A 
ATOM      8  O   UNL     1       7.165   5.460  14.090  0.00  0.00    +0.000 OA
ENDBRANCH   3   4
BRANCH   2   9
ATOM      9  C   UNL     1       4.930   4.740  17.990  0.00  0.00    +0.000 C 
ATOM     10  N   UNL     1       4.574   3.670  18.617  0.00  0.00    +0.000 NA
BRANCH  10  11
ATOM     11  N   UNL     1       3.694   3.770  19.648  0.00  0.00    +0.000 N 
ATOM     12  C   UNL     1       2.973   4.817  20.162  0.00  0.00    +0.000 A 
ATOM     13  N   UNL     1       2.226   4.411  21.167  0.00  0.00    +0.000 NA
ATOM     14  N   UNL     1       2.447   3.066  21.332  0.00  0.00    +0.000 NA
ATOM     15  C   UNL     1       3.322   2.701  20.423  0.00  0.00    +0.000 A 
ENDBRANCH  10  11
ENDBRANCH   2   9
TORSDOF 3
ENDMDL
MODEL 7
REMARK VINA RESULT:      -5.8      0.892      1.432
REMARK  Name = 
REMARK  4 active torsions:
REMARK  status: ('A' for Active; 'I' for Inactive)
REMARK    1  A    between atoms: C_1  and  C_2
REMARK    2  A    between atoms: C_2  and  C_3
REMARK    3  A    between atoms: N_4  and  N_5
REMARK    4  A    between atoms: C_10  and  C_11
REMARK                            x       y       z     vdW  Elec       q    Type
REMARK                         _______ _______ _______ _____ _____    ______ ____
ROOT
ATOM      1  C   UNL     1       2.574   3.468  17.109  0.00  0.00    +0.000 C 
ATOM      2  C   UNL     1       3.810   4.127  17.654  0.00  0.00    +0.000 C 
ATOM      3  C   UNL     1       4.082   4.319  18.960  0.00  0.00    +0.000 C 
ENDROOT
BRANCH   3   4
ATOM      4  C   UNL     1       3.239   3.814  19.994  0.00  0.00    +0.000 A 
ATOM      5  C   UNL     1       2.121   4.396  20.580  0.00  0.00    +0.000 A 
ATOM      6  C   UNL     1       1.637   3.512  21.577  0.00  0.00    +0.000 A 
ATOM      7  C   UNL     1       2.487   2.438  21.570  0.00  0.00    +0.000 A 
ATOM      8  O   UNL     1       3.448   2.609  20.633  0.00  0.00    +0.000 OA
ENDBRANCH   3   4
BRANCH   2   9
ATOM      9  C   UNL     1       4.816   4.621  16.665  0.00  0.00    +0.000 C 
ATOM     10  N   UNL     1       5.180   3.889  15.666  0.00  0.00    +0.000 NA
BRANCH  10  11
ATOM     11  N   UNL     1       6.128   4.360  14.813  0.00  0.00    +0.000 N 
ATOM     12  C   UNL     1       7.149   5.263  14.957  0.00  0.00    +0.000 A 
ATOM     13  N   UNL     1       7.825   5.377  13.834  0.00  0.00    +0.000 NA
ATOM     14  N   UNL     1       7.247   4.535  12.916  0.00  0.00    +0.000 NA
ATOM     15  C   UNL     1       6.241   3.939  13.512  0.00  0.00    +0.000 A 
ENDBRANCH  10  11
ENDBRANCH   2   9
TORSDOF 3
ENDMDL
MODEL 8
REMARK VINA RESULT:      -5.7      0.486      1.052
REMARK  Name = 
REMARK  4 active torsions:
REMARK  status: ('A' for Active; 'I' for Inactive)
REMARK    1  A    between atoms: C_1  and  C_2
REMARK    2  A    between atoms: C_2  and  C_3
REMARK    3  A    between atoms: N_4  and  N_5
REMARK    4  A    between atoms: C_10  and  C_11
REMARK                            x       y       z     vdW  Elec       q    Type
REMARK                         _______ _______ _______ _____ _____    ______ ____
ROOT
ATOM      1  C   UNL     1       2.390   5.867  18.040  0.00  0.00    +0.000 C 
ATOM      2  C   UNL     1       3.527   4.899  17.867  0.00  0.00    +0.000 C 
ATOM      3  C   UNL     1       3.770   3.831  18.652  0.00  0.00    +0.000 C 
ENDROOT
BRANCH   3   4
ATOM      4  C   UNL     1       2.888   3.444  19.705  0.00  0.00    +0.000 A 
ATOM      5  C   UNL     1       1.742   2.659  19.647  0.00  0.00    +0.000 A 
ATOM      6  C   UNL     1       1.199   2.578  20.954  0.00  0.00    +0.000 A 
ATOM      7  C   UNL     1       2.024   3.328  21.749  0.00  0.00    +0.000 A 
ATOM      8  O   UNL     1       3.032   3.851  21.015  0.00  0.00    +0.000 OA
ENDBRANCH   3   4
BRANCH   2   9
ATOM      9  C   UNL     1       4.474   5.149  16.738  0.00  0.00    +0.000 C 
ATOM     10  N   UNL     1       5.153   4.184  16.216  0.00  0.00    +0.000 NA
BRANCH  10  11
ATOM     11  N   UNL     1       6.034   4.460  15.218  0.00  0.00    +0.000 N 
ATOM     12  C   UNL     1       7.181   5.207  15.165  0.00  0.00    +0.000 A 
ATOM     13  N   UNL     1       7.709   5.157  13.961  0.00  0.00    +0.000 NA
ATOM     14  N   UNL     1       6.901   4.360  13.188  0.00  0.00    +0.000 NA
ATOM     15  C   UNL     1       5.910   3.955  13.948  0.00  0.00    +0.000 A 
ENDBRANCH  10  11
ENDBRANCH   2   9
TORSDOF 3
ENDMDL
MODEL 9
REMARK VINA RESULT:      -5.7      0.980      1.744
REMARK  Name = 
REMARK  4 active torsions:
REMARK  status: ('A' for Active; 'I' for Inactive)
REMARK    1  A    between atoms: C_1  and  C_2
REMARK    2  A    between atoms: C_2  and  C_3
REMARK    3  A    between atoms: N_4  and  N_5
REMARK    4  A    between atoms: C_10  and  C_11
REMARK                            x       y       z     vdW  Elec       q    Type
REMARK                         _______ _______ _______ _____ _____    ______ ____
ROOT
ATOM      1  C   UNL     1       2.640   2.528  17.189  0.00  0.00    +0.000 C 
ATOM      2  C   UNL     1       3.533   3.658  17.618  0.00  0.00    +0.000 C 
ATOM      3  C   UNL     1       3.588   4.184  18.858  0.00  0.00    +0.000 C 
ENDROOT
BRANCH   3   4
ATOM      4  C   UNL     1       2.847   3.637  19.948  0.00  0.00    +0.000 A 
ATOM      5  C   UNL     1       3.238   2.696  20.894  0.00  0.00    +0.000 A 
ATOM      6  C   UNL     1       2.142   2.463  21.761  0.00  0.00    +0.000 A 
ATOM      7  C   UNL     1       1.125   3.255  21.300  0.00  0.00    +0.000 A 
ATOM      8  O   UNL     1       1.532   3.957  20.219  0.00  0.00    +0.000 OA
ENDBRANCH   3   4
BRANCH   2   9
ATOM      9  C   UNL     1       4.426   4.258  16.581  0.00  0.00    +0.000 C 
ATOM     10  N   UNL     1       5.446   3.610  16.128  0.00  0.00    +0.000 NA
BRANCH  10  11
ATOM     11  N   UNL     1       6.256   4.207  15.214  0.00  0.00    +0.000 N 
ATOM     12  C   UNL     1       7.277   5.116  15.324  0.00  0.00    +0.000 A 
ATOM     13  N   UNL     1       7.784   5.383  14.140  0.00  0.00    +0.000 NA
ATOM     14  N   UNL     1       7.092   4.640  13.215  0.00  0.00    +0.000 NA
ATOM     15  C   UNL     1       6.188   3.948  13.869  0.00  0.00    +0.000 A 
ENDBRANCH  10  11
ENDBRANCH   2   9
TORSDOF 3
ENDMDL
