MODEL 1
REMARK VINA RESULT:      -7.7      0.000      0.000
REMARK  Name = 
REMARK  5 active torsions:
REMARK  status: ('A' for Active; 'I' for Inactive)
REMARK    1  A    between atoms: C_1  and  C_2
REMARK    2  A    between atoms: C_2  and  N_3
REMARK    3  A    between atoms: C_2  and  C_11
REMARK    4  A    between atoms: N_3  and  C_4
REMARK    5  A    between atoms: N_13  and  C_14
REMARK                            x       y       z     vdW  Elec       q    Type
REMARK                         _______ _______ _______ _____ _____    ______ ____
ROOT
ATOM      1  C   UNL     1       2.094   4.886  20.148  0.00  0.00    +0.000 C 
ATOM      2  O   UNL     1       1.095   4.622  19.482  0.00  0.00    +0.000 OA
ATOM      3  N   UNL     1       2.687   6.135  20.273  0.00  0.00    +0.000 N 
ATOM      4  H   UNL     1       3.567   6.160  20.783  0.00  0.00    +0.000 HD
ENDROOT
BRANCH   3   5
ATOM      5  C   UNL     1       2.134   7.359  19.838  0.00  0.00    +0.000 A 
ATOM      6  C   UNL     1       2.288   7.814  18.523  0.00  0.00    +0.000 A 
ATOM      7  C   UNL     1       1.724   9.018  18.103  0.00  0.00    +0.000 A 
ATOM      8  C   UNL     1       1.007   9.793  19.003  0.00  0.00    +0.000 A 
ATOM      9  C   UNL     1       0.822   9.346  20.315  0.00  0.00    +0.000 A 
ATOM     10  C   UNL     1       1.379   8.129  20.733  0.00  0.00    +0.000 A 
ATOM     11  O   UNL     1       0.113  10.065  21.247  0.00  0.00    +0.000 OA
ATOM     12  C   UNL     1      -0.687  11.084  20.627  0.00  0.00    +0.000 C 
ATOM     13  C   UNL     1       0.101  11.841  19.572  0.00  0.00    +0.000 C 
ATOM     14  O   UNL     1       0.500  10.967  18.515  0.00  0.00    +0.000 OA
ENDBRANCH   3   5
BRANCH   1  16
ATOM     15  C   UNL     1       1.807   2.901  21.599  0.00  0.00    +0.000 C 
ATOM     16  C   UNL     1       2.843   3.748  20.864  0.00  0.00    +0.000 C 
BRANCH  16  17
ATOM     17  N   UNL     1       3.615   2.897  19.936  0.00  0.00    +0.000 N 
ATOM     18  H   UNL     1       4.244   2.261  20.425  0.00  0.00    +0.000 HD
BRANCH  17  19
ATOM     19  C   UNL     1       4.260   3.460  18.823  0.00  0.00    +0.000 A 
ATOM     20  C   UNL     1       3.888   3.232  17.492  0.00  0.00    +0.000 A 
ATOM     21  C   UNL     1       4.675   3.684  16.424  0.00  0.00    +0.000 A 
ATOM     22  C   UNL     1       5.856   4.370  16.677  0.00  0.00    +0.000 A 
ATOM     23 BR   UNL     1       6.951   4.927  15.242  0.00  0.00    +0.000 Br
ATOM     24  C   UNL     1       6.244   4.626  17.987  0.00  0.00    +0.000 A 
ATOM     25  C   UNL     1       5.453   4.166  19.047  0.00  0.00    +0.000 A 
ENDBRANCH  17  19
ENDBRANCH  16  17
ENDBRANCH   1  16
TORSDOF 4
ENDMDL
MODEL 2
REMARK VINA RESULT:      -7.7      0.392      1.073
REMARK  Name = 
REMARK  5 active torsions:
REMARK  status: ('A' for Active; 'I' for Inactive)
REMARK    1  A    between atoms: C_1  and  C_2
REMARK    2  A    between atoms: C_2  and  N_3
REMARK    3  A    between atoms: C_2  and  C_11
REMARK    4  A    between atoms: N_3  and  C_4
REMARK    5  A    between atoms: N_13  and  C_14
REMARK                            x       y       z     vdW  Elec       q    Type
REMARK                         _______ _______ _______ _____ _____    ______ ____
ROOT
ATOM      1  C   UNL     1       2.031   4.667  20.249  0.00  0.00    +0.000 C 
ATOM      2  O   UNL     1       1.015   4.433  19.599  0.00  0.00    +0.000 OA
ATOM      3  N   UNL     1       2.691   5.886  20.327  0.00  0.00    +0.000 N 
ATOM      4  H   UNL     1       3.574   5.882  20.831  0.00  0.00    +0.000 HD
ENDROOT
BRANCH   3   5
ATOM      5  C   UNL     1       2.200   7.122  19.852  0.00  0.00    +0.000 A 
ATOM      6  C   UNL     1       2.385   7.530  18.525  0.00  0.00    +0.000 A 
ATOM      7  C   UNL     1       1.883   8.747  18.066  0.00  0.00    +0.000 A 
ATOM      8  C   UNL     1       1.197   9.581  18.937  0.00  0.00    +0.000 A 
ATOM      9  C   UNL     1       0.981   9.182  20.259  0.00  0.00    +0.000 A 
ATOM     10  C   UNL     1       1.476   7.953  20.718  0.00  0.00    +0.000 A 
ATOM     11  O   UNL     1       0.301   9.961  21.164  0.00  0.00    +0.000 OA
ATOM     12  C   UNL     1      -0.445  10.998  20.508  0.00  0.00    +0.000 C 
ATOM     13  C   UNL     1       0.387  11.686  19.438  0.00  0.00    +0.000 C 
ATOM     14  O   UNL     1       0.751  10.763  18.411  0.00  0.00    +0.000 OA
ENDBRANCH   3   5
BRANCH   1  16
ATOM     15  C   UNL     1       1.640   2.703  21.706  0.00  0.00    +0.000 C 
ATOM     16  C   UNL     1       2.724   3.516  21.002  0.00  0.00    +0.000 C 
BRANCH  16  17
ATOM     17  N   UNL     1       3.506   2.637  20.109  0.00  0.00    +0.000 N 
ATOM     18  H   UNL     1       4.102   1.991  20.626  0.00  0.00    +0.000 HD
BRANCH  17  19
ATOM     19  C   UNL     1       4.202   3.172  19.013  0.00  0.00    +0.000 A 
ATOM     20  C   UNL     1       5.295   4.043  19.115  0.00  0.00    +0.000 A 
ATOM     21  C   UNL     1       5.835   4.675  17.987  0.00  0.00    +0.000 A 
ATOM     22  C   UNL     1       5.280   4.447  16.734  0.00  0.00    +0.000 A 
ATOM     23 BR   UNL     1       5.966   5.345  15.220  0.00  0.00    +0.000 Br
ATOM     24  C   UNL     1       4.206   3.576  16.598  0.00  0.00    +0.000 A 
ATOM     25  C   UNL     1       3.670   2.953  17.732  0.00  0.00    +0.000 A 
ENDBRANCH  17  19
ENDBRANCH  16  17
ENDBRANCH   1  16
TORSDOF 4
ENDMDL
MODEL 3
REMARK VINA RESULT:      -7.5      1.776      2.676
REMARK  Name = 
REMARK  5 active torsions:
REMARK  status: ('A' for Active; 'I' for Inactive)
REMARK    1  A    between atoms: C_1  and  C_2
REMARK    2  A    between atoms: C_2  and  N_3
REMARK    3  A    between atoms: C_2  and  C_11
REMARK    4  A    between atoms: N_3  and  C_4
REMARK    5  A    between atoms: N_13  and  C_14
REMARK                            x       y       z     vdW  Elec       q    Type
REMARK                         _______ _______ _______ _____ _____    ______ ____
ROOT
ATOM      1  C   UNL     1       2.579   4.583  18.339  0.00  0.00    +0.000 C 
ATOM      2  O   UNL     1       1.586   4.655  17.619  0.00  0.00    +0.000 OA
ATOM      3  N   UNL     1       3.052   5.579  19.183  0.00  0.00    +0.000 N 
ATOM      4  H   UNL     1       3.944   5.392  19.635  0.00  0.00    +0.000 HD
ENDROOT
BRANCH   3   5
ATOM      5  C   UNL     1       2.365   6.763  19.529  0.00  0.00    +0.000 A 
ATOM      6  C   UNL     1       1.694   6.898  20.751  0.00  0.00    +0.000 A 
ATOM      7  C   UNL     1       1.032   8.079  21.086  0.00  0.00    +0.000 A 
ATOM      8  C   UNL     1       1.023   9.140  20.192  0.00  0.00    +0.000 A 
ATOM      9  C   UNL     1       1.707   9.034  18.977  0.00  0.00    +0.000 A 
ATOM     10  C   UNL     1       2.382   7.850  18.646  0.00  0.00    +0.000 A 
ATOM     11  O   UNL     1       1.741  10.055  18.058  0.00  0.00    +0.000 OA
ATOM     12  C   UNL     1       1.333  11.301  18.642  0.00  0.00    +0.000 C 
ATOM     13  C   UNL     1       0.085  11.132  19.493  0.00  0.00    +0.000 C 
ATOM     14  O   UNL     1       0.338  10.255  20.591  0.00  0.00    +0.000 OA
ENDBRANCH   3   5
BRANCH   1  16
ATOM     15  C   UNL     1       2.565   2.142  17.920  0.00  0.00    +0.000 C 
ATOM     16  C   UNL     1       3.464   3.324  18.278  0.00  0.00    +0.000 C 
BRANCH  16  17
ATOM     17  N   UNL     1       4.555   3.437  17.290  0.00  0.00    +0.000 N 
ATOM     18  H   UNL     1       5.050   2.557  17.156  0.00  0.00    +0.000 HD
BRANCH  17  19
ATOM     19  C   UNL     1       5.467   4.504  17.355  0.00  0.00    +0.000 A 
ATOM     20  C   UNL     1       6.434   4.662  18.356  0.00  0.00    +0.000 A 
ATOM     21  C   UNL     1       7.196   5.833  18.460  0.00  0.00    +0.000 A 
ATOM     22  C   UNL     1       6.994   6.872  17.560  0.00  0.00    +0.000 A 
ATOM     23 BR   UNL     1       7.976   8.476  17.733  0.00  0.00    +0.000 Br
ATOM     24  C   UNL     1       6.053   6.739  16.545  0.00  0.00    +0.000 A 
ATOM     25  C   UNL     1       5.293   5.567  16.453  0.00  0.00    +0.000 A 
ENDBRANCH  17  19
ENDBRANCH  16  17
ENDBRANCH   1  16
TORSDOF 4
ENDMDL
MODEL 4
REMARK VINA RESULT:      -7.5      3.973      7.887
REMARK  Name = 
REMARK  5 active torsions:
REMARK  status: ('A' for Active; 'I' for Inactive)
REMARK    1  A    between atoms: C_1  and  C_2
REMARK    2  A    between atoms: C_2  and  N_3
REMARK    3  A    between atoms: C_2  and  C_11
REMARK    4  A    between atoms: N_3  and  C_4
REMARK    5  A    between atoms: N_13  and  C_14
REMARK                            x       y       z     vdW  Elec       q    Type
REMARK                         _______ _______ _______ _____ _____    ______ ____
ROOT
ATOM      1  C   UNL     1       2.729   6.846  18.957  0.00  0.00    +0.000 C 
ATOM      2  O   UNL     1       2.705   7.860  18.263  0.00  0.00    +0.000 OA
ATOM      3  N   UNL     1       3.515   5.723  18.737  0.00  0.00    +0.000 N 
ATOM      4  H   UNL     1       3.339   4.931  19.351  0.00  0.00    +0.000 HD
ENDROOT
BRANCH   3   5
ATOM      5  C   UNL     1       4.577   5.626  17.812  0.00  0.00    +0.000 A 
ATOM      6  C   UNL     1       5.848   6.143  18.090  0.00  0.00    +0.000 A 
ATOM      7  C   UNL     1       6.893   6.027  17.173  0.00  0.00    +0.000 A 
ATOM      8  C   UNL     1       6.673   5.400  15.955  0.00  0.00    +0.000 A 
ATOM      9  C   UNL     1       5.417   4.857  15.668  0.00  0.00    +0.000 A 
ATOM     10  C   UNL     1       4.371   4.963  16.595  0.00  0.00    +0.000 A 
ATOM     11  O   UNL     1       5.144   4.216  14.483  0.00  0.00    +0.000 OA
ATOM     12  C   UNL     1       6.348   3.863  13.786  0.00  0.00    +0.000 C 
ATOM     13  C   UNL     1       7.340   5.015  13.777  0.00  0.00    +0.000 C 
ATOM     14  O   UNL     1       7.745   5.343  15.106  0.00  0.00    +0.000 OA
ENDBRANCH   3   5
BRANCH   1  16
ATOM     15  C   UNL     1       2.000   5.370  20.806  0.00  0.00    +0.000 C 
ATOM     16  C   UNL     1       1.758   6.725  20.146  0.00  0.00    +0.000 C 
BRANCH  16  17
ATOM     17  N   UNL     1       1.932   7.803  21.140  0.00  0.00    +0.000 N 
ATOM     18  H   UNL     1       2.252   7.451  22.042  0.00  0.00    +0.000 HD
BRANCH  17  19
ATOM     19  C   UNL     1       0.933   8.773  21.322  0.00  0.00    +0.000 A 
ATOM     20  C   UNL     1       0.393   9.557  20.294  0.00  0.00    +0.000 A 
ATOM     21  C   UNL     1      -0.475  10.623  20.567  0.00  0.00    +0.000 A 
ATOM     22  C   UNL     1      -0.811  10.923  21.881  0.00  0.00    +0.000 A 
ATOM     23 BR   UNL     1      -1.933  12.397  22.256  0.00  0.00    +0.000 Br
ATOM     24  C   UNL     1      -0.305  10.153  22.921  0.00  0.00    +0.000 A 
ATOM     25  C   UNL     1       0.566   9.093  22.639  0.00  0.00    +0.000 A 
ENDBRANCH  17  19
ENDBRANCH  16  17
ENDBRANCH   1  16
TORSDOF 4
ENDMDL
MODEL 5
REMARK VINA RESULT:      -7.5      1.750      2.247
REMARK  Name = 
REMARK  5 active torsions:
REMARK  status: ('A' for Active; 'I' for Inactive)
REMARK    1  A    between atoms: C_1  and  C_2
REMARK    2  A    between atoms: C_2  and  N_3
REMARK    3  A    between atoms: C_2  and  C_11
REMARK    4  A    between atoms: N_3  and  C_4
REMARK    5  A    between atoms: N_13  and  C_14
REMARK                            x       y       z     vdW  Elec       q    Type
REMARK                         _______ _______ _______ _____ _____    ______ ____
ROOT
ATOM      1  C   UNL     1       2.518   4.668  18.366  0.00  0.00    +0.000 C 
ATOM      2  O   UNL     1       1.588   4.728  17.565  0.00  0.00    +0.000 OA
ATOM      3  N   UNL     1       2.994   5.712  19.148  0.00  0.00    +0.000 N 
ATOM      4  H   UNL     1       3.836   5.517  19.685  0.00  0.00    +0.000 HD
ENDROOT
BRANCH   3   5
ATOM      5  C   UNL     1       2.366   6.964  19.325  0.00  0.00    +0.000 A 
ATOM      6  C   UNL     1       2.253   7.888  18.278  0.00  0.00    +0.000 A 
ATOM      7  C   UNL     1       1.617   9.115  18.463  0.00  0.00    +0.000 A 
ATOM      8  C   UNL     1       1.096   9.440  19.707  0.00  0.00    +0.000 A 
ATOM      9  C   UNL     1       1.177   8.522  20.758  0.00  0.00    +0.000 A 
ATOM     10  C   UNL     1       1.806   7.283  20.569  0.00  0.00    +0.000 A 
ATOM     11  O   UNL     1       0.670   8.784  22.008  0.00  0.00    +0.000 OA
ATOM     12  C   UNL     1      -0.237   9.897  21.984  0.00  0.00    +0.000 C 
ATOM     13  C   UNL     1       0.324  11.052  21.171  0.00  0.00    +0.000 C 
ATOM     14  O   UNL     1       0.503  10.670  19.807  0.00  0.00    +0.000 OA
ENDBRANCH   3   5
BRANCH   1  16
ATOM     15  C   UNL     1       2.377   2.206  18.146  0.00  0.00    +0.000 C 
ATOM     16  C   UNL     1       3.317   3.358  18.494  0.00  0.00    +0.000 C 
BRANCH  16  17
ATOM     17  N   UNL     1       4.501   3.320  17.613  0.00  0.00    +0.000 N 
ATOM     18  H   UNL     1       4.997   2.431  17.666  0.00  0.00    +0.000 HD
BRANCH  17  19
ATOM     19  C   UNL     1       5.415   4.387  17.601  0.00  0.00    +0.000 A 
ATOM     20  C   UNL     1       6.375   4.620  18.593  0.00  0.00    +0.000 A 
ATOM     21  C   UNL     1       7.139   5.795  18.610  0.00  0.00    +0.000 A 
ATOM     22  C   UNL     1       6.946   6.760  17.630  0.00  0.00    +0.000 A 
ATOM     23 BR   UNL     1       7.931   8.372  17.685  0.00  0.00    +0.000 Br
ATOM     24  C   UNL     1       6.012   6.551  16.623  0.00  0.00    +0.000 A 
ATOM     25  C   UNL     1       5.249   5.376  16.617  0.00  0.00    +0.000 A 
ENDBRANCH  17  19
ENDBRANCH  16  17
ENDBRANCH   1  16
TORSDOF 4
ENDMDL
MODEL 6
REMARK VINA RESULT:      -7.3      3.369      7.155
REMARK  Name = 
REMARK  5 active torsions:
REMARK  status: ('A' for Active; 'I' for Inactive)
REMARK    1  A    between atoms: C_1  and  C_2
REMARK    2  A    between atoms: C_2  and  N_3
REMARK    3  A    between atoms: C_2  and  C_11
REMARK    4  A    between atoms: N_3  and  C_4
REMARK    5  A    between atoms: N_13  and  C_14
REMARK                            x       y       z     vdW  Elec       q    Type
REMARK                         _______ _______ _______ _____ _____    ______ ____
ROOT
ATOM      1  C   UNL     1       2.696   4.653  19.043  0.00  0.00    +0.000 C 
ATOM      2  O   UNL     1       2.360   3.714  18.325  0.00  0.00    +0.000 OA
ATOM      3  N   UNL     1       3.920   5.308  19.013  0.00  0.00    +0.000 N 
ATOM      4  H   UNL     1       4.071   6.000  19.743  0.00  0.00    +0.000 HD
ENDROOT
BRANCH   3   5
ATOM      5  C   UNL     1       4.913   5.159  18.020  0.00  0.00    +0.000 A 
ATOM      6  C   UNL     1       6.276   5.287  18.314  0.00  0.00    +0.000 A 
ATOM      7  C   UNL     1       7.247   5.123  17.326  0.00  0.00    +0.000 A 
ATOM      8  C   UNL     1       6.863   4.840  16.024  0.00  0.00    +0.000 A 
ATOM      9  C   UNL     1       5.508   4.685  15.715  0.00  0.00    +0.000 A 
ATOM     10  C   UNL     1       4.533   4.838  16.710  0.00  0.00    +0.000 A 
ATOM     11  O   UNL     1       5.069   4.395  14.445  0.00  0.00    +0.000 OA
ATOM     12  C   UNL     1       6.140   3.921  13.614  0.00  0.00    +0.000 C 
ATOM     13  C   UNL     1       7.386   4.778  13.774  0.00  0.00    +0.000 C 
ATOM     14  O   UNL     1       7.877   4.710  15.113  0.00  0.00    +0.000 OA
ENDBRANCH   3   5
BRANCH   1  16
ATOM     15  C   UNL     1       1.604   4.009  21.169  0.00  0.00    +0.000 C 
ATOM     16  C   UNL     1       1.739   5.136  20.148  0.00  0.00    +0.000 C 
BRANCH  16  17
ATOM     17  N   UNL     1       2.211   6.364  20.819  0.00  0.00    +0.000 N 
ATOM     18  H   UNL     1       2.249   6.263  21.832  0.00  0.00    +0.000 HD
BRANCH  17  19
ATOM     19  C   UNL     1       1.676   7.616  20.473  0.00  0.00    +0.000 A 
ATOM     20  C   UNL     1       0.745   8.322  21.246  0.00  0.00    +0.000 A 
ATOM     21  C   UNL     1       0.123   9.481  20.764  0.00  0.00    +0.000 A 
ATOM     22  C   UNL     1       0.422   9.948  19.490  0.00  0.00    +0.000 A 
ATOM     23 BR   UNL     1      -0.461  11.476  18.814  0.00  0.00    +0.000 Br
ATOM     24  C   UNL     1       1.353   9.279  18.705  0.00  0.00    +0.000 A 
ATOM     25  C   UNL     1       1.966   8.119  19.194  0.00  0.00    +0.000 A 
ENDBRANCH  17  19
ENDBRANCH  16  17
ENDBRANCH   1  16
TORSDOF 4
ENDMDL
MODEL 7
REMARK VINA RESULT:      -7.3      3.709      7.392
REMARK  Name = 
REMARK  5 active torsions:
REMARK  status: ('A' for Active; 'I' for Inactive)
REMARK    1  A    between atoms: C_1  and  C_2
REMARK    2  A    between atoms: C_2  and  N_3
REMARK    3  A    between atoms: C_2  and  C_11
REMARK    4  A    between atoms: N_3  and  C_4
REMARK    5  A    between atoms: N_13  and  C_14
REMARK                            x       y       z     vdW  Elec       q    Type
REMARK                         _______ _______ _______ _____ _____    ______ ____
ROOT
ATOM      1  C   UNL     1       3.311   5.084  19.257  0.00  0.00    +0.000 C 
ATOM      2  O   UNL     1       3.817   3.987  19.483  0.00  0.00    +0.000 OA
ATOM      3  N   UNL     1       3.794   6.042  18.376  0.00  0.00    +0.000 N 
ATOM      4  H   UNL     1       3.309   6.936  18.382  0.00  0.00    +0.000 HD
ENDROOT
BRANCH   3   5
ATOM      5  C   UNL     1       4.823   5.849  17.428  0.00  0.00    +0.000 A 
ATOM      6  C   UNL     1       6.127   6.307  17.650  0.00  0.00    +0.000 A 
ATOM      7  C   UNL     1       7.137   6.096  16.712  0.00  0.00    +0.000 A 
ATOM      8  C   UNL     1       6.849   5.432  15.528  0.00  0.00    +0.000 A 
ATOM      9  C   UNL     1       5.559   4.946  15.297  0.00  0.00    +0.000 A 
ATOM     10  C   UNL     1       4.547   5.148  16.247  0.00  0.00    +0.000 A 
ATOM     11  O   UNL     1       5.218   4.274  14.149  0.00  0.00    +0.000 OA
ATOM     12  C   UNL     1       6.381   3.827  13.436  0.00  0.00    +0.000 C 
ATOM     13  C   UNL     1       7.433   4.921  13.352  0.00  0.00    +0.000 C 
ATOM     14  O   UNL     1       7.892   5.281  14.655  0.00  0.00    +0.000 OA
ENDBRANCH   3   5
BRANCH   1  16
ATOM     15  C   UNL     1       1.771   4.427  21.082  0.00  0.00    +0.000 C 
ATOM     16  C   UNL     1       2.070   5.520  20.058  0.00  0.00    +0.000 C 
BRANCH  16  17
ATOM     17  N   UNL     1       2.257   6.812  20.747  0.00  0.00    +0.000 N 
ATOM     18  H   UNL     1       2.337   6.705  21.758  0.00  0.00    +0.000 HD
BRANCH  17  19
ATOM     19  C   UNL     1       1.440   7.911  20.436  0.00  0.00    +0.000 A 
ATOM     20  C   UNL     1       1.529   8.655  19.252  0.00  0.00    +0.000 A 
ATOM     21  C   UNL     1       0.803   9.841  19.077  0.00  0.00    +0.000 A 
ATOM     22  C   UNL     1      -0.022  10.303  20.095  0.00  0.00    +0.000 A 
ATOM     23 BR   UNL     1      -0.955  11.934  19.887  0.00  0.00    +0.000 Br
ATOM     24  C   UNL     1      -0.144   9.579  21.274  0.00  0.00    +0.000 A 
ATOM     25  C   UNL     1       0.589   8.397  21.441  0.00  0.00    +0.000 A 
ENDBRANCH  17  19
ENDBRANCH  16  17
ENDBRANCH   1  16
TORSDOF 4
ENDMDL
MODEL 8
REMARK VINA RESULT:      -7.2      2.646      3.753
REMARK  Name = 
REMARK  5 active torsions:
REMARK  status: ('A' for Active; 'I' for Inactive)
REMARK    1  A    between atoms: C_1  and  C_2
REMARK    2  A    between atoms: C_2  and  N_3
REMARK    3  A    between atoms: C_2  and  C_11
REMARK    4  A    between atoms: N_3  and  C_4
REMARK    5  A    between atoms: N_13  and  C_14
REMARK                            x       y       z     vdW  Elec       q    Type
REMARK                         _______ _______ _______ _____ _____    ______ ____
ROOT
ATOM      1  C   UNL     1       4.624   6.107  17.061  0.00  0.00    +0.000 C 
ATOM      2  O   UNL     1       5.505   6.892  17.405  0.00  0.00    +0.000 OA
ATOM      3  N   UNL     1       3.291   6.153  17.447  0.00  0.00    +0.000 N 
ATOM      4  H   UNL     1       2.715   5.368  17.150  0.00  0.00    +0.000 HD
ENDROOT
BRANCH   3   5
ATOM      5  C   UNL     1       2.663   7.221  18.124  0.00  0.00    +0.000 A 
ATOM      6  C   UNL     1       2.370   8.431  17.483  0.00  0.00    +0.000 A 
ATOM      7  C   UNL     1       1.736   9.473  18.160  0.00  0.00    +0.000 A 
ATOM      8  C   UNL     1       1.398   9.320  19.496  0.00  0.00    +0.000 A 
ATOM      9  C   UNL     1       1.660   8.112  20.148  0.00  0.00    +0.000 A 
ATOM     10  C   UNL     1       2.287   7.060  19.464  0.00  0.00    +0.000 A 
ATOM     11  O   UNL     1       1.338   7.899  21.467  0.00  0.00    +0.000 OA
ATOM     12  C   UNL     1       0.408   8.882  21.946  0.00  0.00    +0.000 C 
ATOM     13  C   UNL     1       0.810  10.282  21.513  0.00  0.00    +0.000 C 
ATOM     14  O   UNL     1       0.793  10.396  20.090  0.00  0.00    +0.000 OA
ENDBRANCH   3   5
BRANCH   1  16
ATOM     15  C   UNL     1       6.237   5.269  15.380  0.00  0.00    +0.000 C 
ATOM     16  C   UNL     1       4.995   4.896  16.186  0.00  0.00    +0.000 C 
BRANCH  16  17
ATOM     17  N   UNL     1       5.261   3.678  16.977  0.00  0.00    +0.000 N 
ATOM     18  H   UNL     1       5.517   2.883  16.392  0.00  0.00    +0.000 HD
BRANCH  17  19
ATOM     19  C   UNL     1       4.370   3.274  17.985  0.00  0.00    +0.000 A 
ATOM     20  C   UNL     1       3.071   2.803  17.754  0.00  0.00    +0.000 A 
ATOM     21  C   UNL     1       2.175   2.580  18.808  0.00  0.00    +0.000 A 
ATOM     22  C   UNL     1       2.569   2.833  20.116  0.00  0.00    +0.000 A 
ATOM     23 BR   UNL     1       1.344   2.592  21.534  0.00  0.00    +0.000 Br
ATOM     24  C   UNL     1       3.856   3.286  20.379  0.00  0.00    +0.000 A 
ATOM     25  C   UNL     1       4.743   3.511  19.318  0.00  0.00    +0.000 A 
ENDBRANCH  17  19
ENDBRANCH  16  17
ENDBRANCH   1  16
TORSDOF 4
ENDMDL
MODEL 9
REMARK VINA RESULT:      -7.1      0.837      1.587
REMARK  Name = 
REMARK  5 active torsions:
REMARK  status: ('A' for Active; 'I' for Inactive)
REMARK    1  A    between atoms: C_1  and  C_2
REMARK    2  A    between atoms: C_2  and  N_3
REMARK    3  A    between atoms: C_2  and  C_11
REMARK    4  A    between atoms: N_3  and  C_4
REMARK    5  A    between atoms: N_13  and  C_14
REMARK                            x       y       z     vdW  Elec       q    Type
REMARK                         _______ _______ _______ _____ _____    ______ ____
ROOT
ATOM      1  C   UNL     1       1.769   4.709  20.486  0.00  0.00    +0.000 C 
ATOM      2  O   UNL     1       0.786   4.505  19.778  0.00  0.00    +0.000 OA
ATOM      3  N   UNL     1       2.254   5.951  20.874  0.00  0.00    +0.000 N 
ATOM      4  H   UNL     1       3.137   5.944  21.379  0.00  0.00    +0.000 HD
ENDROOT
BRANCH   3   5
ATOM      5  C   UNL     1       1.591   7.186  20.708  0.00  0.00    +0.000 A 
ATOM      6  C   UNL     1       0.595   7.613  21.595  0.00  0.00    +0.000 A 
ATOM      7  C   UNL     1      -0.043   8.843  21.428  0.00  0.00    +0.000 A 
ATOM      8  C   UNL     1       0.301   9.657  20.359  0.00  0.00    +0.000 A 
ATOM      9  C   UNL     1       1.309   9.259  19.476  0.00  0.00    +0.000 A 
ATOM     10  C   UNL     1       1.958   8.028  19.651  0.00  0.00    +0.000 A 
ATOM     11  O   UNL     1       1.699  10.028  18.406  0.00  0.00    +0.000 OA
ATOM     12  C   UNL     1       1.233  11.380  18.533  0.00  0.00    +0.000 C 
ATOM     13  C   UNL     1      -0.223  11.425  18.967  0.00  0.00    +0.000 C 
ATOM     14  O   UNL     1      -0.383  10.838  20.259  0.00  0.00    +0.000 OA
ENDBRANCH   3   5
BRANCH   1  16
ATOM     15  C   UNL     1       1.742   2.611  21.801  0.00  0.00    +0.000 C 
ATOM     16  C   UNL     1       2.626   3.515  20.945  0.00  0.00    +0.000 C 
BRANCH  16  17
ATOM     17  N   UNL     1       3.186   2.744  19.818  0.00  0.00    +0.000 N 
ATOM     18  H   UNL     1       3.671   1.902  20.126  0.00  0.00    +0.000 HD
BRANCH  17  19
ATOM     19  C   UNL     1       3.921   3.388  18.809  0.00  0.00    +0.000 A 
ATOM     20  C   UNL     1       3.585   3.371  17.449  0.00  0.00    +0.000 A 
ATOM     21  C   UNL     1       4.450   3.887  16.475  0.00  0.00    +0.000 A 
ATOM     22  C   UNL     1       5.674   4.425  16.852  0.00  0.00    +0.000 A 
ATOM     23 BR   UNL     1       6.869   5.065  15.536  0.00  0.00    +0.000 Br
ATOM     24  C   UNL     1       6.030   4.470  18.194  0.00  0.00    +0.000 A 
ATOM     25  C   UNL     1       5.160   3.947  19.160  0.00  0.00    +0.000 A 
ENDBRANCH  17  19
ENDBRANCH  16  17
ENDBRANCH   1  16
TORSDOF 4
ENDMDL
