MODEL 1
REMARK VINA RESULT:      -8.3      0.000      0.000
REMARK  Name = 
REMARK  6 active torsions:
REMARK  status: ('A' for Active; 'I' for Inactive)
REMARK    1  A    between atoms: C_1  and  C_2
REMARK    2  A    between atoms: C_2  and  C_4
REMARK    3  A    between atoms: C_8  and  N_9
REMARK    4  A    between atoms: N_9  and  C_10
REMARK    5  A    between atoms: C_10  and  N_12
REMARK    6  A    between atoms: C_13  and  C_15
REMARK                            x       y       z     vdW  Elec       q    Type
REMARK                         _______ _______ _______ _____ _____    ______ ____
ROOT
ATOM      1  C   UNL     1       6.189   5.609  16.898  0.00  0.00    +0.000 C 
ATOM      2  S   UNL     1       7.086   7.001  17.141  0.00  0.00    +0.000 S 
ENDROOT
BRANCH   1   3
ATOM      3  N   UNL     1       5.011   5.474  17.619  0.00  0.00    +0.000 N 
ATOM      4  C   UNL     1       4.815   4.662  18.722  0.00  0.00    +0.000 C 
ATOM      5  O   UNL     1       5.763   4.211  19.366  0.00  0.00    +0.000 OA
ATOM      6  H   UNL     1       4.211   5.929  17.198  0.00  0.00    +0.000 HD
BRANCH   4   7
ATOM      7  C   UNL     1       3.438   4.381  19.208  0.00  0.00    +0.000 A 
ATOM      8  C   UNL     1       2.849   5.449  19.914  0.00  0.00    +0.000 A 
ATOM      9  C   UNL     1       1.627   5.306  20.566  0.00  0.00    +0.000 A 
ATOM     10  C   UNL     1       0.964   4.088  20.516  0.00  0.00    +0.000 A 
ATOM     11  C   UNL     1       1.514   3.027  19.796  0.00  0.00    +0.000 A 
ATOM     12  C   UNL     1       2.750   3.163  19.139  0.00  0.00    +0.000 A 
ATOM     13 BR   UNL     1       3.394   1.618  18.243  0.00  0.00    +0.000 Br
ENDBRANCH   4   7
ENDBRANCH   1   3
BRANCH   1  14
ATOM     14  N   UNL     1       6.498   4.548  16.072  0.00  0.00    +0.000 N 
ATOM     15  H   UNL     1       6.606   3.655  16.565  0.00  0.00    +0.000 HD
BRANCH  14  20
ATOM     16  C   UNL     1       6.119   3.656  12.503  0.00  0.00    +0.000 A 
ATOM     17  C   UNL     1       7.125   4.432  11.917  0.00  0.00    +0.000 A 
ATOM     18  C   UNL     1       7.917   5.262  12.709  0.00  0.00    +0.000 A 
ATOM     19  C   UNL     1       7.737   5.289  14.092  0.00  0.00    +0.000 A 
ATOM     20  C   UNL     1       6.743   4.515  14.690  0.00  0.00    +0.000 A 
ATOM     21  C   UNL     1       5.900   3.740  13.887  0.00  0.00    +0.000 A 
BRANCH  16  23
ATOM     22  C   UNL     1       3.947   3.157  11.198  0.00  0.00    +0.000 C 
ATOM     23  C   UNL     1       5.292   2.703  11.704  0.00  0.00    +0.000 C 
ATOM     24  O   UNL     1       5.724   1.581  11.445  0.00  0.00    +0.000 OA
ENDBRANCH  16  23
ENDBRANCH  14  20
ENDBRANCH   1  14
TORSDOF 5
ENDMDL
MODEL 2
REMARK VINA RESULT:      -8.1      1.270      1.694
REMARK  Name = 
REMARK  6 active torsions:
REMARK  status: ('A' for Active; 'I' for Inactive)
REMARK    1  A    between atoms: C_1  and  C_2
REMARK    2  A    between atoms: C_2  and  C_4
REMARK    3  A    between atoms: C_8  and  N_9
REMARK    4  A    between atoms: N_9  and  C_10
REMARK    5  A    between atoms: C_10  and  N_12
REMARK    6  A    between atoms: C_13  and  C_15
REMARK                            x       y       z     vdW  Elec       q    Type
REMARK                         _______ _______ _______ _____ _____    ______ ____
ROOT
ATOM      1  C   UNL     1       6.402   5.405  16.883  0.00  0.00    +0.000 C 
ATOM      2  S   UNL     1       7.107   6.838  17.380  0.00  0.00    +0.000 S 
ENDROOT
BRANCH   1   3
ATOM      3  N   UNL     1       5.164   5.082  17.420  0.00  0.00    +0.000 N 
ATOM      4  C   UNL     1       4.934   4.262  18.511  0.00  0.00    +0.000 C 
ATOM      5  O   UNL     1       5.830   3.986  19.310  0.00  0.00    +0.000 OA
ATOM      6  H   UNL     1       4.376   5.389  16.864  0.00  0.00    +0.000 HD
BRANCH   4   7
ATOM      7  C   UNL     1       3.563   3.759  18.792  0.00  0.00    +0.000 A 
ATOM      8  C   UNL     1       3.372   2.400  18.470  0.00  0.00    +0.000 A 
ATOM      9  C   UNL     1       2.114   1.807  18.528  0.00  0.00    +0.000 A 
ATOM     10  C   UNL     1       1.019   2.564  18.919  0.00  0.00    +0.000 A 
ATOM     11  C   UNL     1       1.191   3.903  19.274  0.00  0.00    +0.000 A 
ATOM     12  C   UNL     1       2.458   4.509  19.213  0.00  0.00    +0.000 A 
ATOM     13 BR   UNL     1       2.525   6.349  19.676  0.00  0.00    +0.000 Br
ENDBRANCH   4   7
ENDBRANCH   1   3
BRANCH   1  14
ATOM     14  N   UNL     1       6.923   4.475  16.008  0.00  0.00    +0.000 N 
ATOM     15  H   UNL     1       7.342   3.659  16.467  0.00  0.00    +0.000 HD
BRANCH  14  20
ATOM     16  C   UNL     1       6.211   3.694  12.464  0.00  0.00    +0.000 A 
ATOM     17  C   UNL     1       7.115   4.537  11.808  0.00  0.00    +0.000 A 
ATOM     18  C   UNL     1       7.950   5.373  12.547  0.00  0.00    +0.000 A 
ATOM     19  C   UNL     1       7.915   5.343  13.941  0.00  0.00    +0.000 A 
ATOM     20  C   UNL     1       7.024   4.502  14.607  0.00  0.00    +0.000 A 
ATOM     21  C   UNL     1       6.135   3.718  13.865  0.00  0.00    +0.000 A 
BRANCH  16  23
ATOM     22  C   UNL     1       3.988   3.190  11.250  0.00  0.00    +0.000 C 
ATOM     23  C   UNL     1       5.345   2.733  11.717  0.00  0.00    +0.000 C 
ATOM     24  O   UNL     1       5.756   1.601  11.467  0.00  0.00    +0.000 OA
ENDBRANCH  16  23
ENDBRANCH  14  20
ENDBRANCH   1  14
TORSDOF 5
ENDMDL
MODEL 3
REMARK VINA RESULT:      -7.8      1.538      1.818
REMARK  Name = 
REMARK  6 active torsions:
REMARK  status: ('A' for Active; 'I' for Inactive)
REMARK    1  A    between atoms: C_1  and  C_2
REMARK    2  A    between atoms: C_2  and  C_4
REMARK    3  A    between atoms: C_8  and  N_9
REMARK    4  A    between atoms: N_9  and  C_10
REMARK    5  A    between atoms: C_10  and  N_12
REMARK    6  A    between atoms: C_13  and  C_15
REMARK                            x       y       z     vdW  Elec       q    Type
REMARK                         _______ _______ _______ _____ _____    ______ ____
ROOT
ATOM      1  C   UNL     1       6.219   4.702  17.167  0.00  0.00    +0.000 C 
ATOM      2  S   UNL     1       7.841   4.606  17.568  0.00  0.00    +0.000 S 
ENDROOT
BRANCH   1   3
ATOM      3  N   UNL     1       5.296   4.476  18.178  0.00  0.00    +0.000 N 
ATOM      4  C   UNL     1       4.161   3.690  18.089  0.00  0.00    +0.000 C 
ATOM      5  O   UNL     1       4.021   2.858  17.192  0.00  0.00    +0.000 OA
ATOM      6  H   UNL     1       5.430   5.051  19.000  0.00  0.00    +0.000 HD
BRANCH   4   7
ATOM      7  C   UNL     1       3.108   3.777  19.136  0.00  0.00    +0.000 A 
ATOM      8  C   UNL     1       2.779   2.539  19.724  0.00  0.00    +0.000 A 
ATOM      9  C   UNL     1       1.713   2.413  20.611  0.00  0.00    +0.000 A 
ATOM     10  C   UNL     1       0.959   3.532  20.936  0.00  0.00    +0.000 A 
ATOM     11  C   UNL     1       1.288   4.774  20.390  0.00  0.00    +0.000 A 
ATOM     12  C   UNL     1       2.360   4.907  19.490  0.00  0.00    +0.000 A 
ATOM     13 BR   UNL     1       2.653   6.648  18.793  0.00  0.00    +0.000 Br
ENDBRANCH   4   7
ENDBRANCH   1   3
BRANCH   1  14
ATOM     14  N   UNL     1       5.678   4.958  15.924  0.00  0.00    +0.000 N 
ATOM     15  H   UNL     1       4.728   5.344  15.955  0.00  0.00    +0.000 HD
BRANCH  14  20
ATOM     16  C   UNL     1       5.938   3.626  12.484  0.00  0.00    +0.000 A 
ATOM     17  C   UNL     1       7.124   4.226  12.045  0.00  0.00    +0.000 A 
ATOM     18  C   UNL     1       7.826   5.083  12.891  0.00  0.00    +0.000 A 
ATOM     19  C   UNL     1       7.372   5.314  14.189  0.00  0.00    +0.000 A 
ATOM     20  C   UNL     1       6.195   4.717  14.641  0.00  0.00    +0.000 A 
ATOM     21  C   UNL     1       5.452   3.916  13.768  0.00  0.00    +0.000 A 
BRANCH  16  23
ATOM     22  C   UNL     1       3.854   3.056  11.071  0.00  0.00    +0.000 C 
ATOM     23  C   UNL     1       5.189   2.650  11.639  0.00  0.00    +0.000 C 
ATOM     24  O   UNL     1       5.676   1.548  11.393  0.00  0.00    +0.000 OA
ENDBRANCH  16  23
ENDBRANCH  14  20
ENDBRANCH   1  14
TORSDOF 5
ENDMDL
MODEL 4
REMARK VINA RESULT:      -7.6      1.410      1.578
REMARK  Name = 
REMARK  6 active torsions:
REMARK  status: ('A' for Active; 'I' for Inactive)
REMARK    1  A    between atoms: C_1  and  C_2
REMARK    2  A    between atoms: C_2  and  C_4
REMARK    3  A    between atoms: C_8  and  N_9
REMARK    4  A    between atoms: N_9  and  C_10
REMARK    5  A    between atoms: C_10  and  N_12
REMARK    6  A    between atoms: C_13  and  C_15
REMARK                            x       y       z     vdW  Elec       q    Type
REMARK                         _______ _______ _______ _____ _____    ______ ____
ROOT
ATOM      1  C   UNL     1       5.231   5.278  16.790  0.00  0.00    +0.000 C 
ATOM      2  S   UNL     1       4.982   6.892  16.424  0.00  0.00    +0.000 S 
ENDROOT
BRANCH   1   3
ATOM      3  N   UNL     1       4.602   4.775  17.920  0.00  0.00    +0.000 N 
ATOM      4  C   UNL     1       3.881   3.597  18.000  0.00  0.00    +0.000 C 
ATOM      5  O   UNL     1       3.990   2.716  17.147  0.00  0.00    +0.000 OA
ATOM      6  H   UNL     1       4.584   5.414  18.705  0.00  0.00    +0.000 HD
BRANCH   4   7
ATOM      7  C   UNL     1       3.012   3.331  19.177  0.00  0.00    +0.000 A 
ATOM      8  C   UNL     1       1.772   3.998  19.138  0.00  0.00    +0.000 A 
ATOM      9  C   UNL     1       0.900   3.982  20.224  0.00  0.00    +0.000 A 
ATOM     10  C   UNL     1       1.252   3.286  21.372  0.00  0.00    +0.000 A 
ATOM     11  C   UNL     1       2.461   2.590  21.420  0.00  0.00    +0.000 A 
ATOM     12  C   UNL     1       3.347   2.606  20.329  0.00  0.00    +0.000 A 
ATOM     13 BR   UNL     1       4.974   1.657  20.561  0.00  0.00    +0.000 Br
ENDBRANCH   4   7
ENDBRANCH   1   3
BRANCH   1  14
ATOM     14  N   UNL     1       6.021   4.377  16.108  0.00  0.00    +0.000 N 
ATOM     15  H   UNL     1       6.400   3.627  16.695  0.00  0.00    +0.000 HD
BRANCH  14  20
ATOM     16  C   UNL     1       6.087   3.523  12.510  0.00  0.00    +0.000 A 
ATOM     17  C   UNL     1       7.143   4.321  12.056  0.00  0.00    +0.000 A 
ATOM     18  C   UNL     1       7.821   5.152  12.947  0.00  0.00    +0.000 A 
ATOM     19  C   UNL     1       7.477   5.160  14.298  0.00  0.00    +0.000 A 
ATOM     20  C   UNL     1       6.431   4.364  14.765  0.00  0.00    +0.000 A 
ATOM     21  C   UNL     1       5.703   3.587  13.858  0.00  0.00    +0.000 A 
BRANCH  16  23
ATOM     22  C   UNL     1       6.076   1.297  11.200  0.00  0.00    +0.000 C 
ATOM     23  C   UNL     1       5.377   2.568  11.608  0.00  0.00    +0.000 C 
ATOM     24  O   UNL     1       4.230   2.811  11.235  0.00  0.00    +0.000 OA
ENDBRANCH  16  23
ENDBRANCH  14  20
ENDBRANCH   1  14
TORSDOF 5
ENDMDL
MODEL 5
REMARK VINA RESULT:      -7.6      3.957      8.270
REMARK  Name = 
REMARK  6 active torsions:
REMARK  status: ('A' for Active; 'I' for Inactive)
REMARK    1  A    between atoms: C_1  and  C_2
REMARK    2  A    between atoms: C_2  and  C_4
REMARK    3  A    between atoms: C_8  and  N_9
REMARK    4  A    between atoms: N_9  and  C_10
REMARK    5  A    between atoms: C_10  and  N_12
REMARK    6  A    between atoms: C_13  and  C_15
REMARK                            x       y       z     vdW  Elec       q    Type
REMARK                         _______ _______ _______ _____ _____    ______ ____
ROOT
ATOM      1  C   UNL     1       2.672   4.973  19.685  0.00  0.00    +0.000 C 
ATOM      2  S   UNL     1       1.717   3.727  20.263  0.00  0.00    +0.000 S 
ENDROOT
BRANCH   1   3
ATOM      3  N   UNL     1       3.480   4.702  18.589  0.00  0.00    +0.000 N 
ATOM      4  C   UNL     1       4.817   5.032  18.456  0.00  0.00    +0.000 C 
ATOM      5  O   UNL     1       5.509   5.325  19.433  0.00  0.00    +0.000 OA
ATOM      6  H   UNL     1       2.983   4.343  17.784  0.00  0.00    +0.000 HD
BRANCH   4   7
ATOM      7  C   UNL     1       5.477   4.959  17.126  0.00  0.00    +0.000 A 
ATOM      8  C   UNL     1       4.935   3.980  16.269  0.00  0.00    +0.000 A 
ATOM      9  C   UNL     1       5.526   3.673  15.046  0.00  0.00    +0.000 A 
ATOM     10  C   UNL     1       6.671   4.351  14.651  0.00  0.00    +0.000 A 
ATOM     11  C   UNL     1       7.206   5.347  15.470  0.00  0.00    +0.000 A 
ATOM     12  C   UNL     1       6.616   5.658  16.708  0.00  0.00    +0.000 A 
ATOM     13 BR   UNL     1       7.485   6.999  17.732  0.00  0.00    +0.000 Br
ENDBRANCH   4   7
ENDBRANCH   1   3
BRANCH   1  14
ATOM     14  N   UNL     1       2.777   6.252  20.190  0.00  0.00    +0.000 N 
ATOM     15  H   UNL     1       3.393   6.328  21.006  0.00  0.00    +0.000 HD
BRANCH  14  20
ATOM     16  C   UNL     1       0.714   9.313  20.423  0.00  0.00    +0.000 A 
ATOM     17  C   UNL     1       0.853   9.838  19.133  0.00  0.00    +0.000 A 
ATOM     18  C   UNL     1       1.643   9.178  18.193  0.00  0.00    +0.000 A 
ATOM     19  C   UNL     1       2.266   7.974  18.522  0.00  0.00    +0.000 A 
ATOM     20  C   UNL     1       2.130   7.437  19.802  0.00  0.00    +0.000 A 
ATOM     21  C   UNL     1       1.397   8.136  20.767  0.00  0.00    +0.000 A 
BRANCH  16  23
ATOM     22  C   UNL     1      -0.166   9.411  22.848  0.00  0.00    +0.000 C 
ATOM     23  C   UNL     1      -0.176   9.947  21.440  0.00  0.00    +0.000 C 
ATOM     24  O   UNL     1      -0.877  10.908  21.131  0.00  0.00    +0.000 OA
ENDBRANCH  16  23
ENDBRANCH  14  20
ENDBRANCH   1  14
TORSDOF 5
ENDMDL
MODEL 6
REMARK VINA RESULT:      -7.5      1.228      1.328
REMARK  Name = 
REMARK  6 active torsions:
REMARK  status: ('A' for Active; 'I' for Inactive)
REMARK    1  A    between atoms: C_1  and  C_2
REMARK    2  A    between atoms: C_2  and  C_4
REMARK    3  A    between atoms: C_8  and  N_9
REMARK    4  A    between atoms: N_9  and  C_10
REMARK    5  A    between atoms: C_10  and  N_12
REMARK    6  A    between atoms: C_13  and  C_15
REMARK                            x       y       z     vdW  Elec       q    Type
REMARK                         _______ _______ _______ _____ _____    ______ ____
ROOT
ATOM      1  C   UNL     1       6.170   4.966  16.986  0.00  0.00    +0.000 C 
ATOM      2  S   UNL     1       7.706   4.519  17.476  0.00  0.00    +0.000 S 
ENDROOT
BRANCH   1   3
ATOM      3  N   UNL     1       5.173   4.987  17.951  0.00  0.00    +0.000 N 
ATOM      4  C   UNL     1       3.865   4.564  17.787  0.00  0.00    +0.000 C 
ATOM      5  O   UNL     1       3.537   3.834  16.851  0.00  0.00    +0.000 OA
ATOM      6  H   UNL     1       5.426   5.475  18.801  0.00  0.00    +0.000 HD
BRANCH   4   7
ATOM      7  C   UNL     1       2.833   4.921  18.795  0.00  0.00    +0.000 A 
ATOM      8  C   UNL     1       2.809   6.288  19.136  0.00  0.00    +0.000 A 
ATOM      9  C   UNL     1       2.010   6.768  20.170  0.00  0.00    +0.000 A 
ATOM     10  C   UNL     1       1.208   5.886  20.880  0.00  0.00    +0.000 A 
ATOM     11  C   UNL     1       1.190   4.533  20.537  0.00  0.00    +0.000 A 
ATOM     12  C   UNL     1       1.998   4.041  19.497  0.00  0.00    +0.000 A 
ATOM     13 BR   UNL     1       1.906   2.172  19.182  0.00  0.00    +0.000 Br
ENDBRANCH   4   7
ENDBRANCH   1   3
BRANCH   1  14
ATOM     14  N   UNL     1       5.760   5.297  15.711  0.00  0.00    +0.000 N 
ATOM     15  H   UNL     1       4.917   5.879  15.683  0.00  0.00    +0.000 HD
BRANCH  14  20
ATOM     16  C   UNL     1       5.977   3.657  12.404  0.00  0.00    +0.000 A 
ATOM     17  C   UNL     1       7.204   4.141  11.936  0.00  0.00    +0.000 A 
ATOM     18  C   UNL     1       7.949   5.023  12.717  0.00  0.00    +0.000 A 
ATOM     19  C   UNL     1       7.495   5.394  13.982  0.00  0.00    +0.000 A 
ATOM     20  C   UNL     1       6.277   4.913  14.464  0.00  0.00    +0.000 A 
ATOM     21  C   UNL     1       5.495   4.087  13.650  0.00  0.00    +0.000 A 
BRANCH  16  23
ATOM     22  C   UNL     1       3.839   3.072  11.079  0.00  0.00    +0.000 C 
ATOM     23  C   UNL     1       5.178   2.659  11.633  0.00  0.00    +0.000 C 
ATOM     24  O   UNL     1       5.628   1.532  11.434  0.00  0.00    +0.000 OA
ENDBRANCH  16  23
ENDBRANCH  14  20
ENDBRANCH   1  14
TORSDOF 5
ENDMDL
MODEL 7
REMARK VINA RESULT:      -7.4      3.049      4.373
REMARK  Name = 
REMARK  6 active torsions:
REMARK  status: ('A' for Active; 'I' for Inactive)
REMARK    1  A    between atoms: C_1  and  C_2
REMARK    2  A    between atoms: C_2  and  C_4
REMARK    3  A    between atoms: C_8  and  N_9
REMARK    4  A    between atoms: N_9  and  C_10
REMARK    5  A    between atoms: C_10  and  N_12
REMARK    6  A    between atoms: C_13  and  C_15
REMARK                            x       y       z     vdW  Elec       q    Type
REMARK                         _______ _______ _______ _____ _____    ______ ____
ROOT
ATOM      1  C   UNL     1       4.084   3.235  19.338  0.00  0.00    +0.000 C 
ATOM      2  S   UNL     1       3.182   1.846  19.097  0.00  0.00    +0.000 S 
ENDROOT
BRANCH   1   3
ATOM      3  N   UNL     1       3.417   4.356  19.810  0.00  0.00    +0.000 N 
ATOM      4  C   UNL     1       2.560   5.165  19.084  0.00  0.00    +0.000 C 
ATOM      5  O   UNL     1       2.059   4.786  18.024  0.00  0.00    +0.000 OA
ATOM      6  H   UNL     1       3.701   4.652  20.735  0.00  0.00    +0.000 HD
BRANCH   4   7
ATOM      7  C   UNL     1       2.156   6.493  19.616  0.00  0.00    +0.000 A 
ATOM      8  C   UNL     1       1.418   6.432  20.815  0.00  0.00    +0.000 A 
ATOM      9  C   UNL     1       0.833   7.568  21.370  0.00  0.00    +0.000 A 
ATOM     10  C   UNL     1       0.984   8.793  20.737  0.00  0.00    +0.000 A 
ATOM     11  C   UNL     1       1.738   8.882  19.566  0.00  0.00    +0.000 A 
ATOM     12  C   UNL     1       2.327   7.739  18.998  0.00  0.00    +0.000 A 
ATOM     13 BR   UNL     1       3.279   8.009  17.378  0.00  0.00    +0.000 Br
ENDBRANCH   4   7
ENDBRANCH   1   3
BRANCH   1  14
ATOM     14  N   UNL     1       5.430   3.412  19.095  0.00  0.00    +0.000 N 
ATOM     15  H   UNL     1       6.033   2.735  19.573  0.00  0.00    +0.000 HD
BRANCH  14  20
ATOM     16  C   UNL     1       6.819   5.215  16.180  0.00  0.00    +0.000 A 
ATOM     17  C   UNL     1       7.356   6.354  16.790  0.00  0.00    +0.000 A 
ATOM     18  C   UNL     1       7.242   6.526  18.169  0.00  0.00    +0.000 A 
ATOM     19  C   UNL     1       6.629   5.545  18.948  0.00  0.00    +0.000 A 
ATOM     20  C   UNL     1       6.096   4.402  18.353  0.00  0.00    +0.000 A 
ATOM     21  C   UNL     1       6.145   4.265  16.962  0.00  0.00    +0.000 A 
BRANCH  16  23
ATOM     22  C   UNL     1       6.055   3.967  14.052  0.00  0.00    +0.000 C 
ATOM     23  C   UNL     1       6.975   4.957  14.717  0.00  0.00    +0.000 C 
ATOM     24  O   UNL     1       7.825   5.569  14.072  0.00  0.00    +0.000 OA
ENDBRANCH  16  23
ENDBRANCH  14  20
ENDBRANCH   1  14
TORSDOF 5
ENDMDL
MODEL 8
REMARK VINA RESULT:      -7.4      4.139      6.065
REMARK  Name = 
REMARK  6 active torsions:
REMARK  status: ('A' for Active; 'I' for Inactive)
REMARK    1  A    between atoms: C_1  and  C_2
REMARK    2  A    between atoms: C_2  and  C_4
REMARK    3  A    between atoms: C_8  and  N_9
REMARK    4  A    between atoms: N_9  and  C_10
REMARK    5  A    between atoms: C_10  and  N_12
REMARK    6  A    between atoms: C_13  and  C_15
REMARK                            x       y       z     vdW  Elec       q    Type
REMARK                         _______ _______ _______ _____ _____    ______ ____
ROOT
ATOM      1  C   UNL     1       2.357   5.157  20.674  0.00  0.00    +0.000 C 
ATOM      2  S   UNL     1       1.624   3.693  21.021  0.00  0.00    +0.000 S 
ENDROOT
BRANCH   1   3
ATOM      3  N   UNL     1       1.628   6.311  20.924  0.00  0.00    +0.000 N 
ATOM      4  C   UNL     1       1.716   7.502  20.226  0.00  0.00    +0.000 C 
ATOM      5  O   UNL     1       2.231   7.558  19.109  0.00  0.00    +0.000 OA
ATOM      6  H   UNL     1       1.084   6.283  21.777  0.00  0.00    +0.000 HD
BRANCH   4   7
ATOM      7  C   UNL     1       1.110   8.741  20.783  0.00  0.00    +0.000 A 
ATOM      8  C   UNL     1       0.834   8.676  22.163  0.00  0.00    +0.000 A 
ATOM      9  C   UNL     1       0.131   9.687  22.814  0.00  0.00    +0.000 A 
ATOM     10  C   UNL     1      -0.303  10.791  22.094  0.00  0.00    +0.000 A 
ATOM     11  C   UNL     1      -0.011  10.891  20.733  0.00  0.00    +0.000 A 
ATOM     12  C   UNL     1       0.694   9.873  20.069  0.00  0.00    +0.000 A 
ATOM     13 BR   UNL     1       0.971  10.126  18.208  0.00  0.00    +0.000 Br
ENDBRANCH   4   7
ENDBRANCH   1   3
BRANCH   1  14
ATOM     14  N   UNL     1       3.610   5.359  20.135  0.00  0.00    +0.000 N 
ATOM     15  H   UNL     1       4.250   5.872  20.751  0.00  0.00    +0.000 HD
BRANCH  14  20
ATOM     16  C   UNL     1       5.836   5.367  17.182  0.00  0.00    +0.000 A 
ATOM     17  C   UNL     1       5.231   4.395  16.378  0.00  0.00    +0.000 A 
ATOM     18  C   UNL     1       4.090   3.730  16.826  0.00  0.00    +0.000 A 
ATOM     19  C   UNL     1       3.528   4.059  18.059  0.00  0.00    +0.000 A 
ATOM     20  C   UNL     1       4.117   5.030  18.868  0.00  0.00    +0.000 A 
ATOM     21  C   UNL     1       5.302   5.645  18.450  0.00  0.00    +0.000 A 
BRANCH  16  23
ATOM     22  C   UNL     1       7.528   7.277  17.578  0.00  0.00    +0.000 C 
ATOM     23  C   UNL     1       7.017   6.152  16.715  0.00  0.00    +0.000 C 
ATOM     24  O   UNL     1       7.573   5.858  15.659  0.00  0.00    +0.000 OA
ENDBRANCH  16  23
ENDBRANCH  14  20
ENDBRANCH   1  14
TORSDOF 5
ENDMDL
MODEL 9
REMARK VINA RESULT:      -7.4      1.246      1.271
REMARK  Name = 
REMARK  6 active torsions:
REMARK  status: ('A' for Active; 'I' for Inactive)
REMARK    1  A    between atoms: C_1  and  C_2
REMARK    2  A    between atoms: C_2  and  C_4
REMARK    3  A    between atoms: C_8  and  N_9
REMARK    4  A    between atoms: N_9  and  C_10
REMARK    5  A    between atoms: C_10  and  N_12
REMARK    6  A    between atoms: C_13  and  C_15
REMARK                            x       y       z     vdW  Elec       q    Type
REMARK                         _______ _______ _______ _____ _____    ______ ____
ROOT
ATOM      1  C   UNL     1       5.394   5.271  16.693  0.00  0.00    +0.000 C 
ATOM      2  S   UNL     1       5.051   6.893  16.464  0.00  0.00    +0.000 S 
ENDROOT
BRANCH   1   3
ATOM      3  N   UNL     1       4.699   4.607  17.694  0.00  0.00    +0.000 N 
ATOM      4  C   UNL     1       3.427   4.073  17.592  0.00  0.00    +0.000 C 
ATOM      5  O   UNL     1       2.904   3.859  16.497  0.00  0.00    +0.000 OA
ATOM      6  H   UNL     1       5.142   4.644  18.603  0.00  0.00    +0.000 HD
BRANCH   4   7
ATOM      7  C   UNL     1       2.688   3.662  18.815  0.00  0.00    +0.000 A 
ATOM      8  C   UNL     1       1.848   4.664  19.342  0.00  0.00    +0.000 A 
ATOM      9  C   UNL     1       1.200   4.503  20.564  0.00  0.00    +0.000 A 
ATOM     10  C   UNL     1       1.373   3.327  21.280  0.00  0.00    +0.000 A 
ATOM     11  C   UNL     1       2.174   2.309  20.761  0.00  0.00    +0.000 A 
ATOM     12  C   UNL     1       2.835   2.467  19.530  0.00  0.00    +0.000 A 
ATOM     13 BR   UNL     1       3.929   1.017  18.979  0.00  0.00    +0.000 Br
ENDBRANCH   4   7
ENDBRANCH   1   3
BRANCH   1  14
ATOM     14  N   UNL     1       6.319   4.507  16.014  0.00  0.00    +0.000 N 
ATOM     15  H   UNL     1       6.903   3.923  16.621  0.00  0.00    +0.000 HD
BRANCH  14  20
ATOM     16  C   UNL     1       6.071   3.586  12.441  0.00  0.00    +0.000 A 
ATOM     17  C   UNL     1       7.118   4.334  11.890  0.00  0.00    +0.000 A 
ATOM     18  C   UNL     1       7.895   5.154  12.707  0.00  0.00    +0.000 A 
ATOM     19  C   UNL     1       7.658   5.200  14.081  0.00  0.00    +0.000 A 
ATOM     20  C   UNL     1       6.622   4.454  14.644  0.00  0.00    +0.000 A 
ATOM     21  C   UNL     1       5.796   3.690  13.813  0.00  0.00    +0.000 A 
BRANCH  16  23
ATOM     22  C   UNL     1       3.912   3.098  11.111  0.00  0.00    +0.000 C 
ATOM     23  C   UNL     1       5.257   2.644  11.617  0.00  0.00    +0.000 C 
ATOM     24  O   UNL     1       5.700   1.532  11.337  0.00  0.00    +0.000 OA
ENDBRANCH  16  23
ENDBRANCH  14  20
ENDBRANCH   1  14
TORSDOF 5
ENDMDL
