MODEL 1
REMARK VINA RESULT:      -6.6      0.000      0.000
REMARK  Name = 
REMARK  2 active torsions:
REMARK  status: ('A' for Active; 'I' for Inactive)
REMARK    1  A    between atoms: C_1  and  N_2
REMARK    2  A    between atoms: C_9  and  C_10
REMARK                            x       y       z     vdW  Elec       q    Type
REMARK                         _______ _______ _______ _____ _____    ______ ____
ROOT
ATOM      1  C   UNL     1       4.920   4.116  16.254  0.00  0.00    +0.000 C 
ATOM      2  N   UNL     1       4.251   4.412  17.499  0.00  0.00    +0.000 N 
ATOM      3  C   UNL     1       3.003   3.899  17.735  0.00  0.00    +0.000 C 
ATOM      4  O   UNL     1       2.411   3.208  16.912  0.00  0.00    +0.000 OA
ATOM      5  N   UNL     1       2.455   4.221  18.944  0.00  0.00    +0.000 N 
ATOM      6  C   UNL     1       1.215   3.650  19.375  0.00  0.00    +0.000 C 
ATOM      7  C   UNL     1       1.297   3.803  20.874  0.00  0.00    +0.000 C 
ATOM      8  O   UNL     1       2.266   4.835  21.136  0.00  0.00    +0.000 OA
ATOM      9  C   UNL     1       2.849   5.244  19.881  0.00  0.00    +0.000 C 
ATOM     10  H   UNL     1       4.847   4.490  18.308  0.00  0.00    +0.000 HD
ENDROOT
BRANCH   9  11
ATOM     11  C   UNL     1       2.346   6.649  19.546  0.00  0.00    +0.000 A 
ATOM     12  C   UNL     1       1.726   7.434  20.538  0.00  0.00    +0.000 A 
ATOM     13  C   UNL     1       1.264   8.724  20.260  0.00  0.00    +0.000 A 
ATOM     14  C   UNL     1       1.433   9.258  18.987  0.00  0.00    +0.000 A 
ATOM     15 CL   UNL     1       0.859  10.841  18.637  0.00  0.00    +0.000 Cl
ATOM     16  C   UNL     1       2.066   8.517  17.997  0.00  0.00    +0.000 A 
ATOM     17  C   UNL     1       2.524   7.225  18.277  0.00  0.00    +0.000 A 
ENDBRANCH   9  11
TORSDOF 1
ENDMDL
MODEL 2
REMARK VINA RESULT:      -6.5      0.079      1.206
REMARK  Name = 
REMARK  2 active torsions:
REMARK  status: ('A' for Active; 'I' for Inactive)
REMARK    1  A    between atoms: C_1  and  N_2
REMARK    2  A    between atoms: C_9  and  C_10
REMARK                            x       y       z     vdW  Elec       q    Type
REMARK                         _______ _______ _______ _____ _____    ______ ____
ROOT
ATOM      1  C   UNL     1       5.037   4.159  16.352  0.00  0.00    +0.000 C 
ATOM      2  N   UNL     1       4.324   4.437  17.576  0.00  0.00    +0.000 N 
ATOM      3  C   UNL     1       3.065   3.927  17.757  0.00  0.00    +0.000 C 
ATOM      4  O   UNL     1       2.500   3.254  16.900  0.00  0.00    +0.000 OA
ATOM      5  N   UNL     1       2.475   4.232  18.950  0.00  0.00    +0.000 N 
ATOM      6  C   UNL     1       1.217   3.660  19.326  0.00  0.00    +0.000 C 
ATOM      7  C   UNL     1       1.245   3.786  20.829  0.00  0.00    +0.000 C 
ATOM      8  O   UNL     1       2.209   4.808  21.145  0.00  0.00    +0.000 OA
ATOM      9  C   UNL     1       2.840   5.235  19.919  0.00  0.00    +0.000 C 
ATOM     10  H   UNL     1       4.890   4.497  18.408  0.00  0.00    +0.000 HD
ENDROOT
BRANCH   9  11
ATOM     11  C   UNL     1       2.358   6.648  19.592  0.00  0.00    +0.000 A 
ATOM     12  C   UNL     1       2.497   7.160  18.287  0.00  0.00    +0.000 A 
ATOM     13  C   UNL     1       2.057   8.446  17.960  0.00  0.00    +0.000 A 
ATOM     14  C   UNL     1       1.450   9.236  18.931  0.00  0.00    +0.000 A 
ATOM     15 CL   UNL     1       0.914  10.822  18.537  0.00  0.00    +0.000 Cl
ATOM     16  C   UNL     1       1.274   8.746  20.220  0.00  0.00    +0.000 A 
ATOM     17  C   UNL     1       1.719   7.461  20.545  0.00  0.00    +0.000 A 
ENDBRANCH   9  11
TORSDOF 1
ENDMDL
MODEL 3
REMARK VINA RESULT:      -6.5      2.172      3.381
REMARK  Name = 
REMARK  2 active torsions:
REMARK  status: ('A' for Active; 'I' for Inactive)
REMARK    1  A    between atoms: C_1  and  N_2
REMARK    2  A    between atoms: C_9  and  C_10
REMARK                            x       y       z     vdW  Elec       q    Type
REMARK                         _______ _______ _______ _____ _____    ______ ____
ROOT
ATOM      1  C   UNL     1       2.792   1.833  18.698  0.00  0.00    +0.000 C 
ATOM      2  N   UNL     1       3.279   3.116  18.249  0.00  0.00    +0.000 N 
ATOM      3  C   UNL     1       4.443   3.619  18.771  0.00  0.00    +0.000 C 
ATOM      4  O   UNL     1       5.084   3.027  19.634  0.00  0.00    +0.000 OA
ATOM      5  N   UNL     1       4.832   4.830  18.276  0.00  0.00    +0.000 N 
ATOM      6  C   UNL     1       6.090   5.412  18.636  0.00  0.00    +0.000 C 
ATOM      7  C   UNL     1       6.341   6.363  17.492  0.00  0.00    +0.000 C 
ATOM      8  O   UNL     1       5.067   6.617  16.873  0.00  0.00    +0.000 OA
ATOM      9  C   UNL     1       4.072   5.793  17.517  0.00  0.00    +0.000 C 
ATOM     10  H   UNL     1       3.112   3.333  17.279  0.00  0.00    +0.000 HD
ENDROOT
BRANCH   9  11
ATOM     11  C   UNL     1       3.161   6.693  18.351  0.00  0.00    +0.000 A 
ATOM     12  C   UNL     1       2.686   7.908  17.819  0.00  0.00    +0.000 A 
ATOM     13  C   UNL     1       1.846   8.746  18.558  0.00  0.00    +0.000 A 
ATOM     14  C   UNL     1       1.450   8.372  19.838  0.00  0.00    +0.000 A 
ATOM     15 CL   UNL     1       0.423   9.402  20.755  0.00  0.00    +0.000 Cl
ATOM     16  C   UNL     1       1.880   7.166  20.377  0.00  0.00    +0.000 A 
ATOM     17  C   UNL     1       2.724   6.331  19.636  0.00  0.00    +0.000 A 
ENDBRANCH   9  11
TORSDOF 1
ENDMDL
MODEL 4
REMARK VINA RESULT:      -6.4      2.064      2.453
REMARK  Name = 
REMARK  2 active torsions:
REMARK  status: ('A' for Active; 'I' for Inactive)
REMARK    1  A    between atoms: C_1  and  N_2
REMARK    2  A    between atoms: C_9  and  C_10
REMARK                            x       y       z     vdW  Elec       q    Type
REMARK                         _______ _______ _______ _____ _____    ______ ____
ROOT
ATOM      1  C   UNL     1       7.902   5.615  19.361  0.00  0.00    +0.000 C 
ATOM      2  N   UNL     1       6.510   5.235  19.395  0.00  0.00    +0.000 N 
ATOM      3  C   UNL     1       5.945   4.638  18.299  0.00  0.00    +0.000 C 
ATOM      4  O   UNL     1       6.575   4.431  17.266  0.00  0.00    +0.000 OA
ATOM      5  N   UNL     1       4.628   4.302  18.429  0.00  0.00    +0.000 N 
ATOM      6  C   UNL     1       3.946   3.557  17.413  0.00  0.00    +0.000 C 
ATOM      7  C   UNL     1       2.799   2.948  18.179  0.00  0.00    +0.000 C 
ATOM      8  O   UNL     1       2.623   3.739  19.368  0.00  0.00    +0.000 OA
ATOM      9  C   UNL     1       3.668   4.734  19.414  0.00  0.00    +0.000 C 
ATOM     10  H   UNL     1       6.165   4.917  20.287  0.00  0.00    +0.000 HD
ENDROOT
BRANCH   9  11
ATOM     11  C   UNL     1       3.045   6.104  19.146  0.00  0.00    +0.000 A 
ATOM     12  C   UNL     1       2.277   6.741  20.140  0.00  0.00    +0.000 A 
ATOM     13  C   UNL     1       1.703   7.997  19.922  0.00  0.00    +0.000 A 
ATOM     14  C   UNL     1       1.906   8.648  18.709  0.00  0.00    +0.000 A 
ATOM     15 CL   UNL     1       1.196  10.190  18.432  0.00  0.00    +0.000 Cl
ATOM     16  C   UNL     1       2.683   8.056  17.721  0.00  0.00    +0.000 A 
ATOM     17  C   UNL     1       3.253   6.798  17.941  0.00  0.00    +0.000 A 
ENDBRANCH   9  11
TORSDOF 1
ENDMDL
MODEL 5
REMARK VINA RESULT:      -6.4      2.172      3.250
REMARK  Name = 
REMARK  2 active torsions:
REMARK  status: ('A' for Active; 'I' for Inactive)
REMARK    1  A    between atoms: C_1  and  N_2
REMARK    2  A    between atoms: C_9  and  C_10
REMARK                            x       y       z     vdW  Elec       q    Type
REMARK                         _______ _______ _______ _____ _____    ______ ____
ROOT
ATOM      1  C   UNL     1       2.815   1.894  18.638  0.00  0.00    +0.000 C 
ATOM      2  N   UNL     1       3.288   3.182  18.186  0.00  0.00    +0.000 N 
ATOM      3  C   UNL     1       4.437   3.705  18.718  0.00  0.00    +0.000 C 
ATOM      4  O   UNL     1       5.077   3.129  19.592  0.00  0.00    +0.000 OA
ATOM      5  N   UNL     1       4.813   4.920  18.220  0.00  0.00    +0.000 N 
ATOM      6  C   UNL     1       6.058   5.523  18.591  0.00  0.00    +0.000 C 
ATOM      7  C   UNL     1       6.308   6.470  17.444  0.00  0.00    +0.000 C 
ATOM      8  O   UNL     1       5.037   6.701  16.808  0.00  0.00    +0.000 OA
ATOM      9  C   UNL     1       4.048   5.865  17.445  0.00  0.00    +0.000 C 
ATOM     10  H   UNL     1       3.128   3.389  17.213  0.00  0.00    +0.000 HD
ENDROOT
BRANCH   9  11
ATOM     11  C   UNL     1       3.113   6.757  18.263  0.00  0.00    +0.000 A 
ATOM     12  C   UNL     1       2.687   6.352  19.543  0.00  0.00    +0.000 A 
ATOM     13  C   UNL     1       1.839   7.152  20.314  0.00  0.00    +0.000 A 
ATOM     14  C   UNL     1       1.418   8.384  19.824  0.00  0.00    +0.000 A 
ATOM     15 CL   UNL     1       0.367   9.369  20.764  0.00  0.00    +0.000 Cl
ATOM     16  C   UNL     1       1.845   8.822  18.576  0.00  0.00    +0.000 A 
ATOM     17  C   UNL     1       2.691   8.017  17.806  0.00  0.00    +0.000 A 
ENDBRANCH   9  11
TORSDOF 1
ENDMDL
MODEL 6
REMARK VINA RESULT:      -6.4      1.716      3.067
REMARK  Name = 
REMARK  2 active torsions:
REMARK  status: ('A' for Active; 'I' for Inactive)
REMARK    1  A    between atoms: C_1  and  N_2
REMARK    2  A    between atoms: C_9  and  C_10
REMARK                            x       y       z     vdW  Elec       q    Type
REMARK                         _______ _______ _______ _____ _____    ______ ____
ROOT
ATOM      1  C   UNL     1       0.869   2.516  18.868  0.00  0.00    +0.000 C 
ATOM      2  N   UNL     1       1.737   3.599  18.471  0.00  0.00    +0.000 N 
ATOM      3  C   UNL     1       2.921   3.795  19.132  0.00  0.00    +0.000 C 
ATOM      4  O   UNL     1       3.269   3.093  20.077  0.00  0.00    +0.000 OA
ATOM      5  N   UNL     1       3.681   4.834  18.678  0.00  0.00    +0.000 N 
ATOM      6  C   UNL     1       4.997   5.073  19.190  0.00  0.00    +0.000 C 
ATOM      7  C   UNL     1       5.633   5.869  18.077  0.00  0.00    +0.000 C 
ATOM      8  O   UNL     1       4.560   6.427  17.297  0.00  0.00    +0.000 OA
ATOM      9  C   UNL     1       3.309   5.929  17.817  0.00  0.00    +0.000 C 
ATOM     10  H   UNL     1       1.752   3.808  17.485  0.00  0.00    +0.000 HD
ENDROOT
BRANCH   9  11
ATOM     11  C   UNL     1       2.583   7.078  18.517  0.00  0.00    +0.000 A 
ATOM     12  C   UNL     1       2.207   8.226  17.791  0.00  0.00    +0.000 A 
ATOM     13  C   UNL     1       1.536   9.287  18.406  0.00  0.00    +0.000 A 
ATOM     14  C   UNL     1       1.211   9.208  19.756  0.00  0.00    +0.000 A 
ATOM     15 CL   UNL     1       0.392  10.514  20.520  0.00  0.00    +0.000 Cl
ATOM     16  C   UNL     1       1.544   8.076  20.490  0.00  0.00    +0.000 A 
ATOM     17  C   UNL     1       2.219   7.018  19.873  0.00  0.00    +0.000 A 
ENDBRANCH   9  11
TORSDOF 1
ENDMDL
MODEL 7
REMARK VINA RESULT:      -6.4      1.585      2.300
REMARK  Name = 
REMARK  2 active torsions:
REMARK  status: ('A' for Active; 'I' for Inactive)
REMARK    1  A    between atoms: C_1  and  N_2
REMARK    2  A    between atoms: C_9  and  C_10
REMARK                            x       y       z     vdW  Elec       q    Type
REMARK                         _______ _______ _______ _____ _____    ______ ____
ROOT
ATOM      1  C   UNL     1       7.506   4.615  17.722  0.00  0.00    +0.000 C 
ATOM      2  N   UNL     1       6.178   4.405  18.249  0.00  0.00    +0.000 N 
ATOM      3  C   UNL     1       5.200   3.894  17.435  0.00  0.00    +0.000 C 
ATOM      4  O   UNL     1       5.402   3.629  16.254  0.00  0.00    +0.000 OA
ATOM      5  N   UNL     1       3.981   3.717  18.023  0.00  0.00    +0.000 N 
ATOM      6  C   UNL     1       2.906   3.074  17.329  0.00  0.00    +0.000 C 
ATOM      7  C   UNL     1       2.034   2.596  18.464  0.00  0.00    +0.000 C 
ATOM      8  O   UNL     1       2.378   3.386  19.617  0.00  0.00    +0.000 OA
ATOM      9  C   UNL     1       3.482   4.248  19.268  0.00  0.00    +0.000 C 
ATOM     10  H   UNL     1       6.130   4.117  19.213  0.00  0.00    +0.000 HD
ENDROOT
BRANCH   9  11
ATOM     11  C   UNL     1       2.971   5.686  19.193  0.00  0.00    +0.000 A 
ATOM     12  C   UNL     1       3.204   6.462  18.041  0.00  0.00    +0.000 A 
ATOM     13  C   UNL     1       2.740   7.778  17.944  0.00  0.00    +0.000 A 
ATOM     14  C   UNL     1       2.016   8.333  18.993  0.00  0.00    +0.000 A 
ATOM     15 CL   UNL     1       1.450   9.954  18.884  0.00  0.00    +0.000 Cl
ATOM     16  C   UNL     1       1.747   7.582  20.130  0.00  0.00    +0.000 A 
ATOM     17  C   UNL     1       2.215   6.267  20.226  0.00  0.00    +0.000 A 
ENDBRANCH   9  11
TORSDOF 1
ENDMDL
MODEL 8
REMARK VINA RESULT:      -6.4      3.890      5.368
REMARK  Name = 
REMARK  2 active torsions:
REMARK  status: ('A' for Active; 'I' for Inactive)
REMARK    1  A    between atoms: C_1  and  N_2
REMARK    2  A    between atoms: C_9  and  C_10
REMARK                            x       y       z     vdW  Elec       q    Type
REMARK                         _______ _______ _______ _____ _____    ______ ____
ROOT
ATOM      1  C   UNL     1       8.261   6.964  18.997  0.00  0.00    +0.000 C 
ATOM      2  N   UNL     1       7.521   6.000  18.219  0.00  0.00    +0.000 N 
ATOM      3  C   UNL     1       6.889   6.399  17.070  0.00  0.00    +0.000 C 
ATOM      4  O   UNL     1       6.904   7.564  16.683  0.00  0.00    +0.000 OA
ATOM      5  N   UNL     1       6.226   5.416  16.394  0.00  0.00    +0.000 N 
ATOM      6  C   UNL     1       5.631   5.663  15.114  0.00  0.00    +0.000 C 
ATOM      7  C   UNL     1       5.550   4.276  14.526  0.00  0.00    +0.000 C 
ATOM      8  O   UNL     1       5.620   3.351  15.627  0.00  0.00    +0.000 OA
ATOM      9  C   UNL     1       5.841   4.099  16.841  0.00  0.00    +0.000 C 
ATOM     10  H   UNL     1       7.902   5.067  18.200  0.00  0.00    +0.000 HD
ENDROOT
BRANCH   9  11
ATOM     11  C   UNL     1       4.564   4.054  17.679  0.00  0.00    +0.000 A 
ATOM     12  C   UNL     1       4.579   4.488  19.019  0.00  0.00    +0.000 A 
ATOM     13  C   UNL     1       3.423   4.464  19.804  0.00  0.00    +0.000 A 
ATOM     14  C   UNL     1       2.224   4.023  19.253  0.00  0.00    +0.000 A 
ATOM     15 CL   UNL     1       0.799   3.983  20.217  0.00  0.00    +0.000 Cl
ATOM     16  C   UNL     1       2.173   3.616  17.926  0.00  0.00    +0.000 A 
ATOM     17  C   UNL     1       3.332   3.638  17.144  0.00  0.00    +0.000 A 
ENDBRANCH   9  11
TORSDOF 1
ENDMDL
MODEL 9
REMARK VINA RESULT:      -6.3      3.923      5.472
REMARK  Name = 
REMARK  2 active torsions:
REMARK  status: ('A' for Active; 'I' for Inactive)
REMARK    1  A    between atoms: C_1  and  N_2
REMARK    2  A    between atoms: C_9  and  C_10
REMARK                            x       y       z     vdW  Elec       q    Type
REMARK                         _______ _______ _______ _____ _____    ______ ____
ROOT
ATOM      1  C   UNL     1       8.340   6.815  19.066  0.00  0.00    +0.000 C 
ATOM      2  N   UNL     1       7.569   5.893  18.266  0.00  0.00    +0.000 N 
ATOM      3  C   UNL     1       6.942   6.341  17.133  0.00  0.00    +0.000 C 
ATOM      4  O   UNL     1       6.989   7.515  16.778  0.00  0.00    +0.000 OA
ATOM      5  N   UNL     1       6.249   5.395  16.434  0.00  0.00    +0.000 N 
ATOM      6  C   UNL     1       5.655   5.693  15.165  0.00  0.00    +0.000 C 
ATOM      7  C   UNL     1       5.532   4.326  14.540  0.00  0.00    +0.000 C 
ATOM      8  O   UNL     1       5.582   3.369  15.614  0.00  0.00    +0.000 OA
ATOM      9  C   UNL     1       5.831   4.078  16.847  0.00  0.00    +0.000 C 
ATOM     10  H   UNL     1       7.925   4.951  18.220  0.00  0.00    +0.000 HD
ENDROOT
BRANCH   9  11
ATOM     11  C   UNL     1       4.556   4.045  17.691  0.00  0.00    +0.000 A 
ATOM     12  C   UNL     1       3.347   3.587  17.131  0.00  0.00    +0.000 A 
ATOM     13  C   UNL     1       2.170   3.540  17.883  0.00  0.00    +0.000 A 
ATOM     14  C   UNL     1       2.187   3.933  19.217  0.00  0.00    +0.000 A 
ATOM     15 CL   UNL     1       0.740   3.885  20.146  0.00  0.00    +0.000 Cl
ATOM     16  C   UNL     1       3.371   4.362  19.803  0.00  0.00    +0.000 A 
ATOM     17  C   UNL     1       4.547   4.412  19.047  0.00  0.00    +0.000 A 
ENDBRANCH   9  11
TORSDOF 1
ENDMDL
