MODEL 1
REMARK VINA RESULT:      -7.9      0.000      0.000
REMARK  Name = 
REMARK  7 active torsions:
REMARK  status: ('A' for Active; 'I' for Inactive)
REMARK    1  A    between atoms: C_1  and  C_2
REMARK    2  A    between atoms: C_3  and  C_4
REMARK    3  A    between atoms: C_3  and  C_14
REMARK    4  A    between atoms: C_4  and  C_7
REMARK    5  A    between atoms: C_5  and  C_6
REMARK    6  A    between atoms: C_10  and  O_11
REMARK    7  A    between atoms: C_17  and  O_18
REMARK                            x       y       z     vdW  Elec       q    Type
REMARK                         _______ _______ _______ _____ _____    ______ ____
ROOT
ATOM      1  C   UNL     1       0.667   2.812  18.603  0.00  0.00    +0.000 C 
ATOM      2  C   UNL     1       2.095   3.120  18.274  0.00  0.00    +0.000 C 
ATOM      3  C   UNL     1       2.848   4.145  18.723  0.00  0.00    +0.000 C 
ENDROOT
BRANCH   3   4
ATOM      4  C   UNL     1       4.185   4.243  18.085  0.00  0.00    +0.000 A 
ATOM      5  C   UNL     1       5.297   4.662  18.834  0.00  0.00    +0.000 A 
ATOM      6  C   UNL     1       6.560   4.759  18.245  0.00  0.00    +0.000 A 
ATOM      7  C   UNL     1       6.704   4.457  16.897  0.00  0.00    +0.000 A 
ATOM      8  C   UNL     1       5.606   4.083  16.129  0.00  0.00    +0.000 A 
ATOM      9  C   UNL     1       4.345   3.973  16.722  0.00  0.00    +0.000 A 
BRANCH   7  10
ATOM     10  O   UNL     1       7.922   4.520  16.287  0.00  0.00    +0.000 OA
ATOM     11  H   UNL     1       7.789   4.453  15.326  0.00  0.00    +0.000 HD
ENDBRANCH   7  10
ENDBRANCH   3   4
BRANCH   3  12
ATOM     12  C   UNL     1       2.383   5.143  19.714  0.00  0.00    +0.000 C 
ATOM     13  C   UNL     1       2.094   4.817  20.998  0.00  0.00    +0.000 C 
ATOM     14  C   UNL     1       2.300   3.535  21.734  0.00  0.00    +0.000 C 
BRANCH  12  15
ATOM     15  C   UNL     1       2.186   6.593  19.371  0.00  0.00    +0.000 A 
ATOM     16  C   UNL     1       1.671   7.505  20.317  0.00  0.00    +0.000 A 
ATOM     17  C   UNL     1       1.345   8.818  19.964  0.00  0.00    +0.000 A 
ATOM     18  C   UNL     1       1.593   9.254  18.670  0.00  0.00    +0.000 A 
ATOM     19  C   UNL     1       2.185   8.406  17.742  0.00  0.00    +0.000 A 
ATOM     20  C   UNL     1       2.461   7.077  18.083  0.00  0.00    +0.000 A 
BRANCH  18  21
ATOM     21  O   UNL     1       1.246  10.507  18.269  0.00  0.00    +0.000 OA
ATOM     22  H   UNL     1       1.074  10.486  17.312  0.00  0.00    +0.000 HD
ENDBRANCH  18  21
ENDBRANCH  12  15
ENDBRANCH   3  12
TORSDOF 5
ENDMDL
MODEL 2
REMARK VINA RESULT:      -7.8      0.327      1.128
REMARK  Name = 
REMARK  7 active torsions:
REMARK  status: ('A' for Active; 'I' for Inactive)
REMARK    1  A    between atoms: C_1  and  C_2
REMARK    2  A    between atoms: C_3  and  C_4
REMARK    3  A    between atoms: C_3  and  C_14
REMARK    4  A    between atoms: C_4  and  C_7
REMARK    5  A    between atoms: C_5  and  C_6
REMARK    6  A    between atoms: C_10  and  O_11
REMARK    7  A    between atoms: C_17  and  O_18
REMARK                            x       y       z     vdW  Elec       q    Type
REMARK                         _______ _______ _______ _____ _____    ______ ____
ROOT
ATOM      1  C   UNL     1       0.831   2.415  18.720  0.00  0.00    +0.000 C 
ATOM      2  C   UNL     1       2.216   2.823  18.326  0.00  0.00    +0.000 C 
ATOM      3  C   UNL     1       2.924   3.887  18.760  0.00  0.00    +0.000 C 
ENDROOT
BRANCH   3   4
ATOM      4  C   UNL     1       4.216   4.086  18.057  0.00  0.00    +0.000 A 
ATOM      5  C   UNL     1       4.307   3.875  16.672  0.00  0.00    +0.000 A 
ATOM      6  C   UNL     1       5.517   4.058  15.999  0.00  0.00    +0.000 A 
ATOM      7  C   UNL     1       6.644   4.432  16.721  0.00  0.00    +0.000 A 
ATOM      8  C   UNL     1       6.583   4.602  18.100  0.00  0.00    +0.000 A 
ATOM      9  C   UNL     1       5.368   4.432  18.771  0.00  0.00    +0.000 A 
BRANCH   7  10
ATOM     10  O   UNL     1       7.841   4.639  16.101  0.00  0.00    +0.000 OA
ATOM     11  H   UNL     1       7.715   4.530  15.144  0.00  0.00    +0.000 HD
ENDBRANCH   7  10
ENDBRANCH   3   4
BRANCH   3  12
ATOM     12  C   UNL     1       2.448   4.830  19.798  0.00  0.00    +0.000 C 
ATOM     13  C   UNL     1       2.166   4.440  21.065  0.00  0.00    +0.000 C 
ATOM     14  C   UNL     1       2.391   3.128  21.740  0.00  0.00    +0.000 C 
BRANCH  12  15
ATOM     15  C   UNL     1       2.231   6.292  19.523  0.00  0.00    +0.000 A 
ATOM     16  C   UNL     1       1.788   7.169  20.538  0.00  0.00    +0.000 A 
ATOM     17  C   UNL     1       1.441   8.493  20.258  0.00  0.00    +0.000 A 
ATOM     18  C   UNL     1       1.596   8.977  18.967  0.00  0.00    +0.000 A 
ATOM     19  C   UNL     1       2.116   8.164  17.967  0.00  0.00    +0.000 A 
ATOM     20  C   UNL     1       2.412   6.824  18.238  0.00  0.00    +0.000 A 
BRANCH  18  21
ATOM     21  O   UNL     1       1.224  10.245  18.638  0.00  0.00    +0.000 OA
ATOM     22  H   UNL     1       1.381  10.373  17.687  0.00  0.00    +0.000 HD
ENDBRANCH  18  21
ENDBRANCH  12  15
ENDBRANCH   3  12
TORSDOF 5
ENDMDL
MODEL 3
REMARK VINA RESULT:      -7.7      0.388      5.407
REMARK  Name = 
REMARK  7 active torsions:
REMARK  status: ('A' for Active; 'I' for Inactive)
REMARK    1  A    between atoms: C_1  and  C_2
REMARK    2  A    between atoms: C_3  and  C_4
REMARK    3  A    between atoms: C_3  and  C_14
REMARK    4  A    between atoms: C_4  and  C_7
REMARK    5  A    between atoms: C_5  and  C_6
REMARK    6  A    between atoms: C_10  and  O_11
REMARK    7  A    between atoms: C_17  and  O_18
REMARK                            x       y       z     vdW  Elec       q    Type
REMARK                         _______ _______ _______ _____ _____    ______ ____
ROOT
ATOM      1  C   UNL     1       2.419   3.087  21.753  0.00  0.00    +0.000 C 
ATOM      2  C   UNL     1       2.145   4.416  21.118  0.00  0.00    +0.000 C 
ATOM      3  C   UNL     1       2.334   4.777  19.832  0.00  0.00    +0.000 C 
ENDROOT
BRANCH   3   4
ATOM      4  C   UNL     1       2.099   6.218  19.564  0.00  0.00    +0.000 A 
ATOM      5  C   UNL     1       2.367   6.754  18.294  0.00  0.00    +0.000 A 
ATOM      6  C   UNL     1       2.151   8.108  18.029  0.00  0.00    +0.000 A 
ATOM      7  C   UNL     1       1.686   8.931  19.047  0.00  0.00    +0.000 A 
ATOM      8  C   UNL     1       1.458   8.428  20.324  0.00  0.00    +0.000 A 
ATOM      9  C   UNL     1       1.662   7.070  20.584  0.00  0.00    +0.000 A 
BRANCH   7  10
ATOM     10  O   UNL     1       1.445  10.256  18.827  0.00  0.00    +0.000 OA
ATOM     11  H   UNL     1       0.538  10.455  19.115  0.00  0.00    +0.000 HD
ENDBRANCH   7  10
ENDBRANCH   3   4
BRANCH   3  12
ATOM     12  C   UNL     1       2.801   3.854  18.773  0.00  0.00    +0.000 C 
ATOM     13  C   UNL     1       2.061   2.802  18.342  0.00  0.00    +0.000 C 
ATOM     14  C   UNL     1       0.653   2.423  18.662  0.00  0.00    +0.000 C 
BRANCH  12  15
ATOM     15  C   UNL     1       4.136   4.004  18.100  0.00  0.00    +0.000 A 
ATOM     16  C   UNL     1       5.286   4.372  18.831  0.00  0.00    +0.000 A 
ATOM     17  C   UNL     1       6.497   4.660  18.193  0.00  0.00    +0.000 A 
ATOM     18  C   UNL     1       6.588   4.518  16.816  0.00  0.00    +0.000 A 
ATOM     19  C   UNL     1       5.498   4.069  16.080  0.00  0.00    +0.000 A 
ATOM     20  C   UNL     1       4.274   3.833  16.715  0.00  0.00    +0.000 A 
BRANCH  18  21
ATOM     21  O   UNL     1       7.731   4.834  16.148  0.00  0.00    +0.000 OA
ATOM     22  H   UNL     1       8.489   4.594  16.708  0.00  0.00    +0.000 HD
ENDBRANCH  18  21
ENDBRANCH  12  15
ENDBRANCH   3  12
TORSDOF 5
ENDMDL
MODEL 4
REMARK VINA RESULT:      -7.7      0.179      5.330
REMARK  Name = 
REMARK  7 active torsions:
REMARK  status: ('A' for Active; 'I' for Inactive)
REMARK    1  A    between atoms: C_1  and  C_2
REMARK    2  A    between atoms: C_3  and  C_4
REMARK    3  A    between atoms: C_3  and  C_14
REMARK    4  A    between atoms: C_4  and  C_7
REMARK    5  A    between atoms: C_5  and  C_6
REMARK    6  A    between atoms: C_10  and  O_11
REMARK    7  A    between atoms: C_17  and  O_18
REMARK                            x       y       z     vdW  Elec       q    Type
REMARK                         _______ _______ _______ _____ _____    ______ ____
ROOT
ATOM      1  C   UNL     1       2.337   3.496  21.757  0.00  0.00    +0.000 C 
ATOM      2  C   UNL     1       2.119   4.779  21.016  0.00  0.00    +0.000 C 
ATOM      3  C   UNL     1       2.353   5.035  19.712  0.00  0.00    +0.000 C 
ENDROOT
BRANCH   3   4
ATOM      4  C   UNL     1       2.167   6.457  19.328  0.00  0.00    +0.000 A 
ATOM      5  C   UNL     1       1.676   7.383  20.263  0.00  0.00    +0.000 A 
ATOM      6  C   UNL     1       1.496   8.723  19.914  0.00  0.00    +0.000 A 
ATOM      7  C   UNL     1       1.787   9.131  18.619  0.00  0.00    +0.000 A 
ATOM      8  C   UNL     1       2.231   8.220  17.667  0.00  0.00    +0.000 A 
ATOM      9  C   UNL     1       2.424   6.881  18.021  0.00  0.00    +0.000 A 
BRANCH   7  10
ATOM     10  O   UNL     1       1.643  10.434  18.241  0.00  0.00    +0.000 OA
ATOM     11  H   UNL     1       1.741  10.487  17.275  0.00  0.00    +0.000 HD
ENDBRANCH   7  10
ENDBRANCH   3   4
BRANCH   3  12
ATOM     12  C   UNL     1       2.821   4.021  18.739  0.00  0.00    +0.000 C 
ATOM     13  C   UNL     1       2.064   2.958  18.372  0.00  0.00    +0.000 C 
ATOM     14  C   UNL     1       0.640   2.638  18.684  0.00  0.00    +0.000 C 
BRANCH  12  15
ATOM     15  C   UNL     1       4.175   4.086  18.092  0.00  0.00    +0.000 A 
ATOM     16  C   UNL     1       5.320   4.466  18.826  0.00  0.00    +0.000 A 
ATOM     17  C   UNL     1       6.553   4.675  18.201  0.00  0.00    +0.000 A 
ATOM     18  C   UNL     1       6.671   4.440  16.838  0.00  0.00    +0.000 A 
ATOM     19  C   UNL     1       5.585   3.977  16.106  0.00  0.00    +0.000 A 
ATOM     20  C   UNL     1       4.339   3.821  16.724  0.00  0.00    +0.000 A 
BRANCH  18  21
ATOM     21  O   UNL     1       7.839   4.677  16.180  0.00  0.00    +0.000 OA
ATOM     22  H   UNL     1       8.086   3.870  15.696  0.00  0.00    +0.000 HD
ENDBRANCH  18  21
ENDBRANCH  12  15
ENDBRANCH   3  12
TORSDOF 5
ENDMDL
MODEL 5
REMARK VINA RESULT:      -7.7      0.219      5.560
REMARK  Name = 
REMARK  7 active torsions:
REMARK  status: ('A' for Active; 'I' for Inactive)
REMARK    1  A    between atoms: C_1  and  C_2
REMARK    2  A    between atoms: C_3  and  C_4
REMARK    3  A    between atoms: C_3  and  C_14
REMARK    4  A    between atoms: C_4  and  C_7
REMARK    5  A    between atoms: C_5  and  C_6
REMARK    6  A    between atoms: C_10  and  O_11
REMARK    7  A    between atoms: C_17  and  O_18
REMARK                            x       y       z     vdW  Elec       q    Type
REMARK                         _______ _______ _______ _____ _____    ______ ____
ROOT
ATOM      1  C   UNL     1       2.338   3.355  21.739  0.00  0.00    +0.000 C 
ATOM      2  C   UNL     1       2.062   4.676  21.090  0.00  0.00    +0.000 C 
ATOM      3  C   UNL     1       2.293   5.037  19.810  0.00  0.00    +0.000 C 
ENDROOT
BRANCH   3   4
ATOM      4  C   UNL     1       2.040   6.472  19.528  0.00  0.00    +0.000 A 
ATOM      5  C   UNL     1       2.309   7.001  18.255  0.00  0.00    +0.000 A 
ATOM      6  C   UNL     1       2.075   8.350  17.978  0.00  0.00    +0.000 A 
ATOM      7  C   UNL     1       1.593   9.175  18.986  0.00  0.00    +0.000 A 
ATOM      8  C   UNL     1       1.364   8.679  20.265  0.00  0.00    +0.000 A 
ATOM      9  C   UNL     1       1.584   7.326  20.538  0.00  0.00    +0.000 A 
BRANCH   7  10
ATOM     10  O   UNL     1       1.335  10.494  18.753  0.00  0.00    +0.000 OA
ATOM     11  H   UNL     1       1.674  11.011  19.504  0.00  0.00    +0.000 HD
ENDBRANCH   7  10
ENDBRANCH   3   4
BRANCH   3  12
ATOM     12  C   UNL     1       2.818   4.120  18.773  0.00  0.00    +0.000 C 
ATOM     13  C   UNL     1       2.133   3.030  18.347  0.00  0.00    +0.000 C 
ATOM     14  C   UNL     1       0.739   2.592  18.651  0.00  0.00    +0.000 C 
BRANCH  12  15
ATOM     15  C   UNL     1       4.156   4.321  18.118  0.00  0.00    +0.000 A 
ATOM     16  C   UNL     1       4.350   4.035  16.749  0.00  0.00    +0.000 A 
ATOM     17  C   UNL     1       5.621   4.075  16.168  0.00  0.00    +0.000 A 
ATOM     18  C   UNL     1       6.707   4.468  16.938  0.00  0.00    +0.000 A 
ATOM     19  C   UNL     1       6.532   4.844  18.264  0.00  0.00    +0.000 A 
ATOM     20  C   UNL     1       5.268   4.752  18.857  0.00  0.00    +0.000 A 
BRANCH  18  21
ATOM     21  O   UNL     1       7.969   4.475  16.427  0.00  0.00    +0.000 OA
ATOM     22  H   UNL     1       7.922   4.208  15.493  0.00  0.00    +0.000 HD
ENDBRANCH  18  21
ENDBRANCH  12  15
ENDBRANCH   3  12
TORSDOF 5
ENDMDL
MODEL 6
REMARK VINA RESULT:      -7.7      0.390      1.145
REMARK  Name = 
REMARK  7 active torsions:
REMARK  status: ('A' for Active; 'I' for Inactive)
REMARK    1  A    between atoms: C_1  and  C_2
REMARK    2  A    between atoms: C_3  and  C_4
REMARK    3  A    between atoms: C_3  and  C_14
REMARK    4  A    between atoms: C_4  and  C_7
REMARK    5  A    between atoms: C_5  and  C_6
REMARK    6  A    between atoms: C_10  and  O_11
REMARK    7  A    between atoms: C_17  and  O_18
REMARK                            x       y       z     vdW  Elec       q    Type
REMARK                         _______ _______ _______ _____ _____    ______ ____
ROOT
ATOM      1  C   UNL     1       0.782   2.328  18.654  0.00  0.00    +0.000 C 
ATOM      2  C   UNL     1       2.178   2.743  18.303  0.00  0.00    +0.000 C 
ATOM      3  C   UNL     1       2.870   3.805  18.765  0.00  0.00    +0.000 C 
ENDROOT
BRANCH   3   4
ATOM      4  C   UNL     1       4.181   4.012  18.102  0.00  0.00    +0.000 A 
ATOM      5  C   UNL     1       5.287   4.460  18.843  0.00  0.00    +0.000 A 
ATOM      6  C   UNL     1       6.525   4.659  18.230  0.00  0.00    +0.000 A 
ATOM      7  C   UNL     1       6.650   4.431  16.866  0.00  0.00    +0.000 A 
ATOM      8  C   UNL     1       5.556   4.030  16.106  0.00  0.00    +0.000 A 
ATOM      9  C   UNL     1       4.320   3.818  16.723  0.00  0.00    +0.000 A 
BRANCH   7  10
ATOM     10  O   UNL     1       7.846   4.596  16.230  0.00  0.00    +0.000 OA
ATOM     11  H   UNL     1       7.848   4.045  15.430  0.00  0.00    +0.000 HD
ENDBRANCH   7  10
ENDBRANCH   3   4
BRANCH   3  12
ATOM     12  C   UNL     1       2.362   4.740  19.795  0.00  0.00    +0.000 C 
ATOM     13  C   UNL     1       2.123   4.358  21.074  0.00  0.00    +0.000 C 
ATOM     14  C   UNL     1       2.431   3.072  21.767  0.00  0.00    +0.000 C 
BRANCH  12  15
ATOM     15  C   UNL     1       2.062   6.182  19.500  0.00  0.00    +0.000 A 
ATOM     16  C   UNL     1       2.275   6.726  18.215  0.00  0.00    +0.000 A 
ATOM     17  C   UNL     1       2.142   8.095  17.969  0.00  0.00    +0.000 A 
ATOM     18  C   UNL     1       1.728   8.932  18.997  0.00  0.00    +0.000 A 
ATOM     19  C   UNL     1       1.422   8.412  20.249  0.00  0.00    +0.000 A 
ATOM     20  C   UNL     1       1.608   7.049  20.505  0.00  0.00    +0.000 A 
BRANCH  18  21
ATOM     21  O   UNL     1       1.632  10.277  18.816  0.00  0.00    +0.000 OA
ATOM     22  H   UNL     1       2.301  10.547  18.164  0.00  0.00    +0.000 HD
ENDBRANCH  18  21
ENDBRANCH  12  15
ENDBRANCH   3  12
TORSDOF 5
ENDMDL
MODEL 7
REMARK VINA RESULT:      -7.6      0.316      1.558
REMARK  Name = 
REMARK  7 active torsions:
REMARK  status: ('A' for Active; 'I' for Inactive)
REMARK    1  A    between atoms: C_1  and  C_2
REMARK    2  A    between atoms: C_3  and  C_4
REMARK    3  A    between atoms: C_3  and  C_14
REMARK    4  A    between atoms: C_4  and  C_7
REMARK    5  A    between atoms: C_5  and  C_6
REMARK    6  A    between atoms: C_10  and  O_11
REMARK    7  A    between atoms: C_17  and  O_18
REMARK                            x       y       z     vdW  Elec       q    Type
REMARK                         _______ _______ _______ _____ _____    ______ ____
ROOT
ATOM      1  C   UNL     1       0.738   2.488  18.609  0.00  0.00    +0.000 C 
ATOM      2  C   UNL     1       2.143   2.878  18.268  0.00  0.00    +0.000 C 
ATOM      3  C   UNL     1       2.855   3.919  18.746  0.00  0.00    +0.000 C 
ENDROOT
BRANCH   3   4
ATOM      4  C   UNL     1       4.173   4.107  18.089  0.00  0.00    +0.000 A 
ATOM      5  C   UNL     1       4.329   3.825  16.722  0.00  0.00    +0.000 A 
ATOM      6  C   UNL     1       5.563   3.997  16.093  0.00  0.00    +0.000 A 
ATOM      7  C   UNL     1       6.650   4.431  16.841  0.00  0.00    +0.000 A 
ATOM      8  C   UNL     1       6.527   4.672  18.205  0.00  0.00    +0.000 A 
ATOM      9  C   UNL     1       5.287   4.513  18.831  0.00  0.00    +0.000 A 
BRANCH   7  10
ATOM     10  O   UNL     1       7.870   4.629  16.262  0.00  0.00    +0.000 OA
ATOM     11  H   UNL     1       7.771   4.541  15.299  0.00  0.00    +0.000 HD
ENDBRANCH   7  10
ENDBRANCH   3   4
BRANCH   3  12
ATOM     12  C   UNL     1       2.364   4.851  19.786  0.00  0.00    +0.000 C 
ATOM     13  C   UNL     1       2.152   4.468  21.069  0.00  0.00    +0.000 C 
ATOM     14  C   UNL     1       2.480   3.184  21.755  0.00  0.00    +0.000 C 
BRANCH  12  15
ATOM     15  C   UNL     1       2.050   6.293  19.498  0.00  0.00    +0.000 A 
ATOM     16  C   UNL     1       2.256   6.843  18.214  0.00  0.00    +0.000 A 
ATOM     17  C   UNL     1       2.111   8.213  17.974  0.00  0.00    +0.000 A 
ATOM     18  C   UNL     1       1.692   9.041  19.006  0.00  0.00    +0.000 A 
ATOM     19  C   UNL     1       1.393   8.514  20.256  0.00  0.00    +0.000 A 
ATOM     20  C   UNL     1       1.591   7.151  20.507  0.00  0.00    +0.000 A 
BRANCH  18  21
ATOM     21  O   UNL     1       1.585  10.387  18.832  0.00  0.00    +0.000 OA
ATOM     22  H   UNL     1       1.525  10.568  17.878  0.00  0.00    +0.000 HD
ENDBRANCH  18  21
ENDBRANCH  12  15
ENDBRANCH   3  12
TORSDOF 5
ENDMDL
MODEL 8
REMARK VINA RESULT:      -7.6      0.240      5.469
REMARK  Name = 
REMARK  7 active torsions:
REMARK  status: ('A' for Active; 'I' for Inactive)
REMARK    1  A    between atoms: C_1  and  C_2
REMARK    2  A    between atoms: C_3  and  C_4
REMARK    3  A    between atoms: C_3  and  C_14
REMARK    4  A    between atoms: C_4  and  C_7
REMARK    5  A    between atoms: C_5  and  C_6
REMARK    6  A    between atoms: C_10  and  O_11
REMARK    7  A    between atoms: C_17  and  O_18
REMARK                            x       y       z     vdW  Elec       q    Type
REMARK                         _______ _______ _______ _____ _____    ______ ____
ROOT
ATOM      1  C   UNL     1       2.243   3.325  21.749  0.00  0.00    +0.000 C 
ATOM      2  C   UNL     1       2.007   4.649  21.089  0.00  0.00    +0.000 C 
ATOM      3  C   UNL     1       2.283   5.004  19.816  0.00  0.00    +0.000 C 
ENDROOT
BRANCH   3   4
ATOM      4  C   UNL     1       2.059   6.442  19.524  0.00  0.00    +0.000 A 
ATOM      5  C   UNL     1       1.618   7.309  20.537  0.00  0.00    +0.000 A 
ATOM      6  C   UNL     1       1.403   8.664  20.274  0.00  0.00    +0.000 A 
ATOM      7  C   UNL     1       1.607   9.145  18.987  0.00  0.00    +0.000 A 
ATOM      8  C   UNL     1       2.000   8.292  17.961  0.00  0.00    +0.000 A 
ATOM      9  C   UNL     1       2.228   6.939  18.228  0.00  0.00    +0.000 A 
BRANCH   7  10
ATOM     10  O   UNL     1       1.426  10.464  18.691  0.00  0.00    +0.000 OA
ATOM     11  H   UNL     1       1.367  10.961  19.525  0.00  0.00    +0.000 HD
ENDBRANCH   7  10
ENDBRANCH   3   4
BRANCH   3  12
ATOM     12  C   UNL     1       2.827   4.077  18.798  0.00  0.00    +0.000 C 
ATOM     13  C   UNL     1       2.160   2.971  18.385  0.00  0.00    +0.000 C 
ATOM     14  C   UNL     1       0.770   2.519  18.687  0.00  0.00    +0.000 C 
BRANCH  12  15
ATOM     15  C   UNL     1       4.167   4.286  18.149  0.00  0.00    +0.000 A 
ATOM     16  C   UNL     1       4.363   4.021  16.776  0.00  0.00    +0.000 A 
ATOM     17  C   UNL     1       5.635   4.068  16.198  0.00  0.00    +0.000 A 
ATOM     18  C   UNL     1       6.721   4.446  16.976  0.00  0.00    +0.000 A 
ATOM     19  C   UNL     1       6.544   4.801  18.307  0.00  0.00    +0.000 A 
ATOM     20  C   UNL     1       5.278   4.702  18.896  0.00  0.00    +0.000 A 
BRANCH  18  21
ATOM     21  O   UNL     1       7.983   4.458  16.467  0.00  0.00    +0.000 OA
ATOM     22  H   UNL     1       8.350   5.352  16.579  0.00  0.00    +0.000 HD
ENDBRANCH  18  21
ENDBRANCH  12  15
ENDBRANCH   3  12
TORSDOF 5
ENDMDL
MODEL 9
REMARK VINA RESULT:      -7.5      1.110      1.840
REMARK  Name = 
REMARK  7 active torsions:
REMARK  status: ('A' for Active; 'I' for Inactive)
REMARK    1  A    between atoms: C_1  and  C_2
REMARK    2  A    between atoms: C_3  and  C_4
REMARK    3  A    between atoms: C_3  and  C_14
REMARK    4  A    between atoms: C_4  and  C_7
REMARK    5  A    between atoms: C_5  and  C_6
REMARK    6  A    between atoms: C_10  and  O_11
REMARK    7  A    between atoms: C_17  and  O_18
REMARK                            x       y       z     vdW  Elec       q    Type
REMARK                         _______ _______ _______ _____ _____    ______ ____
ROOT
ATOM      1  C   UNL     1       3.783   2.541  20.707  0.00  0.00    +0.000 C 
ATOM      2  C   UNL     1       4.526   3.192  19.581  0.00  0.00    +0.000 C 
ATOM      3  C   UNL     1       4.056   4.078  18.678  0.00  0.00    +0.000 C 
ENDROOT
BRANCH   3   4
ATOM      4  C   UNL     1       5.020   4.417  17.601  0.00  0.00    +0.000 A 
ATOM      5  C   UNL     1       6.163   5.181  17.889  0.00  0.00    +0.000 A 
ATOM      6  C   UNL     1       7.076   5.507  16.885  0.00  0.00    +0.000 A 
ATOM      7  C   UNL     1       6.831   5.087  15.584  0.00  0.00    +0.000 A 
ATOM      8  C   UNL     1       5.682   4.368  15.271  0.00  0.00    +0.000 A 
ATOM      9  C   UNL     1       4.775   4.030  16.280  0.00  0.00    +0.000 A 
BRANCH   7  10
ATOM     10  O   UNL     1       7.706   5.368  14.576  0.00  0.00    +0.000 OA
ATOM     11  H   UNL     1       7.201   5.692  13.811  0.00  0.00    +0.000 HD
ENDBRANCH   7  10
ENDBRANCH   3   4
BRANCH   3  12
ATOM     12  C   UNL     1       2.682   4.628  18.695  0.00  0.00    +0.000 C 
ATOM     13  C   UNL     1       1.592   3.879  18.394  0.00  0.00    +0.000 C 
ATOM     14  C   UNL     1       1.471   2.411  18.151  0.00  0.00    +0.000 C 
BRANCH  12  15
ATOM     15  C   UNL     1       2.388   6.061  19.038  0.00  0.00    +0.000 A 
ATOM     16  C   UNL     1       1.981   6.434  20.337  0.00  0.00    +0.000 A 
ATOM     17  C   UNL     1       1.563   7.736  20.626  0.00  0.00    +0.000 A 
ATOM     18  C   UNL     1       1.610   8.701  19.629  0.00  0.00    +0.000 A 
ATOM     19  C   UNL     1       2.093   8.385  18.365  0.00  0.00    +0.000 A 
ATOM     20  C   UNL     1       2.461   7.069  18.065  0.00  0.00    +0.000 A 
BRANCH  18  21
ATOM     21  O   UNL     1       1.167   9.968  19.852  0.00  0.00    +0.000 OA
ATOM     22  H   UNL     1       1.370  10.506  19.068  0.00  0.00    +0.000 HD
ENDBRANCH  18  21
ENDBRANCH  12  15
ENDBRANCH   3  12
TORSDOF 5
ENDMDL
