MODEL 1
REMARK VINA RESULT:      -8.9      0.000      0.000
REMARK  Name = 
REMARK  5 active torsions:
REMARK  status: ('A' for Active; 'I' for Inactive)
REMARK    1  A    between atoms: C_1  and  O_2
REMARK    2  A    between atoms: O_2  and  C_3
REMARK    3  A    between atoms: C_8  and  C_9
REMARK    4  A    between atoms: C_9  and  C_10
REMARK    5  A    between atoms: N_13  and  C_14
REMARK                            x       y       z     vdW  Elec       q    Type
REMARK                         _______ _______ _______ _____ _____    ______ ____
ROOT
ATOM      1  C   UNL     1       1.840   8.136  20.135  0.00  0.00    +0.000 C 
ATOM      2  C   UNL     1       1.542   9.332  19.220  0.00  0.00    +0.000 C 
ATOM      3  C   UNL     1       0.028   9.800  19.209  0.00  0.00    +0.000 C 
ATOM      4  C   UNL     1      -0.206  10.539  20.585  0.00  0.00    +0.000 C 
ATOM      5  C   UNL     1      -0.072   9.282  21.518  0.00  0.00    +0.000 C 
ATOM      6  C   UNL     1       1.145   8.352  21.483  0.00  0.00    +0.000 C 
ATOM      7  O   UNL     1       0.692  11.630  20.235  0.00  0.00    +0.000 OA
ATOM      8  C   UNL     1      -0.127  12.537  19.522  0.00  0.00    +0.000 C 
ATOM      9  O   UNL     1      -0.072  12.902  18.376  0.00  0.00    +0.000 OA
ATOM     10  C   UNL     1      -1.160  12.758  20.523  0.00  0.00    +0.000 A 
ATOM     11  C   UNL     1      -1.344  14.058  21.034  0.00  0.00    +0.000 A 
ATOM     12  C   UNL     1      -1.389  14.213  22.416  0.00  0.00    +0.000 A 
ATOM     13  C   UNL     1      -1.364  13.057  23.216  0.00  0.00    +0.000 A 
ATOM     14  C   UNL     1      -1.298  11.764  22.660  0.00  0.00    +0.000 A 
ATOM     15  C   UNL     1      -1.142  11.570  21.266  0.00  0.00    +0.000 A 
ATOM     16  O   UNL     1      -1.321  15.428  23.040  0.00  0.00    +0.000 OA
ATOM     17  C   UNL     1      -1.677  16.513  22.180  0.00  0.00    +0.000 C 
ATOM     18  C   UNL     1      -1.115  16.383  20.771  0.00  0.00    +0.000 C 
ATOM     19  O   UNL     1      -1.358  15.111  20.167  0.00  0.00    +0.000 OA
ENDROOT
BRANCH   1  23
ATOM     20  C   UNL     1       4.175   5.156  19.384  0.00  0.00    +0.000 C 
ATOM     21  C   UNL     1       3.033   4.856  20.390  0.00  0.00    +0.000 C 
ATOM     22  C   UNL     1       1.695   5.571  20.186  0.00  0.00    +0.000 C 
ATOM     23  N   UNL     1       1.769   6.829  19.482  0.00  0.00    +0.000 NA
ATOM     24  C   UNL     1       2.409   6.663  18.188  0.00  0.00    +0.000 C 
ATOM     25  C   UNL     1       3.845   6.158  18.258  0.00  0.00    +0.000 C 
BRANCH  20  26
ATOM     26  C   UNL     1       4.976   3.910  18.876  0.00  0.00    +0.000 C 
BRANCH  26  32
ATOM     27  C   UNL     1       6.912   4.682  17.386  0.00  0.00    +0.000 A 
ATOM     28  C   UNL     1       7.294   5.175  16.138  0.00  0.00    +0.000 A 
ATOM     29  C   UNL     1       6.460   5.009  15.025  0.00  0.00    +0.000 A 
ATOM     30  C   UNL     1       5.276   4.288  15.135  0.00  0.00    +0.000 A 
ATOM     31  C   UNL     1       4.876   3.819  16.378  0.00  0.00    +0.000 A 
ATOM     32  C   UNL     1       5.632   4.107  17.524  0.00  0.00    +0.000 A 
BRANCH  27  34
ATOM     33  C   UNL     1       7.939   5.971  19.166  0.00  0.00    +0.000 C 
ATOM     34  O   UNL     1       7.666   4.733  18.525  0.00  0.00    +0.000 OA
ENDBRANCH  27  34
ENDBRANCH  26  32
ENDBRANCH  20  26
ENDBRANCH   1  23
TORSDOF 4
ENDMDL
MODEL 2
REMARK VINA RESULT:      -8.7      1.891      2.788
REMARK  Name = 
REMARK  5 active torsions:
REMARK  status: ('A' for Active; 'I' for Inactive)
REMARK    1  A    between atoms: C_1  and  O_2
REMARK    2  A    between atoms: O_2  and  C_3
REMARK    3  A    between atoms: C_8  and  C_9
REMARK    4  A    between atoms: C_9  and  C_10
REMARK    5  A    between atoms: N_13  and  C_14
REMARK                            x       y       z     vdW  Elec       q    Type
REMARK                         _______ _______ _______ _____ _____    ______ ____
ROOT
ATOM      1  C   UNL     1       1.822   7.423  19.359  0.00  0.00    +0.000 C 
ATOM      2  C   UNL     1       1.399   7.698  20.808  0.00  0.00    +0.000 C 
ATOM      3  C   UNL     1       1.670   9.178  21.310  0.00  0.00    +0.000 C 
ATOM      4  C   UNL     1       0.578  10.078  20.609  0.00  0.00    +0.000 C 
ATOM      5  C   UNL     1       1.110   9.938  19.137  0.00  0.00    +0.000 C 
ATOM      6  C   UNL     1       1.351   8.580  18.471  0.00  0.00    +0.000 C 
ATOM      7  O   UNL     1      -0.513   9.456  21.346  0.00  0.00    +0.000 OA
ATOM      8  C   UNL     1      -0.576  10.188  22.555  0.00  0.00    +0.000 C 
ATOM      9  O   UNL     1      -0.386   9.836  23.690  0.00  0.00    +0.000 OA
ATOM     10  C   UNL     1      -0.757  11.526  22.010  0.00  0.00    +0.000 A 
ATOM     11  C   UNL     1      -1.935  12.232  22.320  0.00  0.00    +0.000 A 
ATOM     12  C   UNL     1      -2.646  12.803  21.269  0.00  0.00    +0.000 A 
ATOM     13  C   UNL     1      -2.090  12.741  19.979  0.00  0.00    +0.000 A 
ATOM     14  C   UNL     1      -0.846  12.126  19.729  0.00  0.00    +0.000 A 
ATOM     15  C   UNL     1      -0.146  11.441  20.751  0.00  0.00    +0.000 A 
ATOM     16  O   UNL     1      -3.912  13.301  21.398  0.00  0.00    +0.000 OA
ATOM     17  C   UNL     1      -4.247  13.617  22.752  0.00  0.00    +0.000 C 
ATOM     18  C   UNL     1      -3.761  12.582  23.757  0.00  0.00    +0.000 C 
ATOM     19  O   UNL     1      -2.384  12.232  23.607  0.00  0.00    +0.000 OA
ENDROOT
BRANCH   1  23
ATOM     20  C   UNL     1       3.585   4.496  17.562  0.00  0.00    +0.000 C 
ATOM     21  C   UNL     1       3.940   5.906  17.021  0.00  0.00    +0.000 C 
ATOM     22  C   UNL     1       3.986   7.064  18.021  0.00  0.00    +0.000 C 
ATOM     23  N   UNL     1       3.176   6.891  19.203  0.00  0.00    +0.000 NA
ATOM     24  C   UNL     1       3.525   5.663  19.897  0.00  0.00    +0.000 C 
ATOM     25  C   UNL     1       3.312   4.397  19.078  0.00  0.00    +0.000 C 
BRANCH  20  26
ATOM     26  C   UNL     1       4.467   3.321  17.023  0.00  0.00    +0.000 C 
BRANCH  26  32
ATOM     27  C   UNL     1       6.747   4.410  16.600  0.00  0.00    +0.000 A 
ATOM     28  C   UNL     1       7.550   5.115  15.703  0.00  0.00    +0.000 A 
ATOM     29  C   UNL     1       7.270   5.093  14.331  0.00  0.00    +0.000 A 
ATOM     30  C   UNL     1       6.232   4.310  13.838  0.00  0.00    +0.000 A 
ATOM     31  C   UNL     1       5.411   3.629  14.725  0.00  0.00    +0.000 A 
ATOM     32  C   UNL     1       5.594   3.762  16.110  0.00  0.00    +0.000 A 
BRANCH  27  34
ATOM     33  C   UNL     1       7.253   5.461  18.727  0.00  0.00    +0.000 C 
ATOM     34  O   UNL     1       6.956   4.311  17.947  0.00  0.00    +0.000 OA
ENDBRANCH  27  34
ENDBRANCH  26  32
ENDBRANCH  20  26
ENDBRANCH   1  23
TORSDOF 4
ENDMDL
MODEL 3
REMARK VINA RESULT:      -8.3      3.040      9.840
REMARK  Name = 
REMARK  5 active torsions:
REMARK  status: ('A' for Active; 'I' for Inactive)
REMARK    1  A    between atoms: C_1  and  O_2
REMARK    2  A    between atoms: O_2  and  C_3
REMARK    3  A    between atoms: C_8  and  C_9
REMARK    4  A    between atoms: C_9  and  C_10
REMARK    5  A    between atoms: N_13  and  C_14
REMARK                            x       y       z     vdW  Elec       q    Type
REMARK                         _______ _______ _______ _____ _____    ______ ____
ROOT
ATOM      1  C   UNL     1      -0.279  10.648  19.194  0.00  0.00    +0.000 C 
ATOM      2  C   UNL     1       0.838  10.144  18.270  0.00  0.00    +0.000 C 
ATOM      3  C   UNL     1       2.120   9.588  19.020  0.00  0.00    +0.000 C 
ATOM      4  C   UNL     1       1.700   8.185  19.610  0.00  0.00    +0.000 C 
ATOM      5  C   UNL     1       0.676   8.709  20.680  0.00  0.00    +0.000 C 
ATOM      6  C   UNL     1      -0.492   9.634  20.323  0.00  0.00    +0.000 C 
ATOM      7  O   UNL     1       1.556   7.591  18.288  0.00  0.00    +0.000 OA
ATOM      8  C   UNL     1       2.861   7.150  17.962  0.00  0.00    +0.000 C 
ATOM      9  O   UNL     1       3.605   7.499  17.083  0.00  0.00    +0.000 OA
ATOM     10  C   UNL     1       3.109   6.286  19.108  0.00  0.00    +0.000 A 
ATOM     11  C   UNL     1       3.329   4.913  18.888  0.00  0.00    +0.000 A 
ATOM     12  C   UNL     1       2.592   4.006  19.644  0.00  0.00    +0.000 A 
ATOM     13  C   UNL     1       1.758   4.510  20.658  0.00  0.00    +0.000 A 
ATOM     14  C   UNL     1       1.655   5.890  20.925  0.00  0.00    +0.000 A 
ATOM     15  C   UNL     1       2.305   6.847  20.110  0.00  0.00    +0.000 A 
ATOM     16  O   UNL     1       2.531   2.669  19.367  0.00  0.00    +0.000 OA
ATOM     17  C   UNL     1       3.628   2.219  18.568  0.00  0.00    +0.000 C 
ATOM     18  C   UNL     1       4.001   3.180  17.448  0.00  0.00    +0.000 C 
ATOM     19  O   UNL     1       4.164   4.533  17.879  0.00  0.00    +0.000 OA
ENDROOT
BRANCH   1  23
ATOM     20  C   UNL     1       2.340  13.481  19.321  0.00  0.00    +0.000 C 
ATOM     21  C   UNL     1       1.269  13.629  18.209  0.00  0.00    +0.000 C 
ATOM     22  C   UNL     1      -0.144  13.120  18.506  0.00  0.00    +0.000 C 
ATOM     23  N   UNL     1      -0.228  12.077  19.501  0.00  0.00    +0.000 NA
ATOM     24  C   UNL     1       0.387  12.499  20.748  0.00  0.00    +0.000 C 
ATOM     25  C   UNL     1       1.870  12.828  20.638  0.00  0.00    +0.000 C 
BRANCH  20  26
ATOM     26  C   UNL     1       3.255  14.729  19.551  0.00  0.00    +0.000 C 
BRANCH  26  32
ATOM     27  C   UNL     1       1.730  16.780  19.383  0.00  0.00    +0.000 A 
ATOM     28  C   UNL     1       1.085  17.684  18.538  0.00  0.00    +0.000 A 
ATOM     29  C   UNL     1       1.532  17.868  17.224  0.00  0.00    +0.000 A 
ATOM     30  C   UNL     1       2.667  17.208  16.768  0.00  0.00    +0.000 A 
ATOM     31  C   UNL     1       3.297  16.286  17.592  0.00  0.00    +0.000 A 
ATOM     32  C   UNL     1       2.770  15.987  18.858  0.00  0.00    +0.000 A 
BRANCH  27  34
ATOM     33  C   UNL     1       0.107  16.187  21.086  0.00  0.00    +0.000 C 
ATOM     34  O   UNL     1       1.421  16.561  20.697  0.00  0.00    +0.000 OA
ENDBRANCH  27  34
ENDBRANCH  26  32
ENDBRANCH  20  26
ENDBRANCH   1  23
TORSDOF 4
ENDMDL
MODEL 4
REMARK VINA RESULT:      -8.2      3.044      4.368
REMARK  Name = 
REMARK  5 active torsions:
REMARK  status: ('A' for Active; 'I' for Inactive)
REMARK    1  A    between atoms: C_1  and  O_2
REMARK    2  A    between atoms: O_2  and  C_3
REMARK    3  A    between atoms: C_8  and  C_9
REMARK    4  A    between atoms: C_9  and  C_10
REMARK    5  A    between atoms: N_13  and  C_14
REMARK                            x       y       z     vdW  Elec       q    Type
REMARK                         _______ _______ _______ _____ _____    ______ ____
ROOT
ATOM      1  C   UNL     1      -0.402   9.997  20.384  0.00  0.00    +0.000 C 
ATOM      2  C   UNL     1      -0.709  10.762  21.678  0.00  0.00    +0.000 C 
ATOM      3  C   UNL     1      -0.975  12.313  21.487  0.00  0.00    +0.000 C 
ATOM      4  C   UNL     1      -2.413  12.428  20.842  0.00  0.00    +0.000 C 
ATOM      5  C   UNL     1      -2.063  11.799  19.445  0.00  0.00    +0.000 C 
ATOM      6  C   UNL     1      -1.398  10.426  19.300  0.00  0.00    +0.000 C 
ATOM      7  O   UNL     1      -3.069  11.918  22.037  0.00  0.00    +0.000 OA
ATOM      8  C   UNL     1      -3.257  13.064  22.846  0.00  0.00    +0.000 C 
ATOM      9  O   UNL     1      -2.799  13.340  23.925  0.00  0.00    +0.000 OA
ATOM     10  C   UNL     1      -4.014  13.887  21.914  0.00  0.00    +0.000 A 
ATOM     11  C   UNL     1      -5.324  14.272  22.258  0.00  0.00    +0.000 A 
ATOM     12  C   UNL     1      -6.331  14.064  21.320  0.00  0.00    +0.000 A 
ATOM     13  C   UNL     1      -5.966  13.590  20.047  0.00  0.00    +0.000 A 
ATOM     14  C   UNL     1      -4.624  13.328  19.703  0.00  0.00    +0.000 A 
ATOM     15  C   UNL     1      -3.587  13.424  20.662  0.00  0.00    +0.000 A 
ATOM     16  O   UNL     1      -7.663  14.166  21.609  0.00  0.00    +0.000 OA
ATOM     17  C   UNL     1      -7.917  14.948  22.779  0.00  0.00    +0.000 C 
ATOM     18  C   UNL     1      -6.940  14.679  23.915  0.00  0.00    +0.000 C 
ATOM     19  O   UNL     1      -5.568  14.724  23.521  0.00  0.00    +0.000 OA
ENDROOT
BRANCH   1  23
ATOM     20  C   UNL     1       1.935   7.588  18.478  0.00  0.00    +0.000 C 
ATOM     21  C   UNL     1       1.773   8.989  17.833  0.00  0.00    +0.000 C 
ATOM     22  C   UNL     1       1.587  10.187  18.768  0.00  0.00    +0.000 C 
ATOM     23  N   UNL     1       1.019   9.880  20.059  0.00  0.00    +0.000 NA
ATOM     24  C   UNL     1       1.809   8.873  20.747  0.00  0.00    +0.000 C 
ATOM     25  C   UNL     1       1.893   7.537  20.020  0.00  0.00    +0.000 C 
BRANCH  20  26
ATOM     26  C   UNL     1       3.059   6.686  17.867  0.00  0.00    +0.000 C 
BRANCH  26  32
ATOM     27  C   UNL     1       4.040   4.566  18.918  0.00  0.00    +0.000 A 
ATOM     28  C   UNL     1       4.053   3.170  18.926  0.00  0.00    +0.000 A 
ATOM     29  C   UNL     1       2.976   2.449  18.395  0.00  0.00    +0.000 A 
ATOM     30  C   UNL     1       1.850   3.113  17.921  0.00  0.00    +0.000 A 
ATOM     31  C   UNL     1       1.842   4.500  17.883  0.00  0.00    +0.000 A 
ATOM     32  C   UNL     1       2.974   5.229  18.277  0.00  0.00    +0.000 A 
BRANCH  27  34
ATOM     33  C   UNL     1       6.346   5.314  18.999  0.00  0.00    +0.000 C 
ATOM     34  O   UNL     1       5.003   5.372  19.457  0.00  0.00    +0.000 OA
ENDBRANCH  27  34
ENDBRANCH  26  32
ENDBRANCH  20  26
ENDBRANCH   1  23
TORSDOF 4
ENDMDL
MODEL 5
REMARK VINA RESULT:      -8.0      2.780     10.769
REMARK  Name = 
REMARK  5 active torsions:
REMARK  status: ('A' for Active; 'I' for Inactive)
REMARK    1  A    between atoms: C_1  and  O_2
REMARK    2  A    between atoms: O_2  and  C_3
REMARK    3  A    between atoms: C_8  and  C_9
REMARK    4  A    between atoms: C_9  and  C_10
REMARK    5  A    between atoms: N_13  and  C_14
REMARK                            x       y       z     vdW  Elec       q    Type
REMARK                         _______ _______ _______ _____ _____    ______ ____
ROOT
ATOM      1  C   UNL     1       0.302  10.283  18.762  0.00  0.00    +0.000 C 
ATOM      2  C   UNL     1       1.411   9.638  17.919  0.00  0.00    +0.000 C 
ATOM      3  C   UNL     1       2.606   9.017  18.756  0.00  0.00    +0.000 C 
ATOM      4  C   UNL     1       2.040   7.687  19.394  0.00  0.00    +0.000 C 
ATOM      5  C   UNL     1       1.019   8.352  20.386  0.00  0.00    +0.000 C 
ATOM      6  C   UNL     1      -0.046   9.352  19.928  0.00  0.00    +0.000 C 
ATOM      7  O   UNL     1       1.903   7.038  18.097  0.00  0.00    +0.000 OA
ATOM      8  C   UNL     1       3.177   6.471  17.856  0.00  0.00    +0.000 C 
ATOM      9  O   UNL     1       3.986   6.709  16.998  0.00  0.00    +0.000 OA
ATOM     10  C   UNL     1       3.299   5.652  19.054  0.00  0.00    +0.000 A 
ATOM     11  C   UNL     1       3.408   4.255  18.912  0.00  0.00    +0.000 A 
ATOM     12  C   UNL     1       2.563   3.456  19.675  0.00  0.00    +0.000 A 
ATOM     13  C   UNL     1       1.732   4.081  20.622  0.00  0.00    +0.000 A 
ATOM     14  C   UNL     1       1.738   5.477  20.816  0.00  0.00    +0.000 A 
ATOM     15  C   UNL     1       2.503   6.331  19.987  0.00  0.00    +0.000 A 
ATOM     16  O   UNL     1       2.398   2.115  19.462  0.00  0.00    +0.000 OA
ATOM     17  C   UNL     1       3.486   1.532  18.740  0.00  0.00    +0.000 C 
ATOM     18  C   UNL     1       3.989   2.398  17.593  0.00  0.00    +0.000 C 
ATOM     19  O   UNL     1       4.251   3.753  17.964  0.00  0.00    +0.000 OA
ENDROOT
BRANCH   1  23
ATOM     20  C   UNL     1      -1.398  13.080  20.809  0.00  0.00    +0.000 C 
ATOM     21  C   UNL     1       0.037  12.713  21.268  0.00  0.00    +0.000 C 
ATOM     22  C   UNL     1       1.042  12.283  20.196  0.00  0.00    +0.000 C 
ATOM     23  N   UNL     1       0.465  11.717  19.001  0.00  0.00    +0.000 NA
ATOM     24  C   UNL     1      -0.491  12.634  18.401  0.00  0.00    +0.000 C 
ATOM     25  C   UNL     1      -1.676  12.977  19.294  0.00  0.00    +0.000 C 
BRANCH  20  26
ATOM     26  C   UNL     1      -2.008  14.368  21.455  0.00  0.00    +0.000 C 
BRANCH  26  32
ATOM     27  C   UNL     1      -2.850  13.820  23.812  0.00  0.00    +0.000 A 
ATOM     28  C   UNL     1      -3.846  13.215  24.580  0.00  0.00    +0.000 A 
ATOM     29  C   UNL     1      -5.115  12.979  24.035  0.00  0.00    +0.000 A 
ATOM     30  C   UNL     1      -5.420  13.410  22.749  0.00  0.00    +0.000 A 
ATOM     31  C   UNL     1      -4.427  13.986  21.970  0.00  0.00    +0.000 A 
ATOM     32  C   UNL     1      -3.115  14.094  22.454  0.00  0.00    +0.000 A 
BRANCH  27  34
ATOM     33  C   UNL     1      -1.393  15.289  25.078  0.00  0.00    +0.000 C 
ATOM     34  O   UNL     1      -1.600  14.152  24.252  0.00  0.00    +0.000 OA
ENDBRANCH  27  34
ENDBRANCH  26  32
ENDBRANCH  20  26
ENDBRANCH   1  23
TORSDOF 4
ENDMDL
MODEL 6
REMARK VINA RESULT:      -8.0      2.857     10.874
REMARK  Name = 
REMARK  5 active torsions:
REMARK  status: ('A' for Active; 'I' for Inactive)
REMARK    1  A    between atoms: C_1  and  O_2
REMARK    2  A    between atoms: O_2  and  C_3
REMARK    3  A    between atoms: C_8  and  C_9
REMARK    4  A    between atoms: C_9  and  C_10
REMARK    5  A    between atoms: N_13  and  C_14
REMARK                            x       y       z     vdW  Elec       q    Type
REMARK                         _______ _______ _______ _____ _____    ______ ____
ROOT
ATOM      1  C   UNL     1       0.039  10.333  19.017  0.00  0.00    +0.000 C 
ATOM      2  C   UNL     1       1.190   9.786  18.162  0.00  0.00    +0.000 C 
ATOM      3  C   UNL     1       2.399   9.177  18.987  0.00  0.00    +0.000 C 
ATOM      4  C   UNL     1       1.887   7.790  19.543  0.00  0.00    +0.000 C 
ATOM      5  C   UNL     1       0.820   8.352  20.550  0.00  0.00    +0.000 C 
ATOM      6  C   UNL     1      -0.285   9.325  20.126  0.00  0.00    +0.000 C 
ATOM      7  O   UNL     1       1.802   7.206  18.211  0.00  0.00    +0.000 OA
ATOM      8  C   UNL     1       3.105   6.713  17.965  0.00  0.00    +0.000 C 
ATOM      9  O   UNL     1       3.916   7.034  17.135  0.00  0.00    +0.000 OA
ATOM     10  C   UNL     1       3.246   5.837  19.119  0.00  0.00    +0.000 A 
ATOM     11  C   UNL     1       3.424   4.456  18.906  0.00  0.00    +0.000 A 
ATOM     12  C   UNL     1       2.605   3.578  19.610  0.00  0.00    +0.000 A 
ATOM     13  C   UNL     1       1.730   4.113  20.573  0.00  0.00    +0.000 A 
ATOM     14  C   UNL     1       1.666   5.495  20.840  0.00  0.00    +0.000 A 
ATOM     15  C   UNL     1       2.404   6.428  20.072  0.00  0.00    +0.000 A 
ATOM     16  O   UNL     1       2.507   2.245  19.323  0.00  0.00    +0.000 OA
ATOM     17  C   UNL     1       3.632   1.753  18.591  0.00  0.00    +0.000 C 
ATOM     18  C   UNL     1       4.113   2.702  17.502  0.00  0.00    +0.000 C 
ATOM     19  O   UNL     1       4.304   4.045  17.949  0.00  0.00    +0.000 OA
ENDROOT
BRANCH   1  23
ATOM     20  C   UNL     1      -1.691  12.891  21.334  0.00  0.00    +0.000 C 
ATOM     21  C   UNL     1      -0.210  12.590  21.681  0.00  0.00    +0.000 C 
ATOM     22  C   UNL     1       0.747  12.289  20.525  0.00  0.00    +0.000 C 
ATOM     23  N   UNL     1       0.129  11.758  19.334  0.00  0.00    +0.000 NA
ATOM     24  C   UNL     1      -0.917  12.645  18.852  0.00  0.00    +0.000 C 
ATOM     25  C   UNL     1      -2.060  12.859  19.835  0.00  0.00    +0.000 C 
BRANCH  20  26
ATOM     26  C   UNL     1      -2.335  14.097  22.095  0.00  0.00    +0.000 C 
BRANCH  26  32
ATOM     27  C   UNL     1      -4.707  13.184  22.415  0.00  0.00    +0.000 A 
ATOM     28  C   UNL     1      -6.013  13.140  21.924  0.00  0.00    +0.000 A 
ATOM     29  C   UNL     1      -6.478  14.138  21.059  0.00  0.00    +0.000 A 
ATOM     30  C   UNL     1      -5.670  15.222  20.736  0.00  0.00    +0.000 A 
ATOM     31  C   UNL     1      -4.362  15.259  21.197  0.00  0.00    +0.000 A 
ATOM     32  C   UNL     1      -3.841  14.191  21.944  0.00  0.00    +0.000 A 
BRANCH  27  34
ATOM     33  C   UNL     1      -4.383  12.446  24.703  0.00  0.00    +0.000 C 
ATOM     34  O   UNL     1      -4.163  12.302  23.307  0.00  0.00    +0.000 OA
ENDBRANCH  27  34
ENDBRANCH  26  32
ENDBRANCH  20  26
ENDBRANCH   1  23
TORSDOF 4
ENDMDL
MODEL 7
REMARK VINA RESULT:      -8.0      1.524      2.660
REMARK  Name = 
REMARK  5 active torsions:
REMARK  status: ('A' for Active; 'I' for Inactive)
REMARK    1  A    between atoms: C_1  and  O_2
REMARK    2  A    between atoms: O_2  and  C_3
REMARK    3  A    between atoms: C_8  and  C_9
REMARK    4  A    between atoms: C_9  and  C_10
REMARK    5  A    between atoms: N_13  and  C_14
REMARK                            x       y       z     vdW  Elec       q    Type
REMARK                         _______ _______ _______ _____ _____    ______ ____
ROOT
ATOM      1  C   UNL     1       1.160   8.354  19.559  0.00  0.00    +0.000 C 
ATOM      2  C   UNL     1       0.544   8.700  20.922  0.00  0.00    +0.000 C 
ATOM      3  C   UNL     1       1.089  10.037  21.577  0.00  0.00    +0.000 C 
ATOM      4  C   UNL     1       0.434  11.218  20.757  0.00  0.00    +0.000 C 
ATOM      5  C   UNL     1       1.193  10.973  19.403  0.00  0.00    +0.000 C 
ATOM      6  C   UNL     1       1.196   9.617  18.691  0.00  0.00    +0.000 C 
ATOM      7  O   UNL     1      -0.906  10.899  21.229  0.00  0.00    +0.000 OA
ATOM      8  C   UNL     1      -1.014  11.592  22.458  0.00  0.00    +0.000 C 
ATOM      9  O   UNL     1      -1.153  11.174  23.579  0.00  0.00    +0.000 OA
ATOM     10  C   UNL     1      -0.725  12.941  21.993  0.00  0.00    +0.000 A 
ATOM     11  C   UNL     1      -1.713  13.934  22.132  0.00  0.00    +0.000 A 
ATOM     12  C   UNL     1      -2.025  14.702  21.015  0.00  0.00    +0.000 A 
ATOM     13  C   UNL     1      -1.259  14.521  19.849  0.00  0.00    +0.000 A 
ATOM     14  C   UNL     1      -0.197  13.597  19.788  0.00  0.00    +0.000 A 
ATOM     15  C   UNL     1       0.080  12.723  20.867  0.00  0.00    +0.000 A 
ATOM     16  O   UNL     1      -3.116  15.523  20.945  0.00  0.00    +0.000 OA
ATOM     17  C   UNL     1      -3.618  15.886  22.234  0.00  0.00    +0.000 C 
ATOM     18  C   UNL     1      -3.632  14.734  23.230  0.00  0.00    +0.000 C 
ATOM     19  O   UNL     1      -2.394  14.026  23.311  0.00  0.00    +0.000 OA
ENDROOT
BRANCH   1  23
ATOM     20  C   UNL     1       2.451   5.148  17.841  0.00  0.00    +0.000 C 
ATOM     21  C   UNL     1       3.269   6.430  17.534  0.00  0.00    +0.000 C 
ATOM     22  C   UNL     1       3.395   7.478  18.643  0.00  0.00    +0.000 C 
ATOM     23  N   UNL     1       2.330   7.478  19.616  0.00  0.00    +0.000 NA
ATOM     24  C   UNL     1       2.188   6.168  20.230  0.00  0.00    +0.000 C 
ATOM     25  C   UNL     1       1.838   5.052  19.254  0.00  0.00    +0.000 C 
BRANCH  20  26
ATOM     26  C   UNL     1       3.093   3.803  17.362  0.00  0.00    +0.000 C 
BRANCH  26  32
ATOM     27  C   UNL     1       5.492   4.018  18.234  0.00  0.00    +0.000 A 
ATOM     28  C   UNL     1       6.793   4.449  17.968  0.00  0.00    +0.000 A 
ATOM     29  C   UNL     1       7.221   4.635  16.648  0.00  0.00    +0.000 A 
ATOM     30  C   UNL     1       6.380   4.323  15.585  0.00  0.00    +0.000 A 
ATOM     31  C   UNL     1       5.077   3.921  15.842  0.00  0.00    +0.000 A 
ATOM     32  C   UNL     1       4.594   3.872  17.158  0.00  0.00    +0.000 A 
BRANCH  27  34
ATOM     33  C   UNL     1       4.591   2.429  19.831  0.00  0.00    +0.000 C 
ATOM     34  O   UNL     1       4.983   3.747  19.474  0.00  0.00    +0.000 OA
ENDBRANCH  27  34
ENDBRANCH  26  32
ENDBRANCH  20  26
ENDBRANCH   1  23
TORSDOF 4
ENDMDL
MODEL 8
REMARK VINA RESULT:      -7.9      3.898      9.008
REMARK  Name = 
REMARK  5 active torsions:
REMARK  status: ('A' for Active; 'I' for Inactive)
REMARK    1  A    between atoms: C_1  and  O_2
REMARK    2  A    between atoms: O_2  and  C_3
REMARK    3  A    between atoms: C_8  and  C_9
REMARK    4  A    between atoms: C_9  and  C_10
REMARK    5  A    between atoms: N_13  and  C_14
REMARK                            x       y       z     vdW  Elec       q    Type
REMARK                         _______ _______ _______ _____ _____    ______ ____
ROOT
ATOM      1  C   UNL     1      -0.474  10.962  19.204  0.00  0.00    +0.000 C 
ATOM      2  C   UNL     1       0.607  10.510  18.212  0.00  0.00    +0.000 C 
ATOM      3  C   UNL     1       1.943   9.980  18.880  0.00  0.00    +0.000 C 
ATOM      4  C   UNL     1       1.597   8.553  19.462  0.00  0.00    +0.000 C 
ATOM      5  C   UNL     1       0.617   9.024  20.596  0.00  0.00    +0.000 C 
ATOM      6  C   UNL     1      -0.595   9.920  20.321  0.00  0.00    +0.000 C 
ATOM      7  O   UNL     1       1.400   7.981  18.137  0.00  0.00    +0.000 OA
ATOM      8  C   UNL     1       2.697   7.586  17.733  0.00  0.00    +0.000 C 
ATOM      9  O   UNL     1       3.382   7.975  16.823  0.00  0.00    +0.000 OA
ATOM     10  C   UNL     1       3.032   6.708  18.845  0.00  0.00    +0.000 A 
ATOM     11  C   UNL     1       3.281   5.347  18.585  0.00  0.00    +0.000 A 
ATOM     12  C   UNL     1       2.613   4.404  19.359  0.00  0.00    +0.000 A 
ATOM     13  C   UNL     1       1.820   4.861  20.427  0.00  0.00    +0.000 A 
ATOM     14  C   UNL     1       1.691   6.232  20.728  0.00  0.00    +0.000 A 
ATOM     15  C   UNL     1       2.267   7.225  19.900  0.00  0.00    +0.000 A 
ATOM     16  O   UNL     1       2.576   3.071  19.059  0.00  0.00    +0.000 OA
ATOM     17  C   UNL     1       3.641   2.670  18.193  0.00  0.00    +0.000 C 
ATOM     18  C   UNL     1       3.925   3.664  17.075  0.00  0.00    +0.000 C 
ATOM     19  O   UNL     1       4.071   5.012  17.525  0.00  0.00    +0.000 OA
ENDROOT
BRANCH   1  23
ATOM     20  C   UNL     1       2.118  13.804  19.531  0.00  0.00    +0.000 C 
ATOM     21  C   UNL     1       1.113  13.966  18.361  0.00  0.00    +0.000 C 
ATOM     22  C   UNL     1      -0.312  13.446  18.568  0.00  0.00    +0.000 C 
ATOM     23  N   UNL     1      -0.448  12.386  19.537  0.00  0.00    +0.000 NA
ATOM     24  C   UNL     1       0.091  12.788  20.826  0.00  0.00    +0.000 C 
ATOM     25  C   UNL     1       1.576  13.126  20.807  0.00  0.00    +0.000 C 
BRANCH  20  26
ATOM     26  C   UNL     1       3.012  15.052  19.835  0.00  0.00    +0.000 C 
BRANCH  26  32
ATOM     27  C   UNL     1       5.497  15.024  20.456  0.00  0.00    +0.000 A 
ATOM     28  C   UNL     1       6.808  15.208  20.015  0.00  0.00    +0.000 A 
ATOM     29  C   UNL     1       7.114  15.129  18.650  0.00  0.00    +0.000 A 
ATOM     30  C   UNL     1       6.130  14.796  17.727  0.00  0.00    +0.000 A 
ATOM     31  C   UNL     1       4.819  14.640  18.154  0.00  0.00    +0.000 A 
ATOM     32  C   UNL     1       4.477  14.861  19.497  0.00  0.00    +0.000 A 
BRANCH  27  34
ATOM     33  C   UNL     1       5.302  13.885  22.589  0.00  0.00    +0.000 C 
ATOM     34  O   UNL     1       5.091  15.020  21.761  0.00  0.00    +0.000 OA
ENDBRANCH  27  34
ENDBRANCH  26  32
ENDBRANCH  20  26
ENDBRANCH   1  23
TORSDOF 4
ENDMDL
MODEL 9
REMARK VINA RESULT:      -7.9      3.345     11.339
REMARK  Name = 
REMARK  5 active torsions:
REMARK  status: ('A' for Active; 'I' for Inactive)
REMARK    1  A    between atoms: C_1  and  O_2
REMARK    2  A    between atoms: O_2  and  C_3
REMARK    3  A    between atoms: C_8  and  C_9
REMARK    4  A    between atoms: C_9  and  C_10
REMARK    5  A    between atoms: N_13  and  C_14
REMARK                            x       y       z     vdW  Elec       q    Type
REMARK                         _______ _______ _______ _____ _____    ______ ____
ROOT
ATOM      1  C   UNL     1      -0.597  10.125  20.397  0.00  0.00    +0.000 C 
ATOM      2  C   UNL     1       0.440   9.912  19.285  0.00  0.00    +0.000 C 
ATOM      3  C   UNL     1       1.844   9.367  19.779  0.00  0.00    +0.000 C 
ATOM      4  C   UNL     1       1.615   7.845  20.133  0.00  0.00    +0.000 C 
ATOM      5  C   UNL     1       0.687   8.060  21.382  0.00  0.00    +0.000 C 
ATOM      6  C   UNL     1      -0.587   8.908  21.329  0.00  0.00    +0.000 C 
ATOM      7  O   UNL     1       1.363   7.486  18.744  0.00  0.00    +0.000 OA
ATOM      8  C   UNL     1       2.650   7.247  18.208  0.00  0.00    +0.000 C 
ATOM      9  O   UNL     1       3.252   7.823  17.339  0.00  0.00    +0.000 OA
ATOM     10  C   UNL     1       3.105   6.223  19.137  0.00  0.00    +0.000 A 
ATOM     11  C   UNL     1       3.410   4.941  18.639  0.00  0.00    +0.000 A 
ATOM     12  C   UNL     1       2.846   3.843  19.281  0.00  0.00    +0.000 A 
ATOM     13  C   UNL     1       2.101   4.067  20.453  0.00  0.00    +0.000 A 
ATOM     14  C   UNL     1       1.918   5.359  20.986  0.00  0.00    +0.000 A 
ATOM     15  C   UNL     1       2.383   6.509  20.304  0.00  0.00    +0.000 A 
ATOM     16  O   UNL     1       2.863   2.577  18.764  0.00  0.00    +0.000 OA
ATOM     17  C   UNL     1       3.889   2.393  17.786  0.00  0.00    +0.000 C 
ATOM     18  C   UNL     1       4.044   3.573  16.836  0.00  0.00    +0.000 C 
ATOM     19  O   UNL     1       4.146   4.836  17.496  0.00  0.00    +0.000 OA
ENDROOT
BRANCH   1  23
ATOM     20  C   UNL     1      -3.216  12.702  21.578  0.00  0.00    +0.000 C 
ATOM     21  C   UNL     1      -2.323  12.114  22.702  0.00  0.00    +0.000 C 
ATOM     22  C   UNL     1      -0.873  11.767  22.353  0.00  0.00    +0.000 C 
ATOM     23  N   UNL     1      -0.626  11.474  20.962  0.00  0.00    +0.000 NA
ATOM     24  C   UNL     1      -1.057  12.573  20.115  0.00  0.00    +0.000 C 
ATOM     25  C   UNL     1      -2.546  12.884  20.200  0.00  0.00    +0.000 C 
BRANCH  20  26
ATOM     26  C   UNL     1      -4.108  13.921  21.989  0.00  0.00    +0.000 C 
BRANCH  26  32
ATOM     27  C   UNL     1      -6.180  13.954  23.496  0.00  0.00    +0.000 A 
ATOM     28  C   UNL     1      -7.340  13.288  23.892  0.00  0.00    +0.000 A 
ATOM     29  C   UNL     1      -7.917  12.315  23.065  0.00  0.00    +0.000 A 
ATOM     30  C   UNL     1      -7.381  12.053  21.809  0.00  0.00    +0.000 A 
ATOM     31  C   UNL     1      -6.212  12.689  21.420  0.00  0.00    +0.000 A 
ATOM     32  C   UNL     1      -5.546  13.557  22.301  0.00  0.00    +0.000 A 
BRANCH  27  34
ATOM     33  C   UNL     1      -6.036  16.295  24.114  0.00  0.00    +0.000 C 
ATOM     34  O   UNL     1      -5.563  14.957  24.189  0.00  0.00    +0.000 OA
ENDBRANCH  27  34
ENDBRANCH  26  32
ENDBRANCH  20  26
ENDBRANCH   1  23
TORSDOF 4
ENDMDL
