MODEL 1
REMARK VINA RESULT:      -7.0      0.000      0.000
REMARK  Name = 
REMARK  0 active torsions:
REMARK  status: ('A' for Active; 'I' for Inactive)
REMARK                            x       y       z     vdW  Elec       q    Type
REMARK                         _______ _______ _______ _____ _____    ______ ____
ROOT
ATOM      1  O   UNL     1       3.936   1.827  17.415  0.00  0.00    +0.000 OA
ATOM      2  C   UNL     1       3.787   3.018  17.666  0.00  0.00    +0.000 C 
ATOM      3  C   UNL     1       4.456   4.061  16.915  0.00  0.00    +0.000 A 
ATOM      4  C   UNL     1       5.356   3.913  15.813  0.00  0.00    +0.000 A 
ATOM      5  C   UNL     1       5.805   5.128  15.342  0.00  0.00    +0.000 A 
ATOM      6  S   UNL     1       5.146   6.437  16.223  0.00  0.00    +0.000 S 
ATOM      7  C   UNL     1       4.262   5.386  17.231  0.00  0.00    +0.000 A 
ATOM      8  C   UNL     1       3.413   5.880  18.292  0.00  0.00    +0.000 C 
ATOM      9  O   UNL     1       3.276   7.071  18.534  0.00  0.00    +0.000 OA
ATOM     10  C   UNL     1       2.698   4.829  19.095  0.00  0.00    +0.000 A 
ATOM     11  C   UNL     1       1.834   5.152  20.159  0.00  0.00    +0.000 A 
ATOM     12 CL   UNL     1       1.475   6.759  20.687  0.00  0.00    +0.000 Cl
ATOM     13  C   UNL     1       1.188   4.136  20.881  0.00  0.00    +0.000 A 
ATOM     14  C   UNL     1       1.385   2.797  20.561  0.00  0.00    +0.000 A 
ATOM     15  C   UNL     1       2.235   2.459  19.513  0.00  0.00    +0.000 A 
ATOM     16  C   UNL     1       2.892   3.463  18.779  0.00  0.00    +0.000 A 
ENDROOT
TORSDOF 0
ENDMDL
MODEL 2
REMARK VINA RESULT:      -6.9      2.646      5.349
REMARK  Name = 
REMARK  0 active torsions:
REMARK  status: ('A' for Active; 'I' for Inactive)
REMARK                            x       y       z     vdW  Elec       q    Type
REMARK                         _______ _______ _______ _____ _____    ______ ____
ROOT
ATOM      1  O   UNL     1       2.265   7.055  19.455  0.00  0.00    +0.000 OA
ATOM      2  C   UNL     1       2.652   5.980  19.010  0.00  0.00    +0.000 C 
ATOM      3  C   UNL     1       2.190   4.710  19.532  0.00  0.00    +0.000 A 
ATOM      4  C   UNL     1       1.258   4.482  20.594  0.00  0.00    +0.000 A 
ATOM      5  C   UNL     1       1.054   3.139  20.825  0.00  0.00    +0.000 A 
ATOM      6  S   UNL     1       1.978   2.161  19.771  0.00  0.00    +0.000 S 
ATOM      7  C   UNL     1       2.651   3.526  19.006  0.00  0.00    +0.000 A 
ATOM      8  C   UNL     1       3.602   3.402  17.923  0.00  0.00    +0.000 C 
ATOM      9  O   UNL     1       3.982   2.324  17.491  0.00  0.00    +0.000 OA
ATOM     10  C   UNL     1       4.105   4.699  17.350  0.00  0.00    +0.000 A 
ATOM     11  C   UNL     1       5.031   4.744  16.291  0.00  0.00    +0.000 A 
ATOM     12 CL   UNL     1       5.709   3.357  15.511  0.00  0.00    +0.000 Cl
ATOM     13  C   UNL     1       5.473   5.977  15.787  0.00  0.00    +0.000 A 
ATOM     14  C   UNL     1       5.007   7.175  16.322  0.00  0.00    +0.000 A 
ATOM     15  C   UNL     1       4.092   7.149  17.368  0.00  0.00    +0.000 A 
ATOM     16  C   UNL     1       3.638   5.922  17.886  0.00  0.00    +0.000 A 
ENDROOT
TORSDOF 0
ENDMDL
MODEL 3
REMARK VINA RESULT:      -6.8      1.640      3.080
REMARK  Name = 
REMARK  0 active torsions:
REMARK  status: ('A' for Active; 'I' for Inactive)
REMARK                            x       y       z     vdW  Elec       q    Type
REMARK                         _______ _______ _______ _____ _____    ______ ____
ROOT
ATOM      1  O   UNL     1       3.857   7.709  17.814  0.00  0.00    +0.000 OA
ATOM      2  C   UNL     1       3.835   6.484  17.772  0.00  0.00    +0.000 C 
ATOM      3  C   UNL     1       4.591   5.725  16.798  0.00  0.00    +0.000 A 
ATOM      4  C   UNL     1       5.451   6.224  15.768  0.00  0.00    +0.000 A 
ATOM      5  C   UNL     1       6.008   5.209  15.021  0.00  0.00    +0.000 A 
ATOM      6  S   UNL     1       5.499   3.667  15.557  0.00  0.00    +0.000 S 
ATOM      7  C   UNL     1       4.536   4.351  16.784  0.00  0.00    +0.000 A 
ATOM      8  C   UNL     1       3.761   3.532  17.691  0.00  0.00    +0.000 C 
ATOM      9  O   UNL     1       3.744   2.311  17.636  0.00  0.00    +0.000 OA
ATOM     10  C   UNL     1       2.962   4.283  18.721  0.00  0.00    +0.000 A 
ATOM     11  C   UNL     1       2.160   3.628  19.675  0.00  0.00    +0.000 A 
ATOM     12 CL   UNL     1       1.979   1.913  19.803  0.00  0.00    +0.000 Cl
ATOM     13  C   UNL     1       1.432   4.369  20.618  0.00  0.00    +0.000 A 
ATOM     14  C   UNL     1       1.487   5.760  20.629  0.00  0.00    +0.000 A 
ATOM     15  C   UNL     1       2.274   6.423  19.695  0.00  0.00    +0.000 A 
ATOM     16  C   UNL     1       3.011   5.697  18.742  0.00  0.00    +0.000 A 
ENDROOT
TORSDOF 0
ENDMDL
MODEL 4
REMARK VINA RESULT:      -6.5      2.615      4.760
REMARK  Name = 
REMARK  0 active torsions:
REMARK  status: ('A' for Active; 'I' for Inactive)
REMARK                            x       y       z     vdW  Elec       q    Type
REMARK                         _______ _______ _______ _____ _____    ______ ____
ROOT
ATOM      1  O   UNL     1       2.385   3.052  16.222  0.00  0.00    +0.000 OA
ATOM      2  C   UNL     1       3.059   3.605  17.084  0.00  0.00    +0.000 C 
ATOM      3  C   UNL     1       2.544   3.898  18.406  0.00  0.00    +0.000 A 
ATOM      4  C   UNL     1       1.240   3.616  18.924  0.00  0.00    +0.000 A 
ATOM      5  C   UNL     1       1.098   4.039  20.228  0.00  0.00    +0.000 A 
ATOM      6  S   UNL     1       2.525   4.768  20.823  0.00  0.00    +0.000 S 
ATOM      7  C   UNL     1       3.333   4.522  19.344  0.00  0.00    +0.000 A 
ATOM      8  C   UNL     1       4.703   4.942  19.143  0.00  0.00    +0.000 C 
ATOM      9  O   UNL     1       5.363   5.496  20.010  0.00  0.00    +0.000 OA
ATOM     10  C   UNL     1       5.277   4.654  17.783  0.00  0.00    +0.000 A 
ATOM     11  C   UNL     1       6.597   5.000  17.435  0.00  0.00    +0.000 A 
ATOM     12 CL   UNL     1       7.724   5.783  18.488  0.00  0.00    +0.000 Cl
ATOM     13  C   UNL     1       7.091   4.711  16.153  0.00  0.00    +0.000 A 
ATOM     14  C   UNL     1       6.291   4.081  15.205  0.00  0.00    +0.000 A 
ATOM     15  C   UNL     1       4.985   3.733  15.532  0.00  0.00    +0.000 A 
ATOM     16  C   UNL     1       4.472   4.014  16.811  0.00  0.00    +0.000 A 
ENDROOT
TORSDOF 0
ENDMDL
MODEL 5
REMARK VINA RESULT:      -6.3      2.080      4.421
REMARK  Name = 
REMARK  0 active torsions:
REMARK  status: ('A' for Active; 'I' for Inactive)
REMARK                            x       y       z     vdW  Elec       q    Type
REMARK                         _______ _______ _______ _____ _____    ______ ____
ROOT
ATOM      1  O   UNL     1       3.717   1.475  17.810  0.00  0.00    +0.000 OA
ATOM      2  C   UNL     1       3.522   2.653  18.090  0.00  0.00    +0.000 C 
ATOM      3  C   UNL     1       2.652   3.061  19.174  0.00  0.00    +0.000 A 
ATOM      4  C   UNL     1       1.907   2.226  20.066  0.00  0.00    +0.000 A 
ATOM      5  C   UNL     1       1.182   2.961  20.980  0.00  0.00    +0.000 A 
ATOM      6  S   UNL     1       1.400   4.643  20.765  0.00  0.00    +0.000 S 
ATOM      7  C   UNL     1       2.459   4.394  19.454  0.00  0.00    +0.000 A 
ATOM      8  C   UNL     1       3.065   5.498  18.742  0.00  0.00    +0.000 C 
ATOM      9  O   UNL     1       2.859   6.668  19.029  0.00  0.00    +0.000 OA
ATOM     10  C   UNL     1       3.977   5.117  17.609  0.00  0.00    +0.000 A 
ATOM     11  C   UNL     1       4.643   6.076  16.823  0.00  0.00    +0.000 A 
ATOM     12 CL   UNL     1       4.517   7.788  17.037  0.00  0.00    +0.000 Cl
ATOM     13  C   UNL     1       5.486   5.674  15.775  0.00  0.00    +0.000 A 
ATOM     14  C   UNL     1       5.680   4.326  15.493  0.00  0.00    +0.000 A 
ATOM     15  C   UNL     1       5.030   3.364  16.258  0.00  0.00    +0.000 A 
ATOM     16  C   UNL     1       4.182   3.748  17.313  0.00  0.00    +0.000 A 
ENDROOT
TORSDOF 0
ENDMDL
MODEL 6
REMARK VINA RESULT:      -6.1      2.137      3.200
REMARK  Name = 
REMARK  0 active torsions:
REMARK  status: ('A' for Active; 'I' for Inactive)
REMARK                            x       y       z     vdW  Elec       q    Type
REMARK                         _______ _______ _______ _____ _____    ______ ____
ROOT
ATOM      1  O   UNL     1       3.321   7.731  17.843  0.00  0.00    +0.000 OA
ATOM      2  C   UNL     1       3.800   6.664  18.212  0.00  0.00    +0.000 C 
ATOM      3  C   UNL     1       5.083   6.183  17.740  0.00  0.00    +0.000 A 
ATOM      4  C   UNL     1       5.976   6.817  16.819  0.00  0.00    +0.000 A 
ATOM      5  C   UNL     1       7.111   6.068  16.597  0.00  0.00    +0.000 A 
ATOM      6  S   UNL     1       7.101   4.613  17.494  0.00  0.00    +0.000 S 
ATOM      7  C   UNL     1       5.584   4.980  18.177  0.00  0.00    +0.000 A 
ATOM      8  C   UNL     1       4.932   4.089  19.112  0.00  0.00    +0.000 C 
ATOM      9  O   UNL     1       5.420   3.026  19.469  0.00  0.00    +0.000 OA
ATOM     10  C   UNL     1       3.598   4.552  19.628  0.00  0.00    +0.000 A 
ATOM     11  C   UNL     1       2.842   3.798  20.546  0.00  0.00    +0.000 A 
ATOM     12 CL   UNL     1       3.321   2.270  21.200  0.00  0.00    +0.000 Cl
ATOM     13  C   UNL     1       1.601   4.270  21.000  0.00  0.00    +0.000 A 
ATOM     14  C   UNL     1       1.095   5.487  20.556  0.00  0.00    +0.000 A 
ATOM     15  C   UNL     1       1.828   6.246  19.650  0.00  0.00    +0.000 A 
ATOM     16  C   UNL     1       3.073   5.789  19.183  0.00  0.00    +0.000 A 
ENDROOT
TORSDOF 0
ENDMDL
MODEL 7
REMARK VINA RESULT:      -6.1      2.820      5.012
REMARK  Name = 
REMARK  0 active torsions:
REMARK  status: ('A' for Active; 'I' for Inactive)
REMARK                            x       y       z     vdW  Elec       q    Type
REMARK                         _______ _______ _______ _____ _____    ______ ____
ROOT
ATOM      1  O   UNL     1       1.155   6.213  21.066  0.00  0.00    +0.000 OA
ATOM      2  C   UNL     1       2.023   5.705  20.364  0.00  0.00    +0.000 C 
ATOM      3  C   UNL     1       2.522   4.364  20.591  0.00  0.00    +0.000 A 
ATOM      4  C   UNL     1       2.125   3.438  21.607  0.00  0.00    +0.000 A 
ATOM      5  C   UNL     1       2.816   2.248  21.523  0.00  0.00    +0.000 A 
ATOM      6  S   UNL     1       3.934   2.248  20.229  0.00  0.00    +0.000 S 
ATOM      7  C   UNL     1       3.498   3.833  19.780  0.00  0.00    +0.000 A 
ATOM      8  C   UNL     1       4.117   4.507  18.660  0.00  0.00    +0.000 C 
ATOM      9  O   UNL     1       4.984   3.991  17.970  0.00  0.00    +0.000 OA
ATOM     10  C   UNL     1       3.625   5.902  18.388  0.00  0.00    +0.000 A 
ATOM     11  C   UNL     1       4.127   6.685  17.332  0.00  0.00    +0.000 A 
ATOM     12 CL   UNL     1       5.349   6.175  16.218  0.00  0.00    +0.000 Cl
ATOM     13  C   UNL     1       3.638   7.982  17.116  0.00  0.00    +0.000 A 
ATOM     14  C   UNL     1       2.652   8.519  17.937  0.00  0.00    +0.000 A 
ATOM     15  C   UNL     1       2.144   7.760  18.986  0.00  0.00    +0.000 A 
ATOM     16  C   UNL     1       2.622   6.457  19.217  0.00  0.00    +0.000 A 
ENDROOT
TORSDOF 0
ENDMDL
MODEL 8
REMARK VINA RESULT:      -6.1      2.368      3.405
REMARK  Name = 
REMARK  0 active torsions:
REMARK  status: ('A' for Active; 'I' for Inactive)
REMARK                            x       y       z     vdW  Elec       q    Type
REMARK                         _______ _______ _______ _____ _____    ______ ____
ROOT
ATOM      1  O   UNL     1       4.421   5.299  16.470  0.00  0.00    +0.000 OA
ATOM      2  C   UNL     1       3.706   5.330  17.465  0.00  0.00    +0.000 C 
ATOM      3  C   UNL     1       3.149   6.561  17.986  0.00  0.00    +0.000 A 
ATOM      4  C   UNL     1       3.312   7.887  17.472  0.00  0.00    +0.000 A 
ATOM      5  C   UNL     1       2.636   8.822  18.226  0.00  0.00    +0.000 A 
ATOM      6  S   UNL     1       1.809   8.107  19.540  0.00  0.00    +0.000 S 
ATOM      7  C   UNL     1       2.352   6.552  19.107  0.00  0.00    +0.000 A 
ATOM      8  C   UNL     1       1.989   5.376  19.868  0.00  0.00    +0.000 C 
ATOM      9  O   UNL     1       1.278   5.421  20.862  0.00  0.00    +0.000 OA
ATOM     10  C   UNL     1       2.546   4.075  19.360  0.00  0.00    +0.000 A 
ATOM     11  C   UNL     1       2.281   2.845  19.991  0.00  0.00    +0.000 A 
ATOM     12 CL   UNL     1       1.301   2.650  21.403  0.00  0.00    +0.000 Cl
ATOM     13  C   UNL     1       2.822   1.655  19.480  0.00  0.00    +0.000 A 
ATOM     14  C   UNL     1       3.629   1.667  18.347  0.00  0.00    +0.000 A 
ATOM     15  C   UNL     1       3.902   2.873  17.711  0.00  0.00    +0.000 A 
ATOM     16  C   UNL     1       3.367   4.076  18.208  0.00  0.00    +0.000 A 
ENDROOT
TORSDOF 0
ENDMDL
MODEL 9
REMARK VINA RESULT:      -6.0      2.562      3.976
REMARK  Name = 
REMARK  0 active torsions:
REMARK  status: ('A' for Active; 'I' for Inactive)
REMARK                            x       y       z     vdW  Elec       q    Type
REMARK                         _______ _______ _______ _____ _____    ______ ____
ROOT
ATOM      1  O   UNL     1       4.332   5.472  16.603  0.00  0.00    +0.000 OA
ATOM      2  C   UNL     1       3.743   5.433  17.677  0.00  0.00    +0.000 C 
ATOM      3  C   UNL     1       3.690   4.237  18.493  0.00  0.00    +0.000 A 
ATOM      4  C   UNL     1       4.277   2.960  18.221  0.00  0.00    +0.000 A 
ATOM      5  C   UNL     1       4.022   2.049  19.223  0.00  0.00    +0.000 A 
ATOM      6  S   UNL     1       3.083   2.727  20.481  0.00  0.00    +0.000 S 
ATOM      7  C   UNL     1       3.017   4.235  19.692  0.00  0.00    +0.000 A 
ATOM      8  C   UNL     1       2.313   5.364  20.261  0.00  0.00    +0.000 C 
ATOM      9  O   UNL     1       1.726   5.311  21.332  0.00  0.00    +0.000 OA
ATOM     10  C   UNL     1       2.345   6.627  19.446  0.00  0.00    +0.000 A 
ATOM     11  C   UNL     1       1.710   7.811  19.866  0.00  0.00    +0.000 A 
ATOM     12 CL   UNL     1       0.824   7.987  21.342  0.00  0.00    +0.000 Cl
ATOM     13  C   UNL     1       1.766   8.967  19.072  0.00  0.00    +0.000 A 
ATOM     14  C   UNL     1       2.447   8.967  17.859  0.00  0.00    +0.000 A 
ATOM     15  C   UNL     1       3.081   7.806  17.428  0.00  0.00    +0.000 A 
ATOM     16  C   UNL     1       3.035   6.638  18.210  0.00  0.00    +0.000 A 
ENDROOT
TORSDOF 0
ENDMDL
