MODEL 1
REMARK VINA RESULT:      -7.5      0.000      0.000
REMARK  Name = 
REMARK  12 active torsions:
REMARK  status: ('A' for Active; 'I' for Inactive)
REMARK    1  A    between atoms: C_1  and  O_2
REMARK    2  A    between atoms: O_2  and  C_3
REMARK    3  A    between atoms: C_3  and  C_5
REMARK    4  A    between atoms: C_6  and  C_7
REMARK    5  A    between atoms: C_9  and  C_10
REMARK    6  A    between atoms: C_11  and  C_12
REMARK    7  A    between atoms: C_12  and  O_14
REMARK    8  A    between atoms: O_14  and  C_15
REMARK    9  A    between atoms: C_16  and  C_17
REMARK   10  A    between atoms: C_21  and  C_22
REMARK   11  A    between atoms: C_25  and  S_26
REMARK   12  A    between atoms: S_26  and  C_27
REMARK                            x       y       z     vdW  Elec       q    Type
REMARK                         _______ _______ _______ _____ _____    ______ ____
ROOT
ATOM      1  C   UNL     1       3.196   6.152  18.914  0.00  0.00    +0.000 C 
ATOM      2  C   UNL     1       2.513   6.304  20.076  0.00  0.00    +0.000 C 
ATOM      3  C   UNL     1       1.781   7.538  20.543  0.00  0.00    +0.000 C 
ATOM      4  N   UNL     1       2.412   5.228  20.950  0.00  0.00    +0.000 N 
ATOM      5  C   UNL     1       2.720   3.918  20.617  0.00  0.00    +0.000 C 
ATOM      6  C   UNL     1       2.235   2.859  21.574  0.00  0.00    +0.000 C 
ATOM      7  C   UNL     1       3.417   3.656  19.485  0.00  0.00    +0.000 C 
ATOM      8  C   UNL     1       3.898   4.820  18.605  0.00  0.00    +0.000 C 
ATOM      9  H   UNL     1       1.820   5.365  21.767  0.00  0.00    +0.000 HD
ENDROOT
BRANCH   8  10
ATOM     10  C   UNL     1       5.402   4.987  18.731  0.00  0.00    +0.000 A 
ATOM     11  C   UNL     1       6.071   5.358  19.886  0.00  0.00    +0.000 A 
ATOM     12  N   UNL     1       7.391   5.378  19.582  0.00  0.00    +0.000 N 
ATOM     13  N   UNL     1       7.647   5.080  18.306  0.00  0.00    +0.000 NA
ATOM     14  C   UNL     1       6.445   4.828  17.750  0.00  0.00    +0.000 A 
ATOM     15  H   UNL     1       8.173   5.595  20.192  0.00  0.00    +0.000 HD
BRANCH  14  16
ATOM     16  C   UNL     1       6.376   4.484  16.320  0.00  0.00    +0.000 A 
ATOM     17  C   UNL     1       5.450   3.576  15.799  0.00  0.00    +0.000 A 
ATOM     18  C   UNL     1       5.393   3.289  14.431  0.00  0.00    +0.000 A 
ATOM     19  C   UNL     1       6.277   3.894  13.541  0.00  0.00    +0.000 A 
ATOM     20  C   UNL     1       7.236   4.773  14.049  0.00  0.00    +0.000 A 
ATOM     21  C   UNL     1       7.282   5.065  15.420  0.00  0.00    +0.000 A 
BRANCH  19  22
ATOM     22  S   UNL     1       6.146   3.438  11.823  0.00  0.00    +0.000 S 
ATOM     23  C   UNL     1       4.356   3.266  11.622  0.00  0.00    +0.000 C 
ENDBRANCH  19  22
ENDBRANCH  14  16
ENDBRANCH   8  10
BRANCH   1  24
ATOM     24  C   UNL     1       3.293   7.232  17.888  0.00  0.00    +0.000 C 
ATOM     25  O   UNL     1       4.325   7.615  17.360  0.00  0.00    +0.000 OA
BRANCH  24  27
ATOM     26  C   UNL     1       2.015   9.193  17.661  0.00  0.00    +0.000 C 
ATOM     27  O   UNL     1       2.065   7.763  17.649  0.00  0.00    +0.000 OA
ENDBRANCH  24  27
ENDBRANCH   1  24
BRANCH   7  28
ATOM     28  C   UNL     1       3.632   2.257  19.035  0.00  0.00    +0.000 C 
ATOM     29  O   UNL     1       4.425   1.478  19.542  0.00  0.00    +0.000 OA
BRANCH  28  30
ATOM     30  O   UNL     1       2.806   1.940  18.011  0.00  0.00    +0.000 OA
ATOM     31  C   UNL     1       1.418   2.183  18.263  0.00  0.00    +0.000 C 
ENDBRANCH  28  30
ENDBRANCH   7  28
TORSDOF 7
ENDMDL
MODEL 2
REMARK VINA RESULT:      -7.5      5.659      9.012
REMARK  Name = 
REMARK  12 active torsions:
REMARK  status: ('A' for Active; 'I' for Inactive)
REMARK    1  A    between atoms: C_1  and  O_2
REMARK    2  A    between atoms: O_2  and  C_3
REMARK    3  A    between atoms: C_3  and  C_5
REMARK    4  A    between atoms: C_6  and  C_7
REMARK    5  A    between atoms: C_9  and  C_10
REMARK    6  A    between atoms: C_11  and  C_12
REMARK    7  A    between atoms: C_12  and  O_14
REMARK    8  A    between atoms: O_14  and  C_15
REMARK    9  A    between atoms: C_16  and  C_17
REMARK   10  A    between atoms: C_21  and  C_22
REMARK   11  A    between atoms: C_25  and  S_26
REMARK   12  A    between atoms: S_26  and  C_27
REMARK                            x       y       z     vdW  Elec       q    Type
REMARK                         _______ _______ _______ _____ _____    ______ ____
ROOT
ATOM      1  C   UNL     1      -2.785  11.333  18.839  0.00  0.00    +0.000 C 
ATOM      2  C   UNL     1      -3.779  12.239  19.009  0.00  0.00    +0.000 C 
ATOM      3  C   UNL     1      -5.021  12.391  18.165  0.00  0.00    +0.000 C 
ATOM      4  N   UNL     1      -3.719  13.120  20.082  0.00  0.00    +0.000 N 
ATOM      5  C   UNL     1      -2.861  12.980  21.162  0.00  0.00    +0.000 C 
ATOM      6  C   UNL     1      -3.170  13.830  22.368  0.00  0.00    +0.000 C 
ATOM      7  C   UNL     1      -1.822  12.115  21.090  0.00  0.00    +0.000 C 
ATOM      8  C   UNL     1      -1.579  11.329  19.792  0.00  0.00    +0.000 C 
ATOM      9  H   UNL     1      -4.528  13.723  20.216  0.00  0.00    +0.000 HD
ENDROOT
BRANCH   8  10
ATOM     10  C   UNL     1      -0.352  11.866  19.075  0.00  0.00    +0.000 A 
ATOM     11  C   UNL     1      -0.213  13.155  18.584  0.00  0.00    +0.000 A 
ATOM     12  N   UNL     1       1.022  13.229  18.033  0.00  0.00    +0.000 N 
ATOM     13  N   UNL     1       1.701  12.082  18.093  0.00  0.00    +0.000 NA
ATOM     14  C   UNL     1       0.888  11.219  18.733  0.00  0.00    +0.000 A 
ATOM     15  H   UNL     1       1.464  14.029  17.591  0.00  0.00    +0.000 HD
BRANCH  14  16
ATOM     16  C   UNL     1       1.340   9.832  18.944  0.00  0.00    +0.000 A 
ATOM     17  C   UNL     1       1.912   9.056  17.932  0.00  0.00    +0.000 A 
ATOM     18  C   UNL     1       2.354   7.751  18.170  0.00  0.00    +0.000 A 
ATOM     19  C   UNL     1       2.221   7.174  19.431  0.00  0.00    +0.000 A 
ATOM     20  C   UNL     1       1.614   7.921  20.443  0.00  0.00    +0.000 A 
ATOM     21  C   UNL     1       1.183   9.233  20.202  0.00  0.00    +0.000 A 
BRANCH  19  22
ATOM     22  S   UNL     1       2.784   5.494  19.625  0.00  0.00    +0.000 S 
ATOM     23  C   UNL     1       4.513   5.622  19.104  0.00  0.00    +0.000 C 
ENDBRANCH  19  22
ENDBRANCH  14  16
ENDBRANCH   8  10
BRANCH   1  24
ATOM     24  C   UNL     1      -2.806  10.304  17.757  0.00  0.00    +0.000 C 
ATOM     25  O   UNL     1      -3.293   9.189  17.852  0.00  0.00    +0.000 OA
BRANCH  24  27
ATOM     26  C   UNL     1      -2.789  10.438  15.409  0.00  0.00    +0.000 C 
ATOM     27  O   UNL     1      -2.166  10.771  16.654  0.00  0.00    +0.000 OA
ENDBRANCH  24  27
ENDBRANCH   1  24
BRANCH   7  28
ATOM     28  C   UNL     1      -0.979  11.842  22.282  0.00  0.00    +0.000 C 
ATOM     29  O   UNL     1       0.012  12.486  22.594  0.00  0.00    +0.000 OA
BRANCH  28  30
ATOM     30  O   UNL     1      -1.472  10.810  23.005  0.00  0.00    +0.000 OA
ATOM     31  C   UNL     1      -0.546   9.742  23.234  0.00  0.00    +0.000 C 
ENDBRANCH  28  30
ENDBRANCH   7  28
TORSDOF 7
ENDMDL
MODEL 3
REMARK VINA RESULT:      -7.3      5.930      9.016
REMARK  Name = 
REMARK  12 active torsions:
REMARK  status: ('A' for Active; 'I' for Inactive)
REMARK    1  A    between atoms: C_1  and  O_2
REMARK    2  A    between atoms: O_2  and  C_3
REMARK    3  A    between atoms: C_3  and  C_5
REMARK    4  A    between atoms: C_6  and  C_7
REMARK    5  A    between atoms: C_9  and  C_10
REMARK    6  A    between atoms: C_11  and  C_12
REMARK    7  A    between atoms: C_12  and  O_14
REMARK    8  A    between atoms: O_14  and  C_15
REMARK    9  A    between atoms: C_16  and  C_17
REMARK   10  A    between atoms: C_21  and  C_22
REMARK   11  A    between atoms: C_25  and  S_26
REMARK   12  A    between atoms: S_26  and  C_27
REMARK                            x       y       z     vdW  Elec       q    Type
REMARK                         _______ _______ _______ _____ _____    ______ ____
ROOT
ATOM      1  C   UNL     1      -2.881  11.383  18.746  0.00  0.00    +0.000 C 
ATOM      2  C   UNL     1      -3.867  12.273  19.021  0.00  0.00    +0.000 C 
ATOM      3  C   UNL     1      -5.122  12.513  18.217  0.00  0.00    +0.000 C 
ATOM      4  N   UNL     1      -3.784  13.044  20.174  0.00  0.00    +0.000 N 
ATOM      5  C   UNL     1      -2.910  12.794  21.221  0.00  0.00    +0.000 C 
ATOM      6  C   UNL     1      -3.194  13.522  22.510  0.00  0.00    +0.000 C 
ATOM      7  C   UNL     1      -1.877  11.935  21.047  0.00  0.00    +0.000 C 
ATOM      8  C   UNL     1      -1.660  11.280  19.673  0.00  0.00    +0.000 C 
ATOM      9  H   UNL     1      -4.587  13.634  20.380  0.00  0.00    +0.000 HD
ENDROOT
BRANCH   8  10
ATOM     10  C   UNL     1      -0.442  11.879  18.993  0.00  0.00    +0.000 A 
ATOM     11  C   UNL     1      -0.351  13.177  18.514  0.00  0.00    +0.000 A 
ATOM     12  N   UNL     1       0.893  13.314  17.996  0.00  0.00    +0.000 N 
ATOM     13  N   UNL     1       1.624  12.199  18.067  0.00  0.00    +0.000 NA
ATOM     14  C   UNL     1       0.837  11.294  18.680  0.00  0.00    +0.000 A 
ATOM     15  H   UNL     1       1.309  14.136  17.571  0.00  0.00    +0.000 HD
BRANCH  14  16
ATOM     16  C   UNL     1       1.348   9.929  18.895  0.00  0.00    +0.000 A 
ATOM     17  C   UNL     1       1.200   9.243  20.103  0.00  0.00    +0.000 A 
ATOM     18  C   UNL     1       1.674   7.937  20.268  0.00  0.00    +0.000 A 
ATOM     19  C   UNL     1       2.330   7.283  19.228  0.00  0.00    +0.000 A 
ATOM     20  C   UNL     1       2.523   7.969  18.027  0.00  0.00    +0.000 A 
ATOM     21  C   UNL     1       2.035   9.273  17.864  0.00  0.00    +0.000 A 
BRANCH  19  22
ATOM     22  S   UNL     1       2.927   5.634  19.547  0.00  0.00    +0.000 S 
ATOM     23  C   UNL     1       1.584   4.942  20.544  0.00  0.00    +0.000 C 
ENDBRANCH  19  22
ENDBRANCH  14  16
ENDBRANCH   8  10
BRANCH   1  24
ATOM     24  C   UNL     1      -2.926  10.466  17.568  0.00  0.00    +0.000 C 
ATOM     25  O   UNL     1      -3.199   9.277  17.608  0.00  0.00    +0.000 OA
BRANCH  24  27
ATOM     26  C   UNL     1      -2.776  10.411  15.222  0.00  0.00    +0.000 C 
ATOM     27  O   UNL     1      -2.578  11.137  16.439  0.00  0.00    +0.000 OA
ENDBRANCH  24  27
ENDBRANCH   1  24
BRANCH   7  28
ATOM     28  C   UNL     1      -1.017  11.542  22.192  0.00  0.00    +0.000 C 
ATOM     29  O   UNL     1      -0.303  12.310  22.820  0.00  0.00    +0.000 OA
BRANCH  28  30
ATOM     30  O   UNL     1      -1.153  10.226  22.478  0.00  0.00    +0.000 OA
ATOM     31  C   UNL     1      -0.189   9.710  23.401  0.00  0.00    +0.000 C 
ENDBRANCH  28  30
ENDBRANCH   7  28
TORSDOF 7
ENDMDL
MODEL 4
REMARK VINA RESULT:      -7.3      5.897      9.305
REMARK  Name = 
REMARK  12 active torsions:
REMARK  status: ('A' for Active; 'I' for Inactive)
REMARK    1  A    between atoms: C_1  and  O_2
REMARK    2  A    between atoms: O_2  and  C_3
REMARK    3  A    between atoms: C_3  and  C_5
REMARK    4  A    between atoms: C_6  and  C_7
REMARK    5  A    between atoms: C_9  and  C_10
REMARK    6  A    between atoms: C_11  and  C_12
REMARK    7  A    between atoms: C_12  and  O_14
REMARK    8  A    between atoms: O_14  and  C_15
REMARK    9  A    between atoms: C_16  and  C_17
REMARK   10  A    between atoms: C_21  and  C_22
REMARK   11  A    between atoms: C_25  and  S_26
REMARK   12  A    between atoms: S_26  and  C_27
REMARK                            x       y       z     vdW  Elec       q    Type
REMARK                         _______ _______ _______ _____ _____    ______ ____
ROOT
ATOM      1  C   UNL     1      -2.966  11.369  18.689  0.00  0.00    +0.000 C 
ATOM      2  C   UNL     1      -4.015  12.220  18.812  0.00  0.00    +0.000 C 
ATOM      3  C   UNL     1      -5.216  12.317  17.903  0.00  0.00    +0.000 C 
ATOM      4  N   UNL     1      -4.060  13.090  19.895  0.00  0.00    +0.000 N 
ATOM      5  C   UNL     1      -3.256  12.981  21.020  0.00  0.00    +0.000 C 
ATOM      6  C   UNL     1      -3.675  13.798  22.215  0.00  0.00    +0.000 C 
ATOM      7  C   UNL     1      -2.170  12.172  20.997  0.00  0.00    +0.000 C 
ATOM      8  C   UNL     1      -1.815  11.416  19.706  0.00  0.00    +0.000 C 
ATOM      9  H   UNL     1      -4.906  13.647  19.990  0.00  0.00    +0.000 HD
ENDROOT
BRANCH   8  10
ATOM     10  C   UNL     1      -0.582  12.026  19.063  0.00  0.00    +0.000 A 
ATOM     11  C   UNL     1      -0.476  13.334  18.617  0.00  0.00    +0.000 A 
ATOM     12  N   UNL     1       0.779  13.477  18.127  0.00  0.00    +0.000 N 
ATOM     13  N   UNL     1       1.503  12.358  18.185  0.00  0.00    +0.000 NA
ATOM     14  C   UNL     1       0.700  11.442  18.761  0.00  0.00    +0.000 A 
ATOM     15  H   UNL     1       1.206  14.308  17.729  0.00  0.00    +0.000 HD
BRANCH  14  16
ATOM     16  C   UNL     1       1.201  10.070  18.952  0.00  0.00    +0.000 A 
ATOM     17  C   UNL     1       1.789   9.325  17.927  0.00  0.00    +0.000 A 
ATOM     18  C   UNL     1       2.278   8.033  18.147  0.00  0.00    +0.000 A 
ATOM     19  C   UNL     1       2.177   7.439  19.402  0.00  0.00    +0.000 A 
ATOM     20  C   UNL     1       1.555   8.154  20.428  0.00  0.00    +0.000 A 
ATOM     21  C   UNL     1       1.077   9.452  20.205  0.00  0.00    +0.000 A 
BRANCH  19  22
ATOM     22  S   UNL     1       2.799   5.777  19.573  0.00  0.00    +0.000 S 
ATOM     23  C   UNL     1       3.644   5.535  17.990  0.00  0.00    +0.000 C 
ENDBRANCH  19  22
ENDBRANCH  14  16
ENDBRANCH   8  10
BRANCH   1  24
ATOM     24  C   UNL     1      -2.874  10.354  17.597  0.00  0.00    +0.000 C 
ATOM     25  O   UNL     1      -3.235   9.191  17.681  0.00  0.00    +0.000 OA
BRANCH  24  27
ATOM     26  C   UNL     1      -2.952  10.622  15.262  0.00  0.00    +0.000 C 
ATOM     27  O   UNL     1      -2.288  10.899  16.499  0.00  0.00    +0.000 OA
ENDBRANCH  24  27
ENDBRANCH   1  24
BRANCH   7  28
ATOM     28  C   UNL     1      -1.380  11.929  22.230  0.00  0.00    +0.000 C 
ATOM     29  O   UNL     1      -1.776  11.293  23.195  0.00  0.00    +0.000 OA
BRANCH  28  30
ATOM     30  O   UNL     1      -0.143  12.472  22.134  0.00  0.00    +0.000 OA
ATOM     31  C   UNL     1      -0.097  13.893  22.298  0.00  0.00    +0.000 C 
ENDBRANCH  28  30
ENDBRANCH   7  28
TORSDOF 7
ENDMDL
MODEL 5
REMARK VINA RESULT:      -7.2      6.233      9.707
REMARK  Name = 
REMARK  12 active torsions:
REMARK  status: ('A' for Active; 'I' for Inactive)
REMARK    1  A    between atoms: C_1  and  O_2
REMARK    2  A    between atoms: O_2  and  C_3
REMARK    3  A    between atoms: C_3  and  C_5
REMARK    4  A    between atoms: C_6  and  C_7
REMARK    5  A    between atoms: C_9  and  C_10
REMARK    6  A    between atoms: C_11  and  C_12
REMARK    7  A    between atoms: C_12  and  O_14
REMARK    8  A    between atoms: O_14  and  C_15
REMARK    9  A    between atoms: C_16  and  C_17
REMARK   10  A    between atoms: C_21  and  C_22
REMARK   11  A    between atoms: C_25  and  S_26
REMARK   12  A    between atoms: S_26  and  C_27
REMARK                            x       y       z     vdW  Elec       q    Type
REMARK                         _______ _______ _______ _____ _____    ______ ____
ROOT
ATOM      1  C   UNL     1      -3.129  11.517  18.647  0.00  0.00    +0.000 C 
ATOM      2  C   UNL     1      -4.234  12.302  18.592  0.00  0.00    +0.000 C 
ATOM      3  C   UNL     1      -5.325  12.262  17.550  0.00  0.00    +0.000 C 
ATOM      4  N   UNL     1      -4.455  13.234  19.600  0.00  0.00    +0.000 N 
ATOM      5  C   UNL     1      -3.781  13.250  20.812  0.00  0.00    +0.000 C 
ATOM      6  C   UNL     1      -4.382  14.112  21.892  0.00  0.00    +0.000 C 
ATOM      7  C   UNL     1      -2.654  12.515  20.967  0.00  0.00    +0.000 C 
ATOM      8  C   UNL     1      -2.108  11.705  19.780  0.00  0.00    +0.000 C 
ATOM      9  H   UNL     1      -5.337  13.739  19.560  0.00  0.00    +0.000 HD
ENDROOT
BRANCH   8  10
ATOM     10  C   UNL     1      -0.847  12.353  19.237  0.00  0.00    +0.000 A 
ATOM     11  C   UNL     1      -0.735  13.676  18.841  0.00  0.00    +0.000 A 
ATOM     12  N   UNL     1       0.546  13.853  18.437  0.00  0.00    +0.000 N 
ATOM     13  N   UNL     1       1.284  12.743  18.506  0.00  0.00    +0.000 NA
ATOM     14  C   UNL     1       0.461  11.797  18.999  0.00  0.00    +0.000 A 
ATOM     15  H   UNL     1       0.984  14.702  18.094  0.00  0.00    +0.000 HD
BRANCH  14  16
ATOM     16  C   UNL     1       0.971  10.427  19.179  0.00  0.00    +0.000 A 
ATOM     17  C   UNL     1       0.878   9.733  20.388  0.00  0.00    +0.000 A 
ATOM     18  C   UNL     1       1.349   8.423  20.520  0.00  0.00    +0.000 A 
ATOM     19  C   UNL     1       1.947   7.771  19.443  0.00  0.00    +0.000 A 
ATOM     20  C   UNL     1       2.086   8.465  18.240  0.00  0.00    +0.000 A 
ATOM     21  C   UNL     1       1.601   9.774  18.110  0.00  0.00    +0.000 A 
BRANCH  19  22
ATOM     22  S   UNL     1       2.546   6.115  19.721  0.00  0.00    +0.000 S 
ATOM     23  C   UNL     1       2.542   5.435  18.044  0.00  0.00    +0.000 C 
ENDBRANCH  19  22
ENDBRANCH  14  16
ENDBRANCH   8  10
BRANCH   1  24
ATOM     24  C   UNL     1      -2.852  10.443  17.647  0.00  0.00    +0.000 C 
ATOM     25  O   UNL     1      -3.093   9.256  17.799  0.00  0.00    +0.000 OA
BRANCH  24  27
ATOM     26  C   UNL     1      -2.870  10.633  15.302  0.00  0.00    +0.000 C 
ATOM     27  O   UNL     1      -2.251  10.970  16.548  0.00  0.00    +0.000 OA
ENDBRANCH  24  27
ENDBRANCH   1  24
BRANCH   7  28
ATOM     28  C   UNL     1      -1.999  12.404  22.295  0.00  0.00    +0.000 C 
ATOM     29  O   UNL     1      -2.247  11.540  23.122  0.00  0.00    +0.000 OA
BRANCH  28  30
ATOM     30  O   UNL     1      -1.058  13.363  22.458  0.00  0.00    +0.000 OA
ATOM     31  C   UNL     1      -1.192  14.136  23.655  0.00  0.00    +0.000 C 
ENDBRANCH  28  30
ENDBRANCH   7  28
TORSDOF 7
ENDMDL
MODEL 6
REMARK VINA RESULT:      -7.1      0.563      1.345
REMARK  Name = 
REMARK  12 active torsions:
REMARK  status: ('A' for Active; 'I' for Inactive)
REMARK    1  A    between atoms: C_1  and  O_2
REMARK    2  A    between atoms: O_2  and  C_3
REMARK    3  A    between atoms: C_3  and  C_5
REMARK    4  A    between atoms: C_6  and  C_7
REMARK    5  A    between atoms: C_9  and  C_10
REMARK    6  A    between atoms: C_11  and  C_12
REMARK    7  A    between atoms: C_12  and  O_14
REMARK    8  A    between atoms: O_14  and  C_15
REMARK    9  A    between atoms: C_16  and  C_17
REMARK   10  A    between atoms: C_21  and  C_22
REMARK   11  A    between atoms: C_25  and  S_26
REMARK   12  A    between atoms: S_26  and  C_27
REMARK                            x       y       z     vdW  Elec       q    Type
REMARK                         _______ _______ _______ _____ _____    ______ ____
ROOT
ATOM      1  C   UNL     1       2.923   6.331  18.841  0.00  0.00    +0.000 C 
ATOM      2  C   UNL     1       2.181   6.385  19.975  0.00  0.00    +0.000 C 
ATOM      3  C   UNL     1       1.518   7.604  20.567  0.00  0.00    +0.000 C 
ATOM      4  N   UNL     1       1.941   5.214  20.685  0.00  0.00    +0.000 N 
ATOM      5  C   UNL     1       2.168   3.939  20.192  0.00  0.00    +0.000 C 
ATOM      6  C   UNL     1       1.541   2.808  20.966  0.00  0.00    +0.000 C 
ATOM      7  C   UNL     1       2.914   3.771  19.073  0.00  0.00    +0.000 C 
ATOM      8  C   UNL     1       3.539   4.997  18.388  0.00  0.00    +0.000 C 
ATOM      9  H   UNL     1       1.311   5.292  21.480  0.00  0.00    +0.000 HD
ENDROOT
BRANCH   8  10
ATOM     10  C   UNL     1       5.040   5.017  18.616  0.00  0.00    +0.000 A 
ATOM     11  C   UNL     1       5.662   5.291  19.824  0.00  0.00    +0.000 A 
ATOM     12  N   UNL     1       6.996   5.194  19.605  0.00  0.00    +0.000 N 
ATOM     13  N   UNL     1       7.307   4.907  18.340  0.00  0.00    +0.000 NA
ATOM     14  C   UNL     1       6.127   4.786  17.700  0.00  0.00    +0.000 A 
ATOM     15  H   UNL     1       7.751   5.319  20.271  0.00  0.00    +0.000 HD
BRANCH  14  16
ATOM     16  C   UNL     1       6.123   4.489  16.257  0.00  0.00    +0.000 A 
ATOM     17  C   UNL     1       7.122   4.932  15.386  0.00  0.00    +0.000 A 
ATOM     18  C   UNL     1       7.102   4.613  14.024  0.00  0.00    +0.000 A 
ATOM     19  C   UNL     1       6.067   3.850  13.488  0.00  0.00    +0.000 A 
ATOM     20  C   UNL     1       5.039   3.434  14.336  0.00  0.00    +0.000 A 
ATOM     21  C   UNL     1       5.070   3.748  15.702  0.00  0.00    +0.000 A 
BRANCH  19  22
ATOM     22  S   UNL     1       6.115   3.525  11.736  0.00  0.00    +0.000 S 
ATOM     23  C   UNL     1       4.378   3.165  11.380  0.00  0.00    +0.000 C 
ENDBRANCH  19  22
ENDBRANCH  14  16
ENDBRANCH   8  10
BRANCH   1  24
ATOM     24  C   UNL     1       3.169   7.525  17.980  0.00  0.00    +0.000 C 
ATOM     25  O   UNL     1       4.267   7.938  17.640  0.00  0.00    +0.000 OA
BRANCH  24  27
ATOM     26  C   UNL     1       2.007   9.551  17.701  0.00  0.00    +0.000 C 
ATOM     27  O   UNL     1       1.992   8.121  17.657  0.00  0.00    +0.000 OA
ENDBRANCH  24  27
ENDBRANCH   1  24
BRANCH   7  28
ATOM     28  C   UNL     1       3.049   2.432  18.447  0.00  0.00    +0.000 C 
ATOM     29  O   UNL     1       2.230   1.933  17.689  0.00  0.00    +0.000 OA
BRANCH  28  30
ATOM     30  O   UNL     1       4.220   1.846  18.791  0.00  0.00    +0.000 OA
ATOM     31  C   UNL     1       4.532   1.905  20.187  0.00  0.00    +0.000 C 
ENDBRANCH  28  30
ENDBRANCH   7  28
TORSDOF 7
ENDMDL
MODEL 7
REMARK VINA RESULT:      -6.9      7.929     12.227
REMARK  Name = 
REMARK  12 active torsions:
REMARK  status: ('A' for Active; 'I' for Inactive)
REMARK    1  A    between atoms: C_1  and  O_2
REMARK    2  A    between atoms: O_2  and  C_3
REMARK    3  A    between atoms: C_3  and  C_5
REMARK    4  A    between atoms: C_6  and  C_7
REMARK    5  A    between atoms: C_9  and  C_10
REMARK    6  A    between atoms: C_11  and  C_12
REMARK    7  A    between atoms: C_12  and  O_14
REMARK    8  A    between atoms: O_14  and  C_15
REMARK    9  A    between atoms: C_16  and  C_17
REMARK   10  A    between atoms: C_21  and  C_22
REMARK   11  A    between atoms: C_25  and  S_26
REMARK   12  A    between atoms: S_26  and  C_27
REMARK                            x       y       z     vdW  Elec       q    Type
REMARK                         _______ _______ _______ _____ _____    ______ ____
ROOT
ATOM      1  C   UNL     1      -0.563  10.497  19.451  0.00  0.00    +0.000 C 
ATOM      2  C   UNL     1      -0.037   9.981  18.312  0.00  0.00    +0.000 C 
ATOM      3  C   UNL     1       1.266   9.232  18.172  0.00  0.00    +0.000 C 
ATOM      4  N   UNL     1      -0.752  10.089  17.125  0.00  0.00    +0.000 N 
ATOM      5  C   UNL     1      -2.090  10.444  17.047  0.00  0.00    +0.000 C 
ATOM      6  C   UNL     1      -2.769  10.183  15.726  0.00  0.00    +0.000 C 
ATOM      7  C   UNL     1      -2.708  10.987  18.123  0.00  0.00    +0.000 C 
ATOM      8  C   UNL     1      -1.904  11.245  19.407  0.00  0.00    +0.000 C 
ATOM      9  H   UNL     1      -0.357   9.613  16.316  0.00  0.00    +0.000 HD
ENDROOT
BRANCH   8  10
ATOM     10  C   UNL     1      -1.671  12.735  19.590  0.00  0.00    +0.000 A 
ATOM     11  C   UNL     1      -0.655  13.465  18.993  0.00  0.00    +0.000 A 
ATOM     12  N   UNL     1      -0.807  14.748  19.400  0.00  0.00    +0.000 N 
ATOM     13  N   UNL     1      -1.826  14.920  20.245  0.00  0.00    +0.000 NA
ATOM     14  C   UNL     1      -2.386  13.703  20.382  0.00  0.00    +0.000 A 
ATOM     15  H   UNL     1      -0.247  15.556  19.149  0.00  0.00    +0.000 HD
BRANCH  14  16
ATOM     16  C   UNL     1      -3.542  13.544  21.282  0.00  0.00    +0.000 A 
ATOM     17  C   UNL     1      -4.847  13.878  20.911  0.00  0.00    +0.000 A 
ATOM     18  C   UNL     1      -5.927  13.692  21.779  0.00  0.00    +0.000 A 
ATOM     19  C   UNL     1      -5.730  13.178  23.059  0.00  0.00    +0.000 A 
ATOM     20  C   UNL     1      -4.427  12.877  23.461  0.00  0.00    +0.000 A 
ATOM     21  C   UNL     1      -3.349  13.055  22.582  0.00  0.00    +0.000 A 
BRANCH  19  22
ATOM     22  S   UNL     1      -7.165  13.010  24.102  0.00  0.00    +0.000 S 
ATOM     23  C   UNL     1      -7.916  14.651  23.965  0.00  0.00    +0.000 C 
ENDBRANCH  19  22
ENDBRANCH  14  16
ENDBRANCH   8  10
BRANCH   1  24
ATOM     24  C   UNL     1       0.104  10.362  20.780  0.00  0.00    +0.000 C 
ATOM     25  O   UNL     1       0.818  11.204  21.301  0.00  0.00    +0.000 OA
BRANCH  24  27
ATOM     26  C   UNL     1       0.984   8.409  21.749  0.00  0.00    +0.000 C 
ATOM     27  O   UNL     1      -0.165   9.144  21.318  0.00  0.00    +0.000 OA
ENDBRANCH  24  27
ENDBRANCH   1  24
BRANCH   7  28
ATOM     28  C   UNL     1      -4.171  11.240  18.109  0.00  0.00    +0.000 C 
ATOM     29  O   UNL     1      -4.690  12.299  17.790  0.00  0.00    +0.000 OA
BRANCH  28  30
ATOM     30  O   UNL     1      -4.863  10.130  18.458  0.00  0.00    +0.000 OA
ATOM     31  C   UNL     1      -6.223  10.366  18.837  0.00  0.00    +0.000 C 
ENDBRANCH  28  30
ENDBRANCH   7  28
TORSDOF 7
ENDMDL
MODEL 8
REMARK VINA RESULT:      -6.9      0.558      1.307
REMARK  Name = 
REMARK  12 active torsions:
REMARK  status: ('A' for Active; 'I' for Inactive)
REMARK    1  A    between atoms: C_1  and  O_2
REMARK    2  A    between atoms: O_2  and  C_3
REMARK    3  A    between atoms: C_3  and  C_5
REMARK    4  A    between atoms: C_6  and  C_7
REMARK    5  A    between atoms: C_9  and  C_10
REMARK    6  A    between atoms: C_11  and  C_12
REMARK    7  A    between atoms: C_12  and  O_14
REMARK    8  A    between atoms: O_14  and  C_15
REMARK    9  A    between atoms: C_16  and  C_17
REMARK   10  A    between atoms: C_21  and  C_22
REMARK   11  A    between atoms: C_25  and  S_26
REMARK   12  A    between atoms: S_26  and  C_27
REMARK                            x       y       z     vdW  Elec       q    Type
REMARK                         _______ _______ _______ _____ _____    ______ ____
ROOT
ATOM      1  C   UNL     1       3.227   6.344  18.765  0.00  0.00    +0.000 C 
ATOM      2  C   UNL     1       2.526   6.588  19.900  0.00  0.00    +0.000 C 
ATOM      3  C   UNL     1       1.861   7.884  20.294  0.00  0.00    +0.000 C 
ATOM      4  N   UNL     1       2.336   5.558  20.814  0.00  0.00    +0.000 N 
ATOM      5  C   UNL     1       2.569   4.219  20.544  0.00  0.00    +0.000 C 
ATOM      6  C   UNL     1       1.994   3.234  21.530  0.00  0.00    +0.000 C 
ATOM      7  C   UNL     1       3.277   3.866  19.444  0.00  0.00    +0.000 C 
ATOM      8  C   UNL     1       3.852   4.959  18.530  0.00  0.00    +0.000 C 
ATOM      9  H   UNL     1       1.733   5.767  21.608  0.00  0.00    +0.000 HD
ENDROOT
BRANCH   8  10
ATOM     10  C   UNL     1       5.360   5.039  18.692  0.00  0.00    +0.000 A 
ATOM     11  C   UNL     1       6.023   5.368  19.864  0.00  0.00    +0.000 A 
ATOM     12  N   UNL     1       7.348   5.312  19.589  0.00  0.00    +0.000 N 
ATOM     13  N   UNL     1       7.616   5.002  18.319  0.00  0.00    +0.000 NA
ATOM     14  C   UNL     1       6.415   4.821  17.735  0.00  0.00    +0.000 A 
ATOM     15  H   UNL     1       8.127   5.482  20.218  0.00  0.00    +0.000 HD
BRANCH  14  16
ATOM     16  C   UNL     1       6.359   4.484  16.302  0.00  0.00    +0.000 A 
ATOM     17  C   UNL     1       7.310   4.928  15.379  0.00  0.00    +0.000 A 
ATOM     18  C   UNL     1       7.244   4.571  14.028  0.00  0.00    +0.000 A 
ATOM     19  C   UNL     1       6.209   3.768  13.556  0.00  0.00    +0.000 A 
ATOM     20  C   UNL     1       5.227   3.350  14.457  0.00  0.00    +0.000 A 
ATOM     21  C   UNL     1       5.305   3.702  15.811  0.00  0.00    +0.000 A 
BRANCH  19  22
ATOM     22  S   UNL     1       6.193   3.396  11.812  0.00  0.00    +0.000 S 
ATOM     23  C   UNL     1       4.426   3.161  11.501  0.00  0.00    +0.000 C 
ENDBRANCH  19  22
ENDBRANCH  14  16
ENDBRANCH   8  10
BRANCH   1  24
ATOM     24  C   UNL     1       3.418   7.371  17.698  0.00  0.00    +0.000 C 
ATOM     25  O   UNL     1       2.571   8.165  17.322  0.00  0.00    +0.000 OA
BRANCH  24  27
ATOM     26  C   UNL     1       4.715   7.279  15.738  0.00  0.00    +0.000 C 
ATOM     27  O   UNL     1       4.665   7.270  17.168  0.00  0.00    +0.000 OA
ENDBRANCH  24  27
ENDBRANCH   1  24
BRANCH   7  28
ATOM     28  C   UNL     1       3.416   2.439  19.058  0.00  0.00    +0.000 C 
ATOM     29  O   UNL     1       4.172   1.644  19.596  0.00  0.00    +0.000 OA
BRANCH  28  30
ATOM     30  O   UNL     1       2.564   2.117  18.056  0.00  0.00    +0.000 OA
ATOM     31  C   UNL     1       1.193   2.000  18.450  0.00  0.00    +0.000 C 
ENDBRANCH  28  30
ENDBRANCH   7  28
TORSDOF 7
ENDMDL
MODEL 9
REMARK VINA RESULT:      -6.8      5.852      9.641
REMARK  Name = 
REMARK  12 active torsions:
REMARK  status: ('A' for Active; 'I' for Inactive)
REMARK    1  A    between atoms: C_1  and  O_2
REMARK    2  A    between atoms: O_2  and  C_3
REMARK    3  A    between atoms: C_3  and  C_5
REMARK    4  A    between atoms: C_6  and  C_7
REMARK    5  A    between atoms: C_9  and  C_10
REMARK    6  A    between atoms: C_11  and  C_12
REMARK    7  A    between atoms: C_12  and  O_14
REMARK    8  A    between atoms: O_14  and  C_15
REMARK    9  A    between atoms: C_16  and  C_17
REMARK   10  A    between atoms: C_21  and  C_22
REMARK   11  A    between atoms: C_25  and  S_26
REMARK   12  A    between atoms: S_26  and  C_27
REMARK                            x       y       z     vdW  Elec       q    Type
REMARK                         _______ _______ _______ _____ _____    ______ ____
ROOT
ATOM      1  C   UNL     1      -0.375  12.836  22.030  0.00  0.00    +0.000 C 
ATOM      2  C   UNL     1      -0.697  14.071  22.489  0.00  0.00    +0.000 C 
ATOM      3  C   UNL     1      -1.547  14.399  23.692  0.00  0.00    +0.000 C 
ATOM      4  N   UNL     1      -0.184  15.191  21.843  0.00  0.00    +0.000 N 
ATOM      5  C   UNL     1       0.854  15.157  20.925  0.00  0.00    +0.000 C 
ATOM      6  C   UNL     1       1.487  16.484  20.592  0.00  0.00    +0.000 C 
ATOM      7  C   UNL     1       1.243  13.975  20.390  0.00  0.00    +0.000 C 
ATOM      8  C   UNL     1       0.497  12.687  20.773  0.00  0.00    +0.000 C 
ATOM      9  H   UNL     1      -0.385  16.090  22.274  0.00  0.00    +0.000 HD
ENDROOT
BRANCH   8  10
ATOM     10  C   UNL     1      -0.352  12.206  19.609  0.00  0.00    +0.000 A 
ATOM     11  C   UNL     1      -1.417  12.900  19.056  0.00  0.00    +0.000 A 
ATOM     12  N   UNL     1      -1.890  12.138  18.040  0.00  0.00    +0.000 N 
ATOM     13  N   UNL     1      -1.242  10.980  17.897  0.00  0.00    +0.000 NA
ATOM     14  C   UNL     1      -0.283  10.988  18.844  0.00  0.00    +0.000 A 
ATOM     15  H   UNL     1      -2.658  12.342  17.409  0.00  0.00    +0.000 HD
BRANCH  14  16
ATOM     16  C   UNL     1       0.607   9.821  18.970  0.00  0.00    +0.000 A 
ATOM     17  C   UNL     1       0.762   9.108  20.162  0.00  0.00    +0.000 A 
ATOM     18  C   UNL     1       1.597   7.989  20.243  0.00  0.00    +0.000 A 
ATOM     19  C   UNL     1       2.318   7.558  19.132  0.00  0.00    +0.000 A 
ATOM     20  C   UNL     1       2.207   8.283  17.945  0.00  0.00    +0.000 A 
ATOM     21  C   UNL     1       1.360   9.398  17.865  0.00  0.00    +0.000 A 
BRANCH  19  22
ATOM     22  S   UNL     1       3.380   6.142  19.346  0.00  0.00    +0.000 S 
ATOM     23  C   UNL     1       3.484   5.500  17.657  0.00  0.00    +0.000 C 
ENDBRANCH  19  22
ENDBRANCH  14  16
ENDBRANCH   8  10
BRANCH   1  24
ATOM     24  C   UNL     1      -0.823  11.583  22.706  0.00  0.00    +0.000 C 
ATOM     25  O   UNL     1      -1.969  11.331  23.041  0.00  0.00    +0.000 OA
BRANCH  24  27
ATOM     26  C   UNL     1      -0.090   9.482  23.467  0.00  0.00    +0.000 C 
ATOM     27  O   UNL     1       0.240  10.769  22.935  0.00  0.00    +0.000 OA
ENDBRANCH  24  27
ENDBRANCH   1  24
BRANCH   7  28
ATOM     28  C   UNL     1       2.443  13.896  19.518  0.00  0.00    +0.000 C 
ATOM     29  O   UNL     1       2.413  13.775  18.303  0.00  0.00    +0.000 OA
BRANCH  28  30
ATOM     30  O   UNL     1       3.582  14.017  20.241  0.00  0.00    +0.000 OA
ATOM     31  C   UNL     1       4.603  14.807  19.623  0.00  0.00    +0.000 C 
ENDBRANCH  28  30
ENDBRANCH   7  28
TORSDOF 7
ENDMDL
