MODEL 1
REMARK VINA RESULT:      -8.1      0.000      0.000
REMARK  Name = 
REMARK  4 active torsions:
REMARK  status: ('A' for Active; 'I' for Inactive)
REMARK    1  A    between atoms: C_1  and  C_2
REMARK    2  A    between atoms: C_2  and  N_3
REMARK    3  A    between atoms: C_7  and  C_8
REMARK    4  A    between atoms: N_10  and  O_11
REMARK                            x       y       z     vdW  Elec       q    Type
REMARK                         _______ _______ _______ _____ _____    ______ ____
ROOT
ATOM      1  N   UNL     1       4.084   4.474  19.540  0.00  0.00    +0.000 N 
ATOM      2  C   UNL     1       4.770   4.557  18.347  0.00  0.00    +0.000 A 
ATOM      3  N   UNL     1       6.111   4.529  18.400  0.00  0.00    +0.000 NA
ATOM      4  C   UNL     1       6.786   4.610  17.226  0.00  0.00    +0.000 A 
ATOM      5  C   UNL     1       6.169   4.642  15.999  0.00  0.00    +0.000 A 
ATOM      6  C   UNL     1       4.801   4.618  16.044  0.00  0.00    +0.000 A 
ATOM      7  N   UNL     1       4.100   4.616  17.193  0.00  0.00    +0.000 NA
ATOM      8  H   UNL     1       4.297   3.576  19.956  0.00  0.00    +0.000 HD
ENDROOT
BRANCH   1  10
ATOM      9  C   UNL     1       2.666   6.462  19.401  0.00  0.00    +0.000 C 
ATOM     10  C   UNL     1       2.691   4.942  19.679  0.00  0.00    +0.000 C 
ATOM     11  C   UNL     1       2.269   4.740  21.164  0.00  0.00    +0.000 C 
ATOM     12  C   UNL     1       2.016   3.279  21.546  0.00  0.00    +0.000 C 
ATOM     13  C   UNL     1       1.052   2.591  20.586  0.00  0.00    +0.000 C 
ATOM     14  C   UNL     1       1.513   2.734  19.143  0.00  0.00    +0.000 C 
ATOM     15  C   UNL     1       1.679   4.206  18.779  0.00  0.00    +0.000 C 
ENDBRANCH   1  10
BRANCH   5  16
ATOM     16  C   UNL     1       6.849   4.643  14.699  0.00  0.00    +0.000 C 
ATOM     17  O   UNL     1       6.474   3.892  13.800  0.00  0.00    +0.000 OA
ATOM     18  N   UNL     1       7.876   5.539  14.515  0.00  0.00    +0.000 N 
ATOM     19  H   UNL     1       7.987   6.386  15.062  0.00  0.00    +0.000 HD
BRANCH  18  20
ATOM     20  O   UNL     1       8.363   5.600  13.185  0.00  0.00    +0.000 OA
ATOM     21  H   UNL     1       7.535   5.576  12.654  0.00  0.00    +0.000 HD
ENDBRANCH  18  20
ENDBRANCH   5  16
TORSDOF 3
ENDMDL
MODEL 2
REMARK VINA RESULT:      -7.7      1.324      1.624
REMARK  Name = 
REMARK  4 active torsions:
REMARK  status: ('A' for Active; 'I' for Inactive)
REMARK    1  A    between atoms: C_1  and  C_2
REMARK    2  A    between atoms: C_2  and  N_3
REMARK    3  A    between atoms: C_7  and  C_8
REMARK    4  A    between atoms: N_10  and  O_11
REMARK                            x       y       z     vdW  Elec       q    Type
REMARK                         _______ _______ _______ _____ _____    ______ ____
ROOT
ATOM      1  N   UNL     1       3.198   4.955  18.618  0.00  0.00    +0.000 N 
ATOM      2  C   UNL     1       4.051   4.943  17.534  0.00  0.00    +0.000 A 
ATOM      3  N   UNL     1       4.626   6.104  17.187  0.00  0.00    +0.000 NA
ATOM      4  C   UNL     1       5.467   6.093  16.122  0.00  0.00    +0.000 A 
ATOM      5  C   UNL     1       5.808   4.951  15.440  0.00  0.00    +0.000 A 
ATOM      6  C   UNL     1       5.208   3.808  15.897  0.00  0.00    +0.000 A 
ATOM      7  N   UNL     1       4.312   3.796  16.901  0.00  0.00    +0.000 NA
ATOM      8  H   UNL     1       3.738   5.217  19.433  0.00  0.00    +0.000 HD
ENDROOT
BRANCH   1  10
ATOM      9  C   UNL     1       1.230   3.918  17.601  0.00  0.00    +0.000 C 
ATOM     10  C   UNL     1       2.176   3.910  18.824  0.00  0.00    +0.000 C 
ATOM     11  C   UNL     1       1.326   4.316  20.063  0.00  0.00    +0.000 C 
ATOM     12  C   UNL     1       2.051   4.136  21.401  0.00  0.00    +0.000 C 
ATOM     13  C   UNL     1       2.640   2.739  21.553  0.00  0.00    +0.000 C 
ATOM     14  C   UNL     1       3.527   2.382  20.369  0.00  0.00    +0.000 C 
ATOM     15  C   UNL     1       2.746   2.498  19.063  0.00  0.00    +0.000 C 
ENDBRANCH   1  10
BRANCH   5  16
ATOM     16  C   UNL     1       6.775   4.868  14.338  0.00  0.00    +0.000 C 
ATOM     17  O   UNL     1       6.551   4.148  13.367  0.00  0.00    +0.000 OA
ATOM     18  N   UNL     1       7.901   5.655  14.416  0.00  0.00    +0.000 N 
ATOM     19  H   UNL     1       7.962   6.492  14.984  0.00  0.00    +0.000 HD
BRANCH  18  20
ATOM     20  O   UNL     1       8.693   5.650  13.239  0.00  0.00    +0.000 OA
ATOM     21  H   UNL     1       9.604   5.752  13.595  0.00  0.00    +0.000 HD
ENDBRANCH  18  20
ENDBRANCH   5  16
TORSDOF 3
ENDMDL
MODEL 3
REMARK VINA RESULT:      -7.2      0.793      1.985
REMARK  Name = 
REMARK  4 active torsions:
REMARK  status: ('A' for Active; 'I' for Inactive)
REMARK    1  A    between atoms: C_1  and  C_2
REMARK    2  A    between atoms: C_2  and  N_3
REMARK    3  A    between atoms: C_7  and  C_8
REMARK    4  A    between atoms: N_10  and  O_11
REMARK                            x       y       z     vdW  Elec       q    Type
REMARK                         _______ _______ _______ _____ _____    ______ ____
ROOT
ATOM      1  N   UNL     1       3.994   3.415  19.058  0.00  0.00    +0.000 N 
ATOM      2  C   UNL     1       4.705   3.760  17.929  0.00  0.00    +0.000 A 
ATOM      3  N   UNL     1       5.988   4.120  18.091  0.00  0.00    +0.000 NA
ATOM      4  C   UNL     1       6.689   4.458  16.980  0.00  0.00    +0.000 A 
ATOM      5  C   UNL     1       6.176   4.378  15.708  0.00  0.00    +0.000 A 
ATOM      6  C   UNL     1       4.876   3.954  15.640  0.00  0.00    +0.000 A 
ATOM      7  N   UNL     1       4.129   3.685  16.726  0.00  0.00    +0.000 NA
ATOM      8  H   UNL     1       4.432   2.596  19.461  0.00  0.00    +0.000 HD
ENDROOT
BRANCH   1  10
ATOM      9  C   UNL     1       1.990   2.288  18.224  0.00  0.00    +0.000 C 
ATOM     10  C   UNL     1       2.518   3.449  19.097  0.00  0.00    +0.000 C 
ATOM     11  C   UNL     1       2.057   4.775  18.424  0.00  0.00    +0.000 C 
ATOM     12  C   UNL     1       2.296   6.023  19.280  0.00  0.00    +0.000 C 
ATOM     13  C   UNL     1       1.727   5.875  20.686  0.00  0.00    +0.000 C 
ATOM     14  C   UNL     1       2.242   4.611  21.360  0.00  0.00    +0.000 C 
ATOM     15  C   UNL     1       1.916   3.384  20.514  0.00  0.00    +0.000 C 
ENDBRANCH   1  10
BRANCH   5  16
ATOM     16  C   UNL     1       6.914   4.648  14.469  0.00  0.00    +0.000 C 
ATOM     17  O   UNL     1       6.584   4.105  13.417  0.00  0.00    +0.000 OA
ATOM     18  N   UNL     1       7.944   5.559  14.524  0.00  0.00    +0.000 N 
ATOM     19  H   UNL     1       8.025   6.272  15.241  0.00  0.00    +0.000 HD
BRANCH  18  20
ATOM     20  O   UNL     1       8.489   5.895  13.259  0.00  0.00    +0.000 OA
ATOM     21  H   UNL     1       9.352   5.423  13.266  0.00  0.00    +0.000 HD
ENDBRANCH  18  20
ENDBRANCH   5  16
TORSDOF 3
ENDMDL
MODEL 4
REMARK VINA RESULT:      -7.2      1.353      1.664
REMARK  Name = 
REMARK  4 active torsions:
REMARK  status: ('A' for Active; 'I' for Inactive)
REMARK    1  A    between atoms: C_1  and  C_2
REMARK    2  A    between atoms: C_2  and  N_3
REMARK    3  A    between atoms: C_7  and  C_8
REMARK    4  A    between atoms: N_10  and  O_11
REMARK                            x       y       z     vdW  Elec       q    Type
REMARK                         _______ _______ _______ _____ _____    ______ ____
ROOT
ATOM      1  N   UNL     1       3.644   4.881  18.804  0.00  0.00    +0.000 N 
ATOM      2  C   UNL     1       4.390   4.899  17.644  0.00  0.00    +0.000 A 
ATOM      3  N   UNL     1       5.254   5.914  17.480  0.00  0.00    +0.000 NA
ATOM      4  C   UNL     1       5.990   5.932  16.340  0.00  0.00    +0.000 A 
ATOM      5  C   UNL     1       5.947   4.935  15.396  0.00  0.00    +0.000 A 
ATOM      6  C   UNL     1       5.071   3.919  15.674  0.00  0.00    +0.000 A 
ATOM      7  N   UNL     1       4.272   3.909  16.757  0.00  0.00    +0.000 NA
ATOM      8  H   UNL     1       4.285   4.789  19.582  0.00  0.00    +0.000 HD
ENDROOT
BRANCH   1  10
ATOM      9  C   UNL     1       1.529   4.440  17.658  0.00  0.00    +0.000 C 
ATOM     10  C   UNL     1       2.379   4.128  18.910  0.00  0.00    +0.000 C 
ATOM     11  C   UNL     1       1.602   4.680  20.141  0.00  0.00    +0.000 C 
ATOM     12  C   UNL     1       2.189   4.253  21.490  0.00  0.00    +0.000 C 
ATOM     13  C   UNL     1       2.391   2.745  21.579  0.00  0.00    +0.000 C 
ATOM     14  C   UNL     1       3.214   2.228  20.408  0.00  0.00    +0.000 C 
ATOM     15  C   UNL     1       2.555   2.607  19.085  0.00  0.00    +0.000 C 
ENDBRANCH   1  10
BRANCH   5  16
ATOM     16  C   UNL     1       6.780   4.861  14.190  0.00  0.00    +0.000 C 
ATOM     17  O   UNL     1       7.815   5.519  14.108  0.00  0.00    +0.000 OA
ATOM     18  N   UNL     1       6.385   4.001  13.192  0.00  0.00    +0.000 N 
ATOM     19  H   UNL     1       5.773   3.206  13.346  0.00  0.00    +0.000 HD
BRANCH  18  20
ATOM     20  O   UNL     1       7.329   3.856  12.144  0.00  0.00    +0.000 OA
ATOM     21  H   UNL     1       7.885   4.660  12.246  0.00  0.00    +0.000 HD
ENDBRANCH  18  20
ENDBRANCH   5  16
TORSDOF 3
ENDMDL
MODEL 5
REMARK VINA RESULT:      -7.1      1.345      1.596
REMARK  Name = 
REMARK  4 active torsions:
REMARK  status: ('A' for Active; 'I' for Inactive)
REMARK    1  A    between atoms: C_1  and  C_2
REMARK    2  A    between atoms: C_2  and  N_3
REMARK    3  A    between atoms: C_7  and  C_8
REMARK    4  A    between atoms: N_10  and  O_11
REMARK                            x       y       z     vdW  Elec       q    Type
REMARK                         _______ _______ _______ _____ _____    ______ ____
ROOT
ATOM      1  N   UNL     1       3.529   4.403  20.093  0.00  0.00    +0.000 N 
ATOM      2  C   UNL     1       4.430   4.853  19.152  0.00  0.00    +0.000 A 
ATOM      3  N   UNL     1       5.726   4.888  19.502  0.00  0.00    +0.000 NA
ATOM      4  C   UNL     1       6.613   5.329  18.576  0.00  0.00    +0.000 A 
ATOM      5  C   UNL     1       6.263   5.665  17.291  0.00  0.00    +0.000 A 
ATOM      6  C   UNL     1       4.926   5.552  17.013  0.00  0.00    +0.000 A 
ATOM      7  N   UNL     1       4.009   5.192  17.930  0.00  0.00    +0.000 NA
ATOM      8  H   UNL     1       3.755   3.439  20.301  0.00  0.00    +0.000 HD
ENDROOT
BRANCH   1  10
ATOM      9  C   UNL     1       1.911   6.188  20.519  0.00  0.00    +0.000 C 
ATOM     10  C   UNL     1       2.092   4.735  20.024  0.00  0.00    +0.000 C 
ATOM     11  C   UNL     1       1.344   3.812  21.030  0.00  0.00    +0.000 C 
ATOM     12  C   UNL     1       1.224   2.356  20.568  0.00  0.00    +0.000 C 
ATOM     13  C   UNL     1       0.647   2.244  19.162  0.00  0.00    +0.000 C 
ATOM     14  C   UNL     1       1.431   3.095  18.174  0.00  0.00    +0.000 C 
ATOM     15  C   UNL     1       1.461   4.551  18.630  0.00  0.00    +0.000 C 
ENDBRANCH   1  10
BRANCH   5  16
ATOM     16  C   UNL     1       7.190   6.065  16.227  0.00  0.00    +0.000 C 
ATOM     17  O   UNL     1       7.990   6.980  16.410  0.00  0.00    +0.000 OA
ATOM     18  N   UNL     1       7.160   5.351  15.051  0.00  0.00    +0.000 N 
ATOM     19  H   UNL     1       6.796   4.407  14.977  0.00  0.00    +0.000 HD
BRANCH  18  20
ATOM     20  O   UNL     1       8.199   5.682  14.145  0.00  0.00    +0.000 OA
ATOM     21  H   UNL     1       8.029   6.634  13.964  0.00  0.00    +0.000 HD
ENDBRANCH  18  20
ENDBRANCH   5  16
TORSDOF 3
ENDMDL
MODEL 6
REMARK VINA RESULT:      -7.1      1.211      2.188
REMARK  Name = 
REMARK  4 active torsions:
REMARK  status: ('A' for Active; 'I' for Inactive)
REMARK    1  A    between atoms: C_1  and  C_2
REMARK    2  A    between atoms: C_2  and  N_3
REMARK    3  A    between atoms: C_7  and  C_8
REMARK    4  A    between atoms: N_10  and  O_11
REMARK                            x       y       z     vdW  Elec       q    Type
REMARK                         _______ _______ _______ _____ _____    ______ ____
ROOT
ATOM      1  N   UNL     1       3.886   2.917  19.240  0.00  0.00    +0.000 N 
ATOM      2  C   UNL     1       4.715   3.643  18.412  0.00  0.00    +0.000 A 
ATOM      3  N   UNL     1       5.903   4.026  18.906  0.00  0.00    +0.000 NA
ATOM      4  C   UNL     1       6.720   4.740  18.091  0.00  0.00    +0.000 A 
ATOM      5  C   UNL     1       6.424   5.019  16.779  0.00  0.00    +0.000 A 
ATOM      6  C   UNL     1       5.212   4.546  16.351  0.00  0.00    +0.000 A 
ATOM      7  N   UNL     1       4.346   3.902  17.155  0.00  0.00    +0.000 NA
ATOM      8  H   UNL     1       4.355   2.047  19.460  0.00  0.00    +0.000 HD
ENDROOT
BRANCH   1  10
ATOM      9  C   UNL     1       2.180   1.809  17.882  0.00  0.00    +0.000 C 
ATOM     10  C   UNL     1       2.430   2.832  19.013  0.00  0.00    +0.000 C 
ATOM     11  C   UNL     1       1.950   4.218  18.492  0.00  0.00    +0.000 C 
ATOM     12  C   UNL     1       1.910   5.309  19.567  0.00  0.00    +0.000 C 
ATOM     13  C   UNL     1       1.133   4.870  20.803  0.00  0.00    +0.000 C 
ATOM     14  C   UNL     1       1.659   3.549  21.346  0.00  0.00    +0.000 C 
ATOM     15  C   UNL     1       1.610   2.471  20.267  0.00  0.00    +0.000 C 
ENDBRANCH   1  10
BRANCH   5  16
ATOM     16  C   UNL     1       7.305   5.711  15.831  0.00  0.00    +0.000 C 
ATOM     17  O   UNL     1       7.928   6.713  16.177  0.00  0.00    +0.000 OA
ATOM     18  N   UNL     1       7.441   5.169  14.574  0.00  0.00    +0.000 N 
ATOM     19  H   UNL     1       7.249   4.197  14.357  0.00  0.00    +0.000 HD
BRANCH  18  20
ATOM     20  O   UNL     1       8.438   5.791  13.779  0.00  0.00    +0.000 OA
ATOM     21  H   UNL     1       8.518   5.175  13.017  0.00  0.00    +0.000 HD
ENDBRANCH  18  20
ENDBRANCH   5  16
TORSDOF 3
ENDMDL
MODEL 7
REMARK VINA RESULT:      -7.0      1.189      1.362
REMARK  Name = 
REMARK  4 active torsions:
REMARK  status: ('A' for Active; 'I' for Inactive)
REMARK    1  A    between atoms: C_1  and  C_2
REMARK    2  A    between atoms: C_2  and  N_3
REMARK    3  A    between atoms: C_7  and  C_8
REMARK    4  A    between atoms: N_10  and  O_11
REMARK                            x       y       z     vdW  Elec       q    Type
REMARK                         _______ _______ _______ _____ _____    ______ ____
ROOT
ATOM      1  N   UNL     1       4.333   4.910  18.779  0.00  0.00    +0.000 N 
ATOM      2  C   UNL     1       4.955   4.842  17.551  0.00  0.00    +0.000 A 
ATOM      3  N   UNL     1       6.292   4.726  17.540  0.00  0.00    +0.000 NA
ATOM      4  C   UNL     1       6.905   4.657  16.332  0.00  0.00    +0.000 A 
ATOM      5  C   UNL     1       6.225   4.626  15.139  0.00  0.00    +0.000 A 
ATOM      6  C   UNL     1       4.862   4.701  15.253  0.00  0.00    +0.000 A 
ATOM      7  N   UNL     1       4.227   4.847  16.431  0.00  0.00    +0.000 NA
ATOM      8  H   UNL     1       4.509   4.040  19.263  0.00  0.00    +0.000 HD
ENDROOT
BRANCH   1  10
ATOM      9  C   UNL     1       3.040   6.972  18.527  0.00  0.00    +0.000 C 
ATOM     10  C   UNL     1       2.982   5.484  18.943  0.00  0.00    +0.000 C 
ATOM     11  C   UNL     1       2.633   5.446  20.460  0.00  0.00    +0.000 C 
ATOM     12  C   UNL     1       2.308   4.045  20.989  0.00  0.00    +0.000 C 
ATOM     13  C   UNL     1       1.249   3.343  20.147  0.00  0.00    +0.000 C 
ATOM     14  C   UNL     1       1.637   3.324  18.676  0.00  0.00    +0.000 C 
ATOM     15  C   UNL     1       1.876   4.743  18.168  0.00  0.00    +0.000 C 
ENDBRANCH   1  10
BRANCH   5  16
ATOM     16  C   UNL     1       6.831   4.466  13.811  0.00  0.00    +0.000 C 
ATOM     17  O   UNL     1       7.652   5.283  13.400  0.00  0.00    +0.000 OA
ATOM     18  N   UNL     1       6.481   3.355  13.079  0.00  0.00    +0.000 N 
ATOM     19  H   UNL     1       6.109   2.506  13.490  0.00  0.00    +0.000 HD
BRANCH  18  20
ATOM     20  O   UNL     1       7.237   3.183  11.891  0.00  0.00    +0.000 OA
ATOM     21  H   UNL     1       7.870   2.473  12.142  0.00  0.00    +0.000 HD
ENDBRANCH  18  20
ENDBRANCH   5  16
TORSDOF 3
ENDMDL
MODEL 8
REMARK VINA RESULT:      -7.0      1.261      2.047
REMARK  Name = 
REMARK  4 active torsions:
REMARK  status: ('A' for Active; 'I' for Inactive)
REMARK    1  A    between atoms: C_1  and  C_2
REMARK    2  A    between atoms: C_2  and  N_3
REMARK    3  A    between atoms: C_7  and  C_8
REMARK    4  A    between atoms: N_10  and  O_11
REMARK                            x       y       z     vdW  Elec       q    Type
REMARK                         _______ _______ _______ _____ _____    ______ ____
ROOT
ATOM      1  N   UNL     1       3.816   4.542  19.107  0.00  0.00    +0.000 N 
ATOM      2  C   UNL     1       4.503   4.593  17.913  0.00  0.00    +0.000 A 
ATOM      3  N   UNL     1       4.484   5.753  17.237  0.00  0.00    +0.000 NA
ATOM      4  C   UNL     1       5.161   5.806  16.063  0.00  0.00    +0.000 A 
ATOM      5  C   UNL     1       5.916   4.766  15.577  0.00  0.00    +0.000 A 
ATOM      6  C   UNL     1       5.913   3.641  16.359  0.00  0.00    +0.000 A 
ATOM      7  N   UNL     1       5.192   3.530  17.490  0.00  0.00    +0.000 NA
ATOM      8  H   UNL     1       4.247   5.203  19.740  0.00  0.00    +0.000 HD
ENDROOT
BRANCH   1  10
ATOM      9  C   UNL     1       4.632   2.433  20.041  0.00  0.00    +0.000 C 
ATOM     10  C   UNL     1       3.374   3.265  19.702  0.00  0.00    +0.000 C 
ATOM     11  C   UNL     1       2.587   2.481  18.612  0.00  0.00    +0.000 C 
ATOM     12  C   UNL     1       1.193   3.047  18.322  0.00  0.00    +0.000 C 
ATOM     13  C   UNL     1       0.370   3.228  19.593  0.00  0.00    +0.000 C 
ATOM     14  C   UNL     1       1.122   4.057  20.624  0.00  0.00    +0.000 C 
ATOM     15  C   UNL     1       2.471   3.418  20.941  0.00  0.00    +0.000 C 
ENDBRANCH   1  10
BRANCH   5  16
ATOM     16  C   UNL     1       6.735   4.798  14.360  0.00  0.00    +0.000 C 
ATOM     17  O   UNL     1       6.387   4.174  13.360  0.00  0.00    +0.000 OA
ATOM     18  N   UNL     1       7.865   5.582  14.370  0.00  0.00    +0.000 N 
ATOM     19  H   UNL     1       8.002   6.362  15.005  0.00  0.00    +0.000 HD
BRANCH  18  20
ATOM     20  O   UNL     1       8.502   5.698  13.109  0.00  0.00    +0.000 OA
ATOM     21  H   UNL     1       8.447   4.780  12.757  0.00  0.00    +0.000 HD
ENDBRANCH  18  20
ENDBRANCH   5  16
TORSDOF 3
ENDMDL
MODEL 9
REMARK VINA RESULT:      -6.8      2.488      3.411
REMARK  Name = 
REMARK  4 active torsions:
REMARK  status: ('A' for Active; 'I' for Inactive)
REMARK    1  A    between atoms: C_1  and  C_2
REMARK    2  A    between atoms: C_2  and  N_3
REMARK    3  A    between atoms: C_7  and  C_8
REMARK    4  A    between atoms: N_10  and  O_11
REMARK                            x       y       z     vdW  Elec       q    Type
REMARK                         _______ _______ _______ _____ _____    ______ ____
ROOT
ATOM      1  N   UNL     1       2.896   3.946  18.202  0.00  0.00    +0.000 N 
ATOM      2  C   UNL     1       4.037   4.711  18.091  0.00  0.00    +0.000 A 
ATOM      3  N   UNL     1       4.070   5.637  17.120  0.00  0.00    +0.000 NA
ATOM      4  C   UNL     1       5.193   6.391  17.011  0.00  0.00    +0.000 A 
ATOM      5  C   UNL     1       6.251   6.304  17.883  0.00  0.00    +0.000 A 
ATOM      6  C   UNL     1       6.105   5.364  18.869  0.00  0.00    +0.000 A 
ATOM      7  N   UNL     1       5.039   4.548  18.959  0.00  0.00    +0.000 NA
ATOM      8  H   UNL     1       2.129   4.567  18.427  0.00  0.00    +0.000 HD
ENDROOT
BRANCH   1  10
ATOM      9  C   UNL     1       3.692   1.641  18.011  0.00  0.00    +0.000 C 
ATOM     10  C   UNL     1       2.892   2.636  18.883  0.00  0.00    +0.000 C 
ATOM     11  C   UNL     1       1.421   2.129  18.926  0.00  0.00    +0.000 C 
ATOM     12  C   UNL     1       0.537   2.868  19.935  0.00  0.00    +0.000 C 
ATOM     13  C   UNL     1       1.161   2.909  21.325  0.00  0.00    +0.000 C 
ATOM     14  C   UNL     1       2.573   3.475  21.280  0.00  0.00    +0.000 C 
ATOM     15  C   UNL     1       3.442   2.664  20.322  0.00  0.00    +0.000 C 
ENDBRANCH   1  10
BRANCH   5  16
ATOM     16  C   UNL     1       7.449   7.151  17.863  0.00  0.00    +0.000 C 
ATOM     17  O   UNL     1       7.796   7.713  16.827  0.00  0.00    +0.000 OA
ATOM     18  N   UNL     1       8.128   7.325  19.047  0.00  0.00    +0.000 N 
ATOM     19  H   UNL     1       7.707   7.189  19.961  0.00  0.00    +0.000 HD
BRANCH  18  20
ATOM     20  O   UNL     1       9.164   8.290  18.985  0.00  0.00    +0.000 OA
ATOM     21  H   UNL     1       8.666   9.131  18.869  0.00  0.00    +0.000 HD
ENDBRANCH  18  20
ENDBRANCH   5  16
TORSDOF 3
ENDMDL
