MODEL 1
REMARK VINA RESULT:      -6.7      0.000      0.000
REMARK  Name = 
REMARK  17 active torsions:
REMARK  status: ('A' for Active; 'I' for Inactive)
REMARK    1  A    between atoms: C_1  and  O_2
REMARK    2  A    between atoms: O_2  and  C_3
REMARK    3  A    between atoms: C_3  and  C_4
REMARK    4  A    between atoms: C_6  and  C_7
REMARK    5  A    between atoms: C_8  and  C_9
REMARK    6  A    between atoms: N_11  and  C_12
REMARK    7  A    between atoms: C_12  and  C_13
REMARK    8  A    between atoms: C_12  and  C_14
REMARK    9  A    between atoms: C_12  and  C_15
REMARK   10  A    between atoms: C_15  and  C_16
REMARK   11  A    between atoms: C_16  and  C_17
REMARK   12  A    between atoms: C_17  and  N_18
REMARK   13  A    between atoms: C_19  and  O_21
REMARK   14  A    between atoms: O_21  and  C_22
REMARK   15  A    between atoms: C_22  and  C_23
REMARK   16  A    between atoms: C_22  and  C_24
REMARK   17  A    between atoms: C_22  and  C_25
REMARK                            x       y       z     vdW  Elec       q    Type
REMARK                         _______ _______ _______ _____ _____    ______ ____
ROOT
ATOM      1  C   UNL     1       2.880   3.015  18.881  0.00  0.00    +0.000 C 
ATOM      2  C   UNL     1       1.455   3.219  18.321  0.00  0.00    +0.000 C 
ATOM      3  C   UNL     1       3.140   1.519  19.125  0.00  0.00    +0.000 C 
ENDROOT
BRANCH   1   6
ATOM      4  C   UNL     1       5.140   4.005  18.233  0.00  0.00    +0.000 C 
ATOM      5  O   UNL     1       5.594   3.972  19.377  0.00  0.00    +0.000 OA
ATOM      6  N   UNL     1       3.863   3.561  17.922  0.00  0.00    +0.000 N 
ATOM      7  H   UNL     1       3.597   3.611  16.949  0.00  0.00    +0.000 HD
BRANCH   4  12
ATOM      8  C   UNL     1       6.900   4.939  14.919  0.00  0.00    +0.000 A 
ATOM      9  N   UNL     1       7.454   5.723  15.817  0.00  0.00    +0.000 NA
ATOM     10  C   UNL     1       6.899   5.497  17.071  0.00  0.00    +0.000 A 
ATOM     11  C   UNL     1       7.424   6.329  18.191  0.00  0.00    +0.000 C 
ATOM     12  C   UNL     1       5.922   4.507  17.107  0.00  0.00    +0.000 A 
ATOM     13  S   UNL     1       5.706   3.871  15.521  0.00  0.00    +0.000 S 
BRANCH   8  14
ATOM     14  C   UNL     1       7.291   4.903  13.476  0.00  0.00    +0.000 C 
BRANCH  14  16
ATOM     15  C   UNL     1       7.116   3.351  11.719  0.00  0.00    +0.000 C 
ATOM     16  O   UNL     1       6.445   3.966  12.807  0.00  0.00    +0.000 OA
ENDBRANCH  14  16
ENDBRANCH   8  14
ENDBRANCH   4  12
ENDBRANCH   1   6
BRANCH   1  17
ATOM     17  C   UNL     1       2.968   3.784  20.247  0.00  0.00    +0.000 C 
BRANCH  17  18
ATOM     18  C   UNL     1       1.904   4.882  20.451  0.00  0.00    +0.000 C 
BRANCH  18  19
ATOM     19  C   UNL     1       2.359   6.254  19.941  0.00  0.00    +0.000 C 
BRANCH  19  20
ATOM     20  N   UNL     1       2.008   7.315  20.869  0.00  0.00    +0.000 N 
ATOM     21  C   UNL     1       1.613   8.536  20.409  0.00  0.00    +0.000 C 
ATOM     22  O   UNL     1       1.518   8.780  19.217  0.00  0.00    +0.000 OA
ATOM     23  H   UNL     1       2.098   7.201  21.869  0.00  0.00    +0.000 HD
BRANCH  21  24
ATOM     24  O   UNL     1       1.378   9.413  21.414  0.00  0.00    +0.000 OA
BRANCH  24  25
ATOM     25  C   UNL     1       0.003   9.597  21.861  0.00  0.00    +0.000 C 
ATOM     26  C   UNL     1      -0.637  10.814  21.176  0.00  0.00    +0.000 C 
ATOM     27  C   UNL     1      -0.798   8.334  21.483  0.00  0.00    +0.000 C 
ATOM     28  C   UNL     1      -0.052   9.727  23.391  0.00  0.00    +0.000 C 
ENDBRANCH  24  25
ENDBRANCH  21  24
ENDBRANCH  19  20
ENDBRANCH  18  19
ENDBRANCH  17  18
ENDBRANCH   1  17
TORSDOF 10
ENDMDL
MODEL 2
REMARK VINA RESULT:      -6.7      1.109      1.581
REMARK  Name = 
REMARK  17 active torsions:
REMARK  status: ('A' for Active; 'I' for Inactive)
REMARK    1  A    between atoms: C_1  and  O_2
REMARK    2  A    between atoms: O_2  and  C_3
REMARK    3  A    between atoms: C_3  and  C_4
REMARK    4  A    between atoms: C_6  and  C_7
REMARK    5  A    between atoms: C_8  and  C_9
REMARK    6  A    between atoms: N_11  and  C_12
REMARK    7  A    between atoms: C_12  and  C_13
REMARK    8  A    between atoms: C_12  and  C_14
REMARK    9  A    between atoms: C_12  and  C_15
REMARK   10  A    between atoms: C_15  and  C_16
REMARK   11  A    between atoms: C_16  and  C_17
REMARK   12  A    between atoms: C_17  and  N_18
REMARK   13  A    between atoms: C_19  and  O_21
REMARK   14  A    between atoms: O_21  and  C_22
REMARK   15  A    between atoms: C_22  and  C_23
REMARK   16  A    between atoms: C_22  and  C_24
REMARK   17  A    between atoms: C_22  and  C_25
REMARK                            x       y       z     vdW  Elec       q    Type
REMARK                         _______ _______ _______ _____ _____    ______ ____
ROOT
ATOM      1  C   UNL     1       2.672   3.963  19.379  0.00  0.00    +0.000 C 
ATOM      2  C   UNL     1       1.280   3.894  18.713  0.00  0.00    +0.000 C 
ATOM      3  C   UNL     1       3.004   2.617  20.046  0.00  0.00    +0.000 C 
ENDROOT
BRANCH   1   6
ATOM      4  C   UNL     1       5.059   4.316  18.551  0.00  0.00    +0.000 C 
ATOM      5  O   UNL     1       5.580   4.032  19.628  0.00  0.00    +0.000 OA
ATOM      6  N   UNL     1       3.685   4.298  18.357  0.00  0.00    +0.000 N 
ATOM      7  H   UNL     1       3.362   4.525  17.427  0.00  0.00    +0.000 HD
BRANCH   4  12
ATOM      8  C   UNL     1       6.802   4.919  15.152  0.00  0.00    +0.000 A 
ATOM      9  N   UNL     1       7.461   5.679  15.998  0.00  0.00    +0.000 NA
ATOM     10  C   UNL     1       6.925   5.566  17.276  0.00  0.00    +0.000 A 
ATOM     11  C   UNL     1       7.567   6.386  18.342  0.00  0.00    +0.000 C 
ATOM     12  C   UNL     1       5.854   4.685  17.382  0.00  0.00    +0.000 A 
ATOM     13  S   UNL     1       5.524   4.007  15.834  0.00  0.00    +0.000 S 
BRANCH   8  14
ATOM     14  C   UNL     1       7.143   4.779  13.702  0.00  0.00    +0.000 C 
BRANCH  14  16
ATOM     15  C   UNL     1       6.780   3.377  11.851  0.00  0.00    +0.000 C 
ATOM     16  O   UNL     1       6.344   3.730  13.154  0.00  0.00    +0.000 OA
ENDBRANCH  14  16
ENDBRANCH   8  14
ENDBRANCH   4  12
ENDBRANCH   1   6
BRANCH   1  17
ATOM     17  C   UNL     1       2.618   5.084  20.478  0.00  0.00    +0.000 C 
BRANCH  17  18
ATOM     18  C   UNL     1       2.152   6.467  19.980  0.00  0.00    +0.000 C 
BRANCH  18  19
ATOM     19  C   UNL     1       1.687   7.383  21.118  0.00  0.00    +0.000 C 
BRANCH  19  20
ATOM     20  N   UNL     1       1.054   8.588  20.613  0.00  0.00    +0.000 N 
ATOM     21  C   UNL     1      -0.175   8.968  21.065  0.00  0.00    +0.000 C 
ATOM     22  O   UNL     1      -0.777   8.333  21.916  0.00  0.00    +0.000 OA
ATOM     23  H   UNL     1       1.474   9.145  19.881  0.00  0.00    +0.000 HD
BRANCH  21  24
ATOM     24  O   UNL     1      -0.628  10.084  20.446  0.00  0.00    +0.000 OA
BRANCH  24  25
ATOM     25  C   UNL     1      -0.599  11.342  21.182  0.00  0.00    +0.000 C 
ATOM     26  C   UNL     1       0.707  12.104  20.911  0.00  0.00    +0.000 C 
ATOM     27  C   UNL     1      -1.787  12.203  20.706  0.00  0.00    +0.000 C 
ATOM     28  C   UNL     1      -0.796  11.091  22.685  0.00  0.00    +0.000 C 
ENDBRANCH  24  25
ENDBRANCH  21  24
ENDBRANCH  19  20
ENDBRANCH  18  19
ENDBRANCH  17  18
ENDBRANCH   1  17
TORSDOF 10
ENDMDL
MODEL 3
REMARK VINA RESULT:      -6.7      1.327      2.000
REMARK  Name = 
REMARK  17 active torsions:
REMARK  status: ('A' for Active; 'I' for Inactive)
REMARK    1  A    between atoms: C_1  and  O_2
REMARK    2  A    between atoms: O_2  and  C_3
REMARK    3  A    between atoms: C_3  and  C_4
REMARK    4  A    between atoms: C_6  and  C_7
REMARK    5  A    between atoms: C_8  and  C_9
REMARK    6  A    between atoms: N_11  and  C_12
REMARK    7  A    between atoms: C_12  and  C_13
REMARK    8  A    between atoms: C_12  and  C_14
REMARK    9  A    between atoms: C_12  and  C_15
REMARK   10  A    between atoms: C_15  and  C_16
REMARK   11  A    between atoms: C_16  and  C_17
REMARK   12  A    between atoms: C_17  and  N_18
REMARK   13  A    between atoms: C_19  and  O_21
REMARK   14  A    between atoms: O_21  and  C_22
REMARK   15  A    between atoms: C_22  and  C_23
REMARK   16  A    between atoms: C_22  and  C_24
REMARK   17  A    between atoms: C_22  and  C_25
REMARK                            x       y       z     vdW  Elec       q    Type
REMARK                         _______ _______ _______ _____ _____    ______ ____
ROOT
ATOM      1  C   UNL     1       2.843   4.118  19.340  0.00  0.00    +0.000 C 
ATOM      2  C   UNL     1       1.439   3.902  18.733  0.00  0.00    +0.000 C 
ATOM      3  C   UNL     1       3.268   2.873  20.138  0.00  0.00    +0.000 C 
ENDROOT
BRANCH   1   6
ATOM      4  C   UNL     1       5.183   4.493  18.395  0.00  0.00    +0.000 C 
ATOM      5  O   UNL     1       5.750   4.350  19.478  0.00  0.00    +0.000 OA
ATOM      6  N   UNL     1       3.807   4.390  18.253  0.00  0.00    +0.000 N 
ATOM      7  H   UNL     1       3.445   4.500  17.317  0.00  0.00    +0.000 HD
BRANCH   4  12
ATOM      8  C   UNL     1       6.808   4.795  14.900  0.00  0.00    +0.000 A 
ATOM      9  N   UNL     1       7.415   5.709  15.624  0.00  0.00    +0.000 NA
ATOM     10  C   UNL     1       6.913   5.718  16.920  0.00  0.00    +0.000 A 
ATOM     11  C   UNL     1       7.501   6.719  17.855  0.00  0.00    +0.000 C 
ATOM     12  C   UNL     1       5.923   4.773  17.167  0.00  0.00    +0.000 A 
ATOM     13  S   UNL     1       5.625   3.876  15.728  0.00  0.00    +0.000 S 
BRANCH   8  14
ATOM     14  C   UNL     1       7.134   4.498  13.470  0.00  0.00    +0.000 C 
BRANCH  14  16
ATOM     15  C   UNL     1       6.472   2.901  11.879  0.00  0.00    +0.000 C 
ATOM     16  O   UNL     1       6.037   3.784  12.900  0.00  0.00    +0.000 OA
ENDBRANCH  14  16
ENDBRANCH   8  14
ENDBRANCH   4  12
ENDBRANCH   1   6
BRANCH   1  17
ATOM     17  C   UNL     1       2.757   5.349  20.310  0.00  0.00    +0.000 C 
BRANCH  17  18
ATOM     18  C   UNL     1       2.553   6.714  19.621  0.00  0.00    +0.000 C 
BRANCH  18  19
ATOM     19  C   UNL     1       1.591   7.629  20.386  0.00  0.00    +0.000 C 
BRANCH  19  20
ATOM     20  N   UNL     1       1.362   8.878  19.682  0.00  0.00    +0.000 N 
ATOM     21  C   UNL     1       0.926   9.982  20.351  0.00  0.00    +0.000 C 
ATOM     22  O   UNL     1       0.733   9.976  21.556  0.00  0.00    +0.000 OA
ATOM     23  H   UNL     1       1.464   8.950  18.678  0.00  0.00    +0.000 HD
BRANCH  21  24
ATOM     24  O   UNL     1       0.719  11.035  19.525  0.00  0.00    +0.000 OA
BRANCH  24  25
ATOM     25  C   UNL     1      -0.655  11.436  19.248  0.00  0.00    +0.000 C 
ATOM     26  C   UNL     1      -1.435  10.290  18.585  0.00  0.00    +0.000 C 
ATOM     27  C   UNL     1      -1.331  11.790  20.588  0.00  0.00    +0.000 C 
ATOM     28  C   UNL     1      -0.681  12.703  18.380  0.00  0.00    +0.000 C 
ENDBRANCH  24  25
ENDBRANCH  21  24
ENDBRANCH  19  20
ENDBRANCH  18  19
ENDBRANCH  17  18
ENDBRANCH   1  17
TORSDOF 10
ENDMDL
MODEL 4
REMARK VINA RESULT:      -6.6      4.999     10.164
REMARK  Name = 
REMARK  17 active torsions:
REMARK  status: ('A' for Active; 'I' for Inactive)
REMARK    1  A    between atoms: C_1  and  O_2
REMARK    2  A    between atoms: O_2  and  C_3
REMARK    3  A    between atoms: C_3  and  C_4
REMARK    4  A    between atoms: C_6  and  C_7
REMARK    5  A    between atoms: C_8  and  C_9
REMARK    6  A    between atoms: N_11  and  C_12
REMARK    7  A    between atoms: C_12  and  C_13
REMARK    8  A    between atoms: C_12  and  C_14
REMARK    9  A    between atoms: C_12  and  C_15
REMARK   10  A    between atoms: C_15  and  C_16
REMARK   11  A    between atoms: C_16  and  C_17
REMARK   12  A    between atoms: C_17  and  N_18
REMARK   13  A    between atoms: C_19  and  O_21
REMARK   14  A    between atoms: O_21  and  C_22
REMARK   15  A    between atoms: C_22  and  C_23
REMARK   16  A    between atoms: C_22  and  C_24
REMARK   17  A    between atoms: C_22  and  C_25
REMARK                            x       y       z     vdW  Elec       q    Type
REMARK                         _______ _______ _______ _____ _____    ______ ____
ROOT
ATOM      1  C   UNL     1       0.454  10.539  19.589  0.00  0.00    +0.000 C 
ATOM      2  C   UNL     1       0.851  11.868  20.269  0.00  0.00    +0.000 C 
ATOM      3  C   UNL     1       0.571   9.379  20.593  0.00  0.00    +0.000 C 
ENDROOT
BRANCH   1   6
ATOM      4  C   UNL     1      -1.444  11.700  18.339  0.00  0.00    +0.000 C 
ATOM      5  O   UNL     1      -0.765  12.673  18.011  0.00  0.00    +0.000 OA
ATOM      6  N   UNL     1      -0.930  10.646  19.082  0.00  0.00    +0.000 N 
ATOM      7  H   UNL     1      -1.565   9.886  19.277  0.00  0.00    +0.000 HD
BRANCH   4  12
ATOM      8  C   UNL     1      -5.281  11.572  17.883  0.00  0.00    +0.000 A 
ATOM      9  N   UNL     1      -4.800  11.146  16.736  0.00  0.00    +0.000 NA
ATOM     10  C   UNL     1      -3.410  11.150  16.758  0.00  0.00    +0.000 A 
ATOM     11  C   UNL     1      -2.724  10.701  15.514  0.00  0.00    +0.000 C 
ATOM     12  C   UNL     1      -2.848  11.574  17.958  0.00  0.00    +0.000 A 
ATOM     13  S   UNL     1      -4.107  11.978  19.060  0.00  0.00    +0.000 S 
BRANCH   8  14
ATOM     14  C   UNL     1      -6.739  11.657  18.206  0.00  0.00    +0.000 C 
BRANCH  14  16
ATOM     15  C   UNL     1      -7.503  10.897  20.295  0.00  0.00    +0.000 C 
ATOM     16  O   UNL     1      -7.091  10.517  18.992  0.00  0.00    +0.000 OA
ENDBRANCH  14  16
ENDBRANCH   8  14
ENDBRANCH   4  12
ENDBRANCH   1   6
BRANCH   1  17
ATOM     17  C   UNL     1       1.450  10.297  18.401  0.00  0.00    +0.000 C 
BRANCH  17  18
ATOM     18  C   UNL     1       1.418   8.878  17.797  0.00  0.00    +0.000 C 
BRANCH  18  19
ATOM     19  C   UNL     1       2.759   8.146  17.926  0.00  0.00    +0.000 C 
BRANCH  19  20
ATOM     20  N   UNL     1       2.678   7.038  18.861  0.00  0.00    +0.000 N 
ATOM     21  C   UNL     1       3.414   5.908  18.662  0.00  0.00    +0.000 C 
ATOM     22  O   UNL     1       4.176   5.788  17.717  0.00  0.00    +0.000 OA
ATOM     23  H   UNL     1       2.041   7.048  19.646  0.00  0.00    +0.000 HD
BRANCH  21  24
ATOM     24  O   UNL     1       3.171   4.964  19.603  0.00  0.00    +0.000 OA
BRANCH  24  25
ATOM     25  C   UNL     1       2.165   3.948  19.319  0.00  0.00    +0.000 C 
ATOM     26  C   UNL     1       2.758   2.538  19.455  0.00  0.00    +0.000 C 
ATOM     27  C   UNL     1       1.020   4.109  20.340  0.00  0.00    +0.000 C 
ATOM     28  C   UNL     1       1.560   4.166  17.924  0.00  0.00    +0.000 C 
ENDBRANCH  24  25
ENDBRANCH  21  24
ENDBRANCH  19  20
ENDBRANCH  18  19
ENDBRANCH  17  18
ENDBRANCH   1  17
TORSDOF 10
ENDMDL
MODEL 5
REMARK VINA RESULT:      -6.4      2.464      8.285
REMARK  Name = 
REMARK  17 active torsions:
REMARK  status: ('A' for Active; 'I' for Inactive)
REMARK    1  A    between atoms: C_1  and  O_2
REMARK    2  A    between atoms: O_2  and  C_3
REMARK    3  A    between atoms: C_3  and  C_4
REMARK    4  A    between atoms: C_6  and  C_7
REMARK    5  A    between atoms: C_8  and  C_9
REMARK    6  A    between atoms: N_11  and  C_12
REMARK    7  A    between atoms: C_12  and  C_13
REMARK    8  A    between atoms: C_12  and  C_14
REMARK    9  A    between atoms: C_12  and  C_15
REMARK   10  A    between atoms: C_15  and  C_16
REMARK   11  A    between atoms: C_16  and  C_17
REMARK   12  A    between atoms: C_17  and  N_18
REMARK   13  A    between atoms: C_19  and  O_21
REMARK   14  A    between atoms: O_21  and  C_22
REMARK   15  A    between atoms: C_22  and  C_23
REMARK   16  A    between atoms: C_22  and  C_24
REMARK   17  A    between atoms: C_22  and  C_25
REMARK                            x       y       z     vdW  Elec       q    Type
REMARK                         _______ _______ _______ _____ _____    ______ ____
ROOT
ATOM      1  C   UNL     1       2.685   4.140  19.008  0.00  0.00    +0.000 C 
ATOM      2  C   UNL     1       2.744   3.131  20.176  0.00  0.00    +0.000 C 
ATOM      3  C   UNL     1       1.774   3.599  17.892  0.00  0.00    +0.000 C 
ENDROOT
BRANCH   1   6
ATOM      4  C   UNL     1       2.455   6.681  18.961  0.00  0.00    +0.000 C 
ATOM      5  O   UNL     1       3.164   6.826  17.966  0.00  0.00    +0.000 OA
ATOM      6  N   UNL     1       2.178   5.435  19.507  0.00  0.00    +0.000 N 
ATOM      7  H   UNL     1       1.566   5.425  20.310  0.00  0.00    +0.000 HD
BRANCH   4  12
ATOM      8  C   UNL     1       0.762   9.313  21.231  0.00  0.00    +0.000 A 
ATOM      9  N   UNL     1       0.984   9.948  20.102  0.00  0.00    +0.000 NA
ATOM     10  C   UNL     1       1.608   9.110  19.185  0.00  0.00    +0.000 A 
ATOM     11  C   UNL     1       1.935   9.702  17.857  0.00  0.00    +0.000 C 
ATOM     12  C   UNL     1       1.837   7.816  19.641  0.00  0.00    +0.000 A 
ATOM     13  S   UNL     1       1.259   7.676  21.257  0.00  0.00    +0.000 S 
BRANCH   8  14
ATOM     14  C   UNL     1       0.073   9.915  22.415  0.00  0.00    +0.000 C 
BRANCH  14  16
ATOM     15  C   UNL     1      -0.755  12.106  22.212  0.00  0.00    +0.000 C 
ATOM     16  O   UNL     1      -0.997  10.735  21.941  0.00  0.00    +0.000 OA
ENDBRANCH  14  16
ENDBRANCH   8  14
ENDBRANCH   4  12
ENDBRANCH   1   6
BRANCH   1  17
ATOM     17  C   UNL     1       4.143   4.307  18.449  0.00  0.00    +0.000 C 
BRANCH  17  18
ATOM     18  C   UNL     1       5.261   4.255  19.509  0.00  0.00    +0.000 C 
BRANCH  18  19
ATOM     19  C   UNL     1       6.322   5.344  19.310  0.00  0.00    +0.000 C 
BRANCH  19  20
ATOM     20  N   UNL     1       6.516   5.655  17.905  0.00  0.00    +0.000 N 
ATOM     21  C   UNL     1       7.479   5.019  17.181  0.00  0.00    +0.000 C 
ATOM     22  O   UNL     1       8.196   4.160  17.668  0.00  0.00    +0.000 OA
ATOM     23  H   UNL     1       5.987   6.381  17.441  0.00  0.00    +0.000 HD
BRANCH  21  24
ATOM     24  O   UNL     1       7.549   5.474  15.907  0.00  0.00    +0.000 OA
BRANCH  24  25
ATOM     25  C   UNL     1       6.567   4.987  14.945  0.00  0.00    +0.000 C 
ATOM     26  C   UNL     1       6.073   3.585  15.332  0.00  0.00    +0.000 C 
ATOM     27  C   UNL     1       5.368   5.958  14.951  0.00  0.00    +0.000 C 
ATOM     28  C   UNL     1       7.153   4.999  13.525  0.00  0.00    +0.000 C 
ENDBRANCH  24  25
ENDBRANCH  21  24
ENDBRANCH  19  20
ENDBRANCH  18  19
ENDBRANCH  17  18
ENDBRANCH   1  17
TORSDOF 10
ENDMDL
MODEL 6
REMARK VINA RESULT:      -6.4      5.182     10.411
REMARK  Name = 
REMARK  17 active torsions:
REMARK  status: ('A' for Active; 'I' for Inactive)
REMARK    1  A    between atoms: C_1  and  O_2
REMARK    2  A    between atoms: O_2  and  C_3
REMARK    3  A    between atoms: C_3  and  C_4
REMARK    4  A    between atoms: C_6  and  C_7
REMARK    5  A    between atoms: C_8  and  C_9
REMARK    6  A    between atoms: N_11  and  C_12
REMARK    7  A    between atoms: C_12  and  C_13
REMARK    8  A    between atoms: C_12  and  C_14
REMARK    9  A    between atoms: C_12  and  C_15
REMARK   10  A    between atoms: C_15  and  C_16
REMARK   11  A    between atoms: C_16  and  C_17
REMARK   12  A    between atoms: C_17  and  N_18
REMARK   13  A    between atoms: C_19  and  O_21
REMARK   14  A    between atoms: O_21  and  C_22
REMARK   15  A    between atoms: C_22  and  C_23
REMARK   16  A    between atoms: C_22  and  C_24
REMARK   17  A    between atoms: C_22  and  C_25
REMARK                            x       y       z     vdW  Elec       q    Type
REMARK                         _______ _______ _______ _____ _____    ______ ____
ROOT
ATOM      1  C   UNL     1       0.518  10.828  19.510  0.00  0.00    +0.000 C 
ATOM      2  C   UNL     1       1.361  11.849  18.715  0.00  0.00    +0.000 C 
ATOM      3  C   UNL     1       0.568  11.160  21.011  0.00  0.00    +0.000 C 
ENDROOT
BRANCH   1   6
ATOM      4  C   UNL     1      -1.654  11.997  18.858  0.00  0.00    +0.000 C 
ATOM      5  O   UNL     1      -1.236  13.127  19.106  0.00  0.00    +0.000 OA
ATOM      6  N   UNL     1      -0.875  10.860  19.019  0.00  0.00    +0.000 N 
ATOM      7  H   UNL     1      -1.307   9.983  18.764  0.00  0.00    +0.000 HD
BRANCH   4  12
ATOM      8  C   UNL     1      -5.419  11.591  18.076  0.00  0.00    +0.000 A 
ATOM      9  N   UNL     1      -4.811  11.181  16.985  0.00  0.00    +0.000 NA
ATOM     10  C   UNL     1      -3.432  11.284  17.127  0.00  0.00    +0.000 A 
ATOM     11  C   UNL     1      -2.610  10.863  15.957  0.00  0.00    +0.000 C 
ATOM     12  C   UNL     1      -3.008  11.766  18.360  0.00  0.00    +0.000 A 
ATOM     13  S   UNL     1      -4.383  12.099  19.340  0.00  0.00    +0.000 S 
BRANCH   8  14
ATOM     14  C   UNL     1      -6.902  11.579  18.270  0.00  0.00    +0.000 C 
BRANCH  14  16
ATOM     15  C   UNL     1      -7.917  13.696  18.383  0.00  0.00    +0.000 C 
ATOM     16  O   UNL     1      -7.460  12.663  17.525  0.00  0.00    +0.000 OA
ENDBRANCH  14  16
ENDBRANCH   8  14
ENDBRANCH   4  12
ENDBRANCH   1   6
BRANCH   1  17
ATOM     17  C   UNL     1       1.144   9.408  19.274  0.00  0.00    +0.000 C 
BRANCH  17  18
ATOM     18  C   UNL     1       1.801   9.201  17.894  0.00  0.00    +0.000 C 
BRANCH  18  19
ATOM     19  C   UNL     1       2.851   8.085  17.895  0.00  0.00    +0.000 C 
BRANCH  19  20
ATOM     20  N   UNL     1       2.531   7.046  18.858  0.00  0.00    +0.000 N 
ATOM     21  C   UNL     1       3.307   5.931  18.959  0.00  0.00    +0.000 C 
ATOM     22  O   UNL     1       4.302   5.768  18.272  0.00  0.00    +0.000 OA
ATOM     23  H   UNL     1       1.702   7.092  19.436  0.00  0.00    +0.000 HD
BRANCH  21  24
ATOM     24  O   UNL     1       2.827   5.051  19.871  0.00  0.00    +0.000 OA
BRANCH  24  25
ATOM     25  C   UNL     1       2.167   3.846  19.385  0.00  0.00    +0.000 C 
ATOM     26  C   UNL     1       3.140   2.657  19.370  0.00  0.00    +0.000 C 
ATOM     27  C   UNL     1       0.999   3.522  20.339  0.00  0.00    +0.000 C 
ATOM     28  C   UNL     1       1.561   4.087  17.994  0.00  0.00    +0.000 C 
ENDBRANCH  24  25
ENDBRANCH  21  24
ENDBRANCH  19  20
ENDBRANCH  18  19
ENDBRANCH  17  18
ENDBRANCH   1  17
TORSDOF 10
ENDMDL
MODEL 7
REMARK VINA RESULT:      -6.4      1.532      2.158
REMARK  Name = 
REMARK  17 active torsions:
REMARK  status: ('A' for Active; 'I' for Inactive)
REMARK    1  A    between atoms: C_1  and  O_2
REMARK    2  A    between atoms: O_2  and  C_3
REMARK    3  A    between atoms: C_3  and  C_4
REMARK    4  A    between atoms: C_6  and  C_7
REMARK    5  A    between atoms: C_8  and  C_9
REMARK    6  A    between atoms: N_11  and  C_12
REMARK    7  A    between atoms: C_12  and  C_13
REMARK    8  A    between atoms: C_12  and  C_14
REMARK    9  A    between atoms: C_12  and  C_15
REMARK   10  A    between atoms: C_15  and  C_16
REMARK   11  A    between atoms: C_16  and  C_17
REMARK   12  A    between atoms: C_17  and  N_18
REMARK   13  A    between atoms: C_19  and  O_21
REMARK   14  A    between atoms: O_21  and  C_22
REMARK   15  A    between atoms: C_22  and  C_23
REMARK   16  A    between atoms: C_22  and  C_24
REMARK   17  A    between atoms: C_22  and  C_25
REMARK                            x       y       z     vdW  Elec       q    Type
REMARK                         _______ _______ _______ _____ _____    ______ ____
ROOT
ATOM      1  C   UNL     1       2.354   3.851  19.902  0.00  0.00    +0.000 C 
ATOM      2  C   UNL     1       0.933   3.378  19.522  0.00  0.00    +0.000 C 
ATOM      3  C   UNL     1       3.102   2.728  20.641  0.00  0.00    +0.000 C 
ENDROOT
BRANCH   1   6
ATOM      4  C   UNL     1       4.461   4.330  18.545  0.00  0.00    +0.000 C 
ATOM      5  O   UNL     1       5.233   4.075  19.469  0.00  0.00    +0.000 OA
ATOM      6  N   UNL     1       3.083   4.238  18.676  0.00  0.00    +0.000 N 
ATOM      7  H   UNL     1       2.541   4.445  17.849  0.00  0.00    +0.000 HD
BRANCH   4  12
ATOM      8  C   UNL     1       5.897   4.837  14.991  0.00  0.00    +0.000 A 
ATOM      9  N   UNL     1       5.460   6.026  15.342  0.00  0.00    +0.000 NA
ATOM     10  C   UNL     1       4.901   5.986  16.613  0.00  0.00    +0.000 A 
ATOM     11  C   UNL     1       4.350   7.267  17.139  0.00  0.00    +0.000 C 
ATOM     12  C   UNL     1       4.941   4.739  17.228  0.00  0.00    +0.000 A 
ATOM     13  S   UNL     1       5.690   3.609  16.165  0.00  0.00    +0.000 S 
BRANCH   8  14
ATOM     14  C   UNL     1       6.586   4.540  13.697  0.00  0.00    +0.000 C 
BRANCH  14  16
ATOM     15  C   UNL     1       6.467   2.958  11.962  0.00  0.00    +0.000 C 
ATOM     16  O   UNL     1       5.728   3.706  12.915  0.00  0.00    +0.000 OA
ENDBRANCH  14  16
ENDBRANCH   8  14
ENDBRANCH   4  12
ENDBRANCH   1   6
BRANCH   1  17
ATOM     17  C   UNL     1       2.204   5.088  20.857  0.00  0.00    +0.000 C 
BRANCH  17  18
ATOM     18  C   UNL     1       2.108   6.455  20.150  0.00  0.00    +0.000 C 
BRANCH  18  19
ATOM     19  C   UNL     1       1.354   7.502  20.977  0.00  0.00    +0.000 C 
BRANCH  19  20
ATOM     20  N   UNL     1       1.280   8.779  20.290  0.00  0.00    +0.000 N 
ATOM     21  C   UNL     1       0.979   9.918  20.974  0.00  0.00    +0.000 C 
ATOM     22  O   UNL     1       0.782   9.919  22.178  0.00  0.00    +0.000 OA
ATOM     23  H   UNL     1       1.394   8.852  19.288  0.00  0.00    +0.000 HD
BRANCH  21  24
ATOM     24  O   UNL     1       0.903  11.000  20.163  0.00  0.00    +0.000 OA
BRANCH  24  25
ATOM     25  C   UNL     1      -0.412  11.426  19.699  0.00  0.00    +0.000 C 
ATOM     26  C   UNL     1      -1.259  11.953  20.867  0.00  0.00    +0.000 C 
ATOM     27  C   UNL     1      -0.214  12.560  18.673  0.00  0.00    +0.000 C 
ATOM     28  C   UNL     1      -1.123  10.276  18.970  0.00  0.00    +0.000 C 
ENDBRANCH  24  25
ENDBRANCH  21  24
ENDBRANCH  19  20
ENDBRANCH  18  19
ENDBRANCH  17  18
ENDBRANCH   1  17
TORSDOF 10
ENDMDL
MODEL 8
REMARK VINA RESULT:      -6.4      1.646      2.283
REMARK  Name = 
REMARK  17 active torsions:
REMARK  status: ('A' for Active; 'I' for Inactive)
REMARK    1  A    between atoms: C_1  and  O_2
REMARK    2  A    between atoms: O_2  and  C_3
REMARK    3  A    between atoms: C_3  and  C_4
REMARK    4  A    between atoms: C_6  and  C_7
REMARK    5  A    between atoms: C_8  and  C_9
REMARK    6  A    between atoms: N_11  and  C_12
REMARK    7  A    between atoms: C_12  and  C_13
REMARK    8  A    between atoms: C_12  and  C_14
REMARK    9  A    between atoms: C_12  and  C_15
REMARK   10  A    between atoms: C_15  and  C_16
REMARK   11  A    between atoms: C_16  and  C_17
REMARK   12  A    between atoms: C_17  and  N_18
REMARK   13  A    between atoms: C_19  and  O_21
REMARK   14  A    between atoms: O_21  and  C_22
REMARK   15  A    between atoms: C_22  and  C_23
REMARK   16  A    between atoms: C_22  and  C_24
REMARK   17  A    between atoms: C_22  and  C_25
REMARK                            x       y       z     vdW  Elec       q    Type
REMARK                         _______ _______ _______ _____ _____    ______ ____
ROOT
ATOM      1  C   UNL     1       2.075   3.983  20.179  0.00  0.00    +0.000 C 
ATOM      2  C   UNL     1       1.065   3.014  19.527  0.00  0.00    +0.000 C 
ATOM      3  C   UNL     1       2.694   3.334  21.429  0.00  0.00    +0.000 C 
ENDROOT
BRANCH   1   6
ATOM      4  C   UNL     1       4.380   3.734  19.114  0.00  0.00    +0.000 C 
ATOM      5  O   UNL     1       4.740   2.831  19.868  0.00  0.00    +0.000 OA
ATOM      6  N   UNL     1       3.127   4.323  19.198  0.00  0.00    +0.000 N 
ATOM      7  H   UNL     1       2.923   5.039  18.516  0.00  0.00    +0.000 HD
BRANCH   4  12
ATOM      8  C   UNL     1       6.283   4.845  15.936  0.00  0.00    +0.000 A 
ATOM      9  N   UNL     1       7.000   5.319  16.931  0.00  0.00    +0.000 NA
ATOM     10  C   UNL     1       6.416   4.997  18.150  0.00  0.00    +0.000 A 
ATOM     11  C   UNL     1       7.116   5.484  19.373  0.00  0.00    +0.000 C 
ATOM     12  C   UNL     1       5.247   4.249  18.057  0.00  0.00    +0.000 A 
ATOM     13  S   UNL     1       4.888   3.966  16.397  0.00  0.00    +0.000 S 
BRANCH   8  14
ATOM     14  C   UNL     1       6.649   4.983  14.492  0.00  0.00    +0.000 C 
BRANCH  14  16
ATOM     15  C   UNL     1       5.930   3.623  12.715  0.00  0.00    +0.000 C 
ATOM     16  O   UNL     1       6.686   3.677  13.914  0.00  0.00    +0.000 OA
ENDBRANCH  14  16
ENDBRANCH   8  14
ENDBRANCH   4  12
ENDBRANCH   1   6
BRANCH   1  17
ATOM     17  C   UNL     1       1.290   5.274  20.603  0.00  0.00    +0.000 C 
BRANCH  17  18
ATOM     18  C   UNL     1       1.959   6.607  20.210  0.00  0.00    +0.000 C 
BRANCH  18  19
ATOM     19  C   UNL     1       1.590   7.759  21.152  0.00  0.00    +0.000 C 
BRANCH  19  20
ATOM     20  N   UNL     1       0.585   8.629  20.569  0.00  0.00    +0.000 N 
ATOM     21  C   UNL     1       0.482   9.930  20.960  0.00  0.00    +0.000 C 
ATOM     22  O   UNL     1       1.232  10.419  21.789  0.00  0.00    +0.000 OA
ATOM     23  H   UNL     1      -0.097   8.286  19.905  0.00  0.00    +0.000 HD
BRANCH  21  24
ATOM     24  O   UNL     1      -0.543  10.572  20.350  0.00  0.00    +0.000 OA
BRANCH  24  25
ATOM     25  C   UNL     1      -0.330  11.088  19.003  0.00  0.00    +0.000 C 
ATOM     26  C   UNL     1       1.144  10.953  18.593  0.00  0.00    +0.000 C 
ATOM     27  C   UNL     1      -1.196  10.260  18.030  0.00  0.00    +0.000 C 
ATOM     28  C   UNL     1      -0.805  12.545  18.904  0.00  0.00    +0.000 C 
ENDBRANCH  24  25
ENDBRANCH  21  24
ENDBRANCH  19  20
ENDBRANCH  18  19
ENDBRANCH  17  18
ENDBRANCH   1  17
TORSDOF 10
ENDMDL
MODEL 9
REMARK VINA RESULT:      -6.3      4.726      8.138
REMARK  Name = 
REMARK  17 active torsions:
REMARK  status: ('A' for Active; 'I' for Inactive)
REMARK    1  A    between atoms: C_1  and  O_2
REMARK    2  A    between atoms: O_2  and  C_3
REMARK    3  A    between atoms: C_3  and  C_4
REMARK    4  A    between atoms: C_6  and  C_7
REMARK    5  A    between atoms: C_8  and  C_9
REMARK    6  A    between atoms: N_11  and  C_12
REMARK    7  A    between atoms: C_12  and  C_13
REMARK    8  A    between atoms: C_12  and  C_14
REMARK    9  A    between atoms: C_12  and  C_15
REMARK   10  A    between atoms: C_15  and  C_16
REMARK   11  A    between atoms: C_16  and  C_17
REMARK   12  A    between atoms: C_17  and  N_18
REMARK   13  A    between atoms: C_19  and  O_21
REMARK   14  A    between atoms: O_21  and  C_22
REMARK   15  A    between atoms: C_22  and  C_23
REMARK   16  A    between atoms: C_22  and  C_24
REMARK   17  A    between atoms: C_22  and  C_25
REMARK                            x       y       z     vdW  Elec       q    Type
REMARK                         _______ _______ _______ _____ _____    ______ ____
ROOT
ATOM      1  C   UNL     1       7.163   5.923  17.762  0.00  0.00    +0.000 C 
ATOM      2  C   UNL     1       8.127   5.668  18.941  0.00  0.00    +0.000 C 
ATOM      3  C   UNL     1       7.615   5.121  16.529  0.00  0.00    +0.000 C 
ENDROOT
BRANCH   1   6
ATOM      4  C   UNL     1       4.705   5.408  17.307  0.00  0.00    +0.000 C 
ATOM      5  O   UNL     1       4.786   5.607  16.095  0.00  0.00    +0.000 OA
ATOM      6  N   UNL     1       5.794   5.532  18.159  0.00  0.00    +0.000 N 
ATOM      7  H   UNL     1       5.625   5.323  19.132  0.00  0.00    +0.000 HD
BRANCH   4  12
ATOM      8  C   UNL     1       1.594   3.795  18.941  0.00  0.00    +0.000 A 
ATOM      9  N   UNL     1       1.340   5.085  18.954  0.00  0.00    +0.000 NA
ATOM     10  C   UNL     1       2.397   5.796  18.397  0.00  0.00    +0.000 A 
ATOM     11  C   UNL     1       2.253   7.279  18.356  0.00  0.00    +0.000 C 
ATOM     12  C   UNL     1       3.452   5.011  17.943  0.00  0.00    +0.000 A 
ATOM     13  S   UNL     1       3.093   3.354  18.242  0.00  0.00    +0.000 S 
BRANCH   8  14
ATOM     14  C   UNL     1       0.649   2.745  19.433  0.00  0.00    +0.000 C 
BRANCH  14  16
ATOM     15  C   UNL     1       1.388   2.778  21.665  0.00  0.00    +0.000 C 
ATOM     16  O   UNL     1       1.298   2.012  20.474  0.00  0.00    +0.000 OA
ENDBRANCH  14  16
ENDBRANCH   8  14
ENDBRANCH   4  12
ENDBRANCH   1   6
BRANCH   1  17
ATOM     17  C   UNL     1       7.214   7.456  17.428  0.00  0.00    +0.000 C 
BRANCH  17  18
ATOM     18  C   UNL     1       8.331   8.245  18.141  0.00  0.00    +0.000 C 
BRANCH  18  19
ATOM     19  C   UNL     1       8.164   9.763  18.010  0.00  0.00    +0.000 C 
BRANCH  19  20
ATOM     20  N   UNL     1       9.440  10.453  18.085  0.00  0.00    +0.000 N 
ATOM     21  C   UNL     1       9.879  10.971  19.266  0.00  0.00    +0.000 C 
ATOM     22  O   UNL     1       9.241  10.862  20.300  0.00  0.00    +0.000 OA
ATOM     23  H   UNL     1      10.007  10.616  17.264  0.00  0.00    +0.000 HD
BRANCH  21  24
ATOM     24  O   UNL     1      11.060  11.622  19.135  0.00  0.00    +0.000 OA
BRANCH  24  25
ATOM     25  C   UNL     1      11.037  13.010  18.691  0.00  0.00    +0.000 C 
ATOM     26  C   UNL     1       9.663  13.646  18.952  0.00  0.00    +0.000 C 
ATOM     27  C   UNL     1      12.106  13.786  19.489  0.00  0.00    +0.000 C 
ATOM     28  C   UNL     1      11.422  13.107  17.207  0.00  0.00    +0.000 C 
ENDBRANCH  24  25
ENDBRANCH  21  24
ENDBRANCH  19  20
ENDBRANCH  18  19
ENDBRANCH  17  18
ENDBRANCH   1  17
TORSDOF 10
ENDMDL
