MODEL 1
REMARK VINA RESULT:      -7.6      0.000      0.000
REMARK  Name = 
REMARK  6 active torsions:
REMARK  status: ('A' for Active; 'I' for Inactive)
REMARK    1  A    between atoms: C_1  and  C_2
REMARK    2  A    between atoms: C_2  and  O_3
REMARK    3  A    between atoms: O_3  and  C_4
REMARK    4  A    between atoms: C_4  and  C_6
REMARK    5  A    between atoms: C_9  and  O_10
REMARK    6  A    between atoms: C_15  and  N_16
REMARK                            x       y       z     vdW  Elec       q    Type
REMARK                         _______ _______ _______ _____ _____    ______ ____
ROOT
ATOM      1  C   UNL     1       5.856   4.923  15.769  0.00  0.00    +0.000 A 
ATOM      2  N   UNL     1       5.814   4.023  16.830  0.00  0.00    +0.000 NA
ATOM      3  C   UNL     1       5.016   4.622  17.677  0.00  0.00    +0.000 A 
ATOM      4  C   UNL     1       4.593   4.195  18.962  0.00  0.00    +0.000 A 
ATOM      5  N   UNL     1       3.782   4.874  19.703  0.00  0.00    +0.000 NA
ATOM      6  C   UNL     1       3.294   6.095  19.174  0.00  0.00    +0.000 A 
ATOM      7  C   UNL     1       2.368   6.807  19.930  0.00  0.00    +0.000 A 
ATOM      8  C   UNL     1       1.828   8.001  19.447  0.00  0.00    +0.000 A 
ATOM      9  C   UNL     1       2.240   8.535  18.217  0.00  0.00    +0.000 A 
ATOM     10  C   UNL     1       3.148   7.815  17.425  0.00  0.00    +0.000 A 
ATOM     11  C   UNL     1       3.673   6.612  17.912  0.00  0.00    +0.000 A 
ATOM     12  N   UNL     1       4.568   5.808  17.186  0.00  0.00    +0.000 N 
ATOM     13  N   UNL     1       5.104   6.040  15.968  0.00  0.00    +0.000 NA
ENDROOT
BRANCH   9  14
ATOM     14  N   UNL     1       1.565   9.648  17.705  0.00  0.00    +0.000 N 
ATOM     15  H   UNL     1       2.138  10.260  17.137  0.00  0.00    +0.000 HD
ATOM     16  H   UNL     1       0.672   9.443  17.266  0.00  0.00    +0.000 HD
ENDBRANCH   9  14
BRANCH   1  17
ATOM     17  C   UNL     1       6.732   4.687  14.595  0.00  0.00    +0.000 C 
ATOM     18  O   UNL     1       7.622   5.464  14.257  0.00  0.00    +0.000 OA
BRANCH  17  19
ATOM     19  O   UNL     1       6.374   3.578  13.882  0.00  0.00    +0.000 OA
BRANCH  19  21
ATOM     20  C   UNL     1       5.157   3.170  11.870  0.00  0.00    +0.000 C 
ATOM     21  C   UNL     1       6.447   3.717  12.457  0.00  0.00    +0.000 C 
ENDBRANCH  19  21
ENDBRANCH  17  19
ENDBRANCH   1  17
BRANCH   4  22
ATOM     22  O   UNL     1       5.118   3.016  19.354  0.00  0.00    +0.000 OA
ATOM     23  H   UNL     1       5.943   3.160  19.854  0.00  0.00    +0.000 HD
ENDBRANCH   4  22
TORSDOF 5
ENDMDL
MODEL 2
REMARK VINA RESULT:      -7.3      2.979      3.348
REMARK  Name = 
REMARK  6 active torsions:
REMARK  status: ('A' for Active; 'I' for Inactive)
REMARK    1  A    between atoms: C_1  and  C_2
REMARK    2  A    between atoms: C_2  and  O_3
REMARK    3  A    between atoms: O_3  and  C_4
REMARK    4  A    between atoms: C_4  and  C_6
REMARK    5  A    between atoms: C_9  and  O_10
REMARK    6  A    between atoms: C_15  and  N_16
REMARK                            x       y       z     vdW  Elec       q    Type
REMARK                         _______ _______ _______ _____ _____    ______ ____
ROOT
ATOM      1  C   UNL     1       6.598   4.636  15.274  0.00  0.00    +0.000 A 
ATOM      2  N   UNL     1       7.313   5.206  16.323  0.00  0.00    +0.000 NA
ATOM      3  C   UNL     1       6.564   4.926  17.360  0.00  0.00    +0.000 A 
ATOM      4  C   UNL     1       6.766   5.256  18.724  0.00  0.00    +0.000 A 
ATOM      5  N   UNL     1       5.956   4.905  19.666  0.00  0.00    +0.000 NA
ATOM      6  C   UNL     1       4.825   4.139  19.291  0.00  0.00    +0.000 A 
ATOM      7  C   UNL     1       3.977   3.694  20.300  0.00  0.00    +0.000 A 
ATOM      8  C   UNL     1       2.864   2.908  19.994  0.00  0.00    +0.000 A 
ATOM      9  C   UNL     1       2.546   2.590  18.666  0.00  0.00    +0.000 A 
ATOM     10  C   UNL     1       3.408   3.001  17.637  0.00  0.00    +0.000 A 
ATOM     11  C   UNL     1       4.529   3.776  17.955  0.00  0.00    +0.000 A 
ATOM     12  N   UNL     1       5.463   4.215  17.001  0.00  0.00    +0.000 N 
ATOM     13  N   UNL     1       5.445   4.027  15.663  0.00  0.00    +0.000 NA
ENDROOT
BRANCH   9  14
ATOM     14  N   UNL     1       1.514   1.679  18.419  0.00  0.00    +0.000 N 
ATOM     15  H   UNL     1       0.701   1.797  19.012  0.00  0.00    +0.000 HD
ATOM     16  H   UNL     1       1.263   1.569  17.441  0.00  0.00    +0.000 HD
ENDBRANCH   9  14
BRANCH   1  17
ATOM     17  C   UNL     1       7.043   4.792  13.867  0.00  0.00    +0.000 C 
ATOM     18  O   UNL     1       8.022   5.462  13.545  0.00  0.00    +0.000 OA
BRANCH  17  19
ATOM     19  O   UNL     1       6.194   4.201  12.974  0.00  0.00    +0.000 OA
BRANCH  19  21
ATOM     20  C   UNL     1       5.815   2.287  11.601  0.00  0.00    +0.000 C 
ATOM     21  C   UNL     1       6.821   3.350  12.005  0.00  0.00    +0.000 C 
ENDBRANCH  19  21
ENDBRANCH  17  19
ENDBRANCH   1  17
BRANCH   4  22
ATOM     22  O   UNL     1       7.880   5.982  18.959  0.00  0.00    +0.000 OA
ATOM     23  H   UNL     1       7.700   6.931  18.831  0.00  0.00    +0.000 HD
ENDBRANCH   4  22
TORSDOF 5
ENDMDL
MODEL 3
REMARK VINA RESULT:      -7.2      2.910      3.708
REMARK  Name = 
REMARK  6 active torsions:
REMARK  status: ('A' for Active; 'I' for Inactive)
REMARK    1  A    between atoms: C_1  and  C_2
REMARK    2  A    between atoms: C_2  and  O_3
REMARK    3  A    between atoms: O_3  and  C_4
REMARK    4  A    between atoms: C_4  and  C_6
REMARK    5  A    between atoms: C_9  and  O_10
REMARK    6  A    between atoms: C_15  and  N_16
REMARK                            x       y       z     vdW  Elec       q    Type
REMARK                         _______ _______ _______ _____ _____    ______ ____
ROOT
ATOM      1  C   UNL     1       6.590   4.314  14.021  0.00  0.00    +0.000 A 
ATOM      2  N   UNL     1       7.230   5.343  14.707  0.00  0.00    +0.000 NA
ATOM      3  C   UNL     1       6.634   5.319  15.872  0.00  0.00    +0.000 A 
ATOM      4  C   UNL     1       6.849   6.146  17.003  0.00  0.00    +0.000 A 
ATOM      5  N   UNL     1       6.203   6.012  18.112  0.00  0.00    +0.000 NA
ATOM      6  C   UNL     1       5.248   4.967  18.181  0.00  0.00    +0.000 A 
ATOM      7  C   UNL     1       4.590   4.764  19.389  0.00  0.00    +0.000 A 
ATOM      8  C   UNL     1       3.662   3.730  19.525  0.00  0.00    +0.000 A 
ATOM      9  C   UNL     1       3.334   2.905  18.439  0.00  0.00    +0.000 A 
ATOM     10  C   UNL     1       4.012   3.072  17.222  0.00  0.00    +0.000 A 
ATOM     11  C   UNL     1       4.951   4.103  17.100  0.00  0.00    +0.000 A 
ATOM     12  N   UNL     1       5.697   4.336  15.932  0.00  0.00    +0.000 N 
ATOM     13  N   UNL     1       5.631   3.683  14.751  0.00  0.00    +0.000 NA
ENDROOT
BRANCH   9  14
ATOM     14  N   UNL     1       2.517   1.792  18.661  0.00  0.00    +0.000 N 
ATOM     15  H   UNL     1       1.975   1.835  19.516  0.00  0.00    +0.000 HD
ATOM     16  H   UNL     1       1.955   1.506  17.865  0.00  0.00    +0.000 HD
ENDBRANCH   9  14
BRANCH   1  17
ATOM     17  C   UNL     1       6.894   4.036  12.596  0.00  0.00    +0.000 C 
ATOM     18  O   UNL     1       7.581   4.780  11.900  0.00  0.00    +0.000 OA
BRANCH  17  19
ATOM     19  O   UNL     1       6.247   2.929  12.122  0.00  0.00    +0.000 OA
BRANCH  19  21
ATOM     20  C   UNL     1       6.251   0.797  11.051  0.00  0.00    +0.000 C 
ATOM     21  C   UNL     1       7.024   2.087  11.262  0.00  0.00    +0.000 C 
ENDBRANCH  19  21
ENDBRANCH  17  19
ENDBRANCH   1  17
BRANCH   4  22
ATOM     22  O   UNL     1       7.787   7.099  16.821  0.00  0.00    +0.000 OA
ATOM     23  H   UNL     1       7.783   7.408  15.896  0.00  0.00    +0.000 HD
ENDBRANCH   4  22
TORSDOF 5
ENDMDL
MODEL 4
REMARK VINA RESULT:      -7.1      1.434      1.670
REMARK  Name = 
REMARK  6 active torsions:
REMARK  status: ('A' for Active; 'I' for Inactive)
REMARK    1  A    between atoms: C_1  and  C_2
REMARK    2  A    between atoms: C_2  and  O_3
REMARK    3  A    between atoms: O_3  and  C_4
REMARK    4  A    between atoms: C_4  and  C_6
REMARK    5  A    between atoms: C_9  and  O_10
REMARK    6  A    between atoms: C_15  and  N_16
REMARK                            x       y       z     vdW  Elec       q    Type
REMARK                         _______ _______ _______ _____ _____    ______ ____
ROOT
ATOM      1  C   UNL     1       5.386   4.691  16.108  0.00  0.00    +0.000 A 
ATOM      2  N   UNL     1       5.114   3.394  16.535  0.00  0.00    +0.000 NA
ATOM      3  C   UNL     1       4.321   3.595  17.558  0.00  0.00    +0.000 A 
ATOM      4  C   UNL     1       3.714   2.645  18.418  0.00  0.00    +0.000 A 
ATOM      5  N   UNL     1       2.931   2.968  19.391  0.00  0.00    +0.000 NA
ATOM      6  C   UNL     1       2.669   4.349  19.577  0.00  0.00    +0.000 A 
ATOM      7  C   UNL     1       1.774   4.713  20.578  0.00  0.00    +0.000 A 
ATOM      8  C   UNL     1       1.453   6.056  20.786  0.00  0.00    +0.000 A 
ATOM      9  C   UNL     1       2.058   7.070  20.029  0.00  0.00    +0.000 A 
ATOM     10  C   UNL     1       2.937   6.721  18.992  0.00  0.00    +0.000 A 
ATOM     11  C   UNL     1       3.242   5.371  18.782  0.00  0.00    +0.000 A 
ATOM     12  N   UNL     1       4.090   4.919  17.757  0.00  0.00    +0.000 N 
ATOM     13  N   UNL     1       4.775   5.653  16.852  0.00  0.00    +0.000 NA
ENDROOT
BRANCH   9  14
ATOM     14  N   UNL     1       1.595   8.382  20.168  0.00  0.00    +0.000 N 
ATOM     15  H   UNL     1       0.648   8.528  19.838  0.00  0.00    +0.000 HD
ATOM     16  H   UNL     1       1.751   8.799  21.081  0.00  0.00    +0.000 HD
ENDBRANCH   9  14
BRANCH   1  17
ATOM     17  C   UNL     1       6.338   4.951  15.001  0.00  0.00    +0.000 C 
ATOM     18  O   UNL     1       7.468   5.401  15.181  0.00  0.00    +0.000 OA
BRANCH  17  19
ATOM     19  O   UNL     1       5.789   4.735  13.768  0.00  0.00    +0.000 OA
BRANCH  19  21
ATOM     20  C   UNL     1       5.289   3.207  12.006  0.00  0.00    +0.000 C 
ATOM     21  C   UNL     1       6.313   3.608  13.054  0.00  0.00    +0.000 C 
ENDBRANCH  19  21
ENDBRANCH  17  19
ENDBRANCH   1  17
BRANCH   4  22
ATOM     22  O   UNL     1       4.033   1.363  18.139  0.00  0.00    +0.000 OA
ATOM     23  H   UNL     1       4.722   1.043  18.750  0.00  0.00    +0.000 HD
ENDBRANCH   4  22
TORSDOF 5
ENDMDL
MODEL 5
REMARK VINA RESULT:      -6.9      2.080      3.441
REMARK  Name = 
REMARK  6 active torsions:
REMARK  status: ('A' for Active; 'I' for Inactive)
REMARK    1  A    between atoms: C_1  and  C_2
REMARK    2  A    between atoms: C_2  and  O_3
REMARK    3  A    between atoms: O_3  and  C_4
REMARK    4  A    between atoms: C_4  and  C_6
REMARK    5  A    between atoms: C_9  and  O_10
REMARK    6  A    between atoms: C_15  and  N_16
REMARK                            x       y       z     vdW  Elec       q    Type
REMARK                         _______ _______ _______ _____ _____    ______ ____
ROOT
ATOM      1  C   UNL     1       5.690   5.220  16.354  0.00  0.00    +0.000 A 
ATOM      2  N   UNL     1       5.039   6.451  16.361  0.00  0.00    +0.000 NA
ATOM      3  C   UNL     1       4.183   6.311  17.342  0.00  0.00    +0.000 A 
ATOM      4  C   UNL     1       3.224   7.235  17.830  0.00  0.00    +0.000 A 
ATOM      5  N   UNL     1       2.441   6.985  18.825  0.00  0.00    +0.000 NA
ATOM      6  C   UNL     1       2.579   5.722  19.452  0.00  0.00    +0.000 A 
ATOM      7  C   UNL     1       1.790   5.460  20.568  0.00  0.00    +0.000 A 
ATOM      8  C   UNL     1       1.905   4.245  21.247  0.00  0.00    +0.000 A 
ATOM      9  C   UNL     1       2.777   3.244  20.795  0.00  0.00    +0.000 A 
ATOM     10  C   UNL     1       3.605   3.502  19.692  0.00  0.00    +0.000 A 
ATOM     11  C   UNL     1       3.493   4.728  19.027  0.00  0.00    +0.000 A 
ATOM     12  N   UNL     1       4.292   5.090  17.929  0.00  0.00    +0.000 N 
ATOM     13  N   UNL     1       5.240   4.357  17.305  0.00  0.00    +0.000 NA
ENDROOT
BRANCH   9  14
ATOM     14  N   UNL     1       2.970   2.109  21.589  0.00  0.00    +0.000 N 
ATOM     15  H   UNL     1       2.422   2.097  22.441  0.00  0.00    +0.000 HD
ATOM     16  H   UNL     1       2.926   1.224  21.093  0.00  0.00    +0.000 HD
ENDBRANCH   9  14
BRANCH   1  17
ATOM     17  C   UNL     1       6.704   4.893  15.321  0.00  0.00    +0.000 C 
ATOM     18  O   UNL     1       7.674   5.610  15.085  0.00  0.00    +0.000 OA
BRANCH  17  19
ATOM     19  O   UNL     1       6.385   3.777  14.601  0.00  0.00    +0.000 OA
BRANCH  19  21
ATOM     20  C   UNL     1       6.042   3.289  12.291  0.00  0.00    +0.000 C 
ATOM     21  C   UNL     1       5.475   3.989  13.514  0.00  0.00    +0.000 C 
ENDBRANCH  19  21
ENDBRANCH  17  19
ENDBRANCH   1  17
BRANCH   4  22
ATOM     22  O   UNL     1       3.191   8.405  17.157  0.00  0.00    +0.000 OA
ATOM     23  H   UNL     1       3.323   9.153  17.769  0.00  0.00    +0.000 HD
ENDBRANCH   4  22
TORSDOF 5
ENDMDL
MODEL 6
REMARK VINA RESULT:      -6.8      1.760      2.172
REMARK  Name = 
REMARK  6 active torsions:
REMARK  status: ('A' for Active; 'I' for Inactive)
REMARK    1  A    between atoms: C_1  and  C_2
REMARK    2  A    between atoms: C_2  and  O_3
REMARK    3  A    between atoms: O_3  and  C_4
REMARK    4  A    between atoms: C_4  and  C_6
REMARK    5  A    between atoms: C_9  and  O_10
REMARK    6  A    between atoms: C_15  and  N_16
REMARK                            x       y       z     vdW  Elec       q    Type
REMARK                         _______ _______ _______ _____ _____    ______ ____
ROOT
ATOM      1  C   UNL     1       5.923   5.020  16.878  0.00  0.00    +0.000 A 
ATOM      2  N   UNL     1       5.530   3.684  16.911  0.00  0.00    +0.000 NA
ATOM      3  C   UNL     1       4.542   3.702  17.769  0.00  0.00    +0.000 A 
ATOM      4  C   UNL     1       3.739   2.627  18.229  0.00  0.00    +0.000 A 
ATOM      5  N   UNL     1       2.774   2.775  19.073  0.00  0.00    +0.000 NA
ATOM      6  C   UNL     1       2.516   4.090  19.535  0.00  0.00    +0.000 A 
ATOM      7  C   UNL     1       1.437   4.279  20.393  0.00  0.00    +0.000 A 
ATOM      8  C   UNL     1       1.115   5.556  20.855  0.00  0.00    +0.000 A 
ATOM      9  C   UNL     1       1.895   6.669  20.508  0.00  0.00    +0.000 A 
ATOM     10  C   UNL     1       2.967   6.504  19.616  0.00  0.00    +0.000 A 
ATOM     11  C   UNL     1       3.273   5.221  19.148  0.00  0.00    +0.000 A 
ATOM     12  N   UNL     1       4.310   4.957  18.236  0.00  0.00    +0.000 N 
ATOM     13  N   UNL     1       5.193   5.826  17.696  0.00  0.00    +0.000 NA
ENDROOT
BRANCH   9  14
ATOM     14  N   UNL     1       1.449   7.944  20.867  0.00  0.00    +0.000 N 
ATOM     15  H   UNL     1       1.991   8.385  21.601  0.00  0.00    +0.000 HD
ATOM     16  H   UNL     1       1.274   8.574  20.090  0.00  0.00    +0.000 HD
ENDBRANCH   9  14
BRANCH   1  17
ATOM     17  C   UNL     1       7.098   5.456  16.084  0.00  0.00    +0.000 C 
ATOM     18  O   UNL     1       7.628   6.557  16.222  0.00  0.00    +0.000 OA
BRANCH  17  19
ATOM     19  O   UNL     1       7.454   4.551  15.124  0.00  0.00    +0.000 OA
BRANCH  19  21
ATOM     20  C   UNL     1       6.127   3.742  13.314  0.00  0.00    +0.000 C 
ATOM     21  C   UNL     1       7.024   4.870  13.794  0.00  0.00    +0.000 C 
ENDBRANCH  19  21
ENDBRANCH  17  19
ENDBRANCH   1  17
BRANCH   4  22
ATOM     22  O   UNL     1       4.075   1.426  17.715  0.00  0.00    +0.000 OA
ATOM     23  H   UNL     1       3.351   1.078  17.163  0.00  0.00    +0.000 HD
ENDBRANCH   4  22
TORSDOF 5
ENDMDL
MODEL 7
REMARK VINA RESULT:      -6.8      2.155      3.335
REMARK  Name = 
REMARK  6 active torsions:
REMARK  status: ('A' for Active; 'I' for Inactive)
REMARK    1  A    between atoms: C_1  and  C_2
REMARK    2  A    between atoms: C_2  and  O_3
REMARK    3  A    between atoms: O_3  and  C_4
REMARK    4  A    between atoms: C_4  and  C_6
REMARK    5  A    between atoms: C_9  and  O_10
REMARK    6  A    between atoms: C_15  and  N_16
REMARK                            x       y       z     vdW  Elec       q    Type
REMARK                         _______ _______ _______ _____ _____    ______ ____
ROOT
ATOM      1  C   UNL     1       5.847   5.002  15.433  0.00  0.00    +0.000 A 
ATOM      2  N   UNL     1       5.626   6.285  15.928  0.00  0.00    +0.000 NA
ATOM      3  C   UNL     1       4.632   6.099  16.759  0.00  0.00    +0.000 A 
ATOM      4  C   UNL     1       3.952   7.046  17.566  0.00  0.00    +0.000 A 
ATOM      5  N   UNL     1       2.988   6.735  18.365  0.00  0.00    +0.000 NA
ATOM      6  C   UNL     1       2.622   5.367  18.431  0.00  0.00    +0.000 A 
ATOM      7  C   UNL     1       1.631   5.002  19.337  0.00  0.00    +0.000 A 
ATOM      8  C   UNL     1       1.250   3.665  19.469  0.00  0.00    +0.000 A 
ATOM      9  C   UNL     1       1.818   2.668  18.663  0.00  0.00    +0.000 A 
ATOM     10  C   UNL     1       2.844   3.012  17.768  0.00  0.00    +0.000 A 
ATOM     11  C   UNL     1       3.228   4.353  17.652  0.00  0.00    +0.000 A 
ATOM     12  N   UNL     1       4.258   4.793  16.804  0.00  0.00    +0.000 N 
ATOM     13  N   UNL     1       5.008   4.063  15.949  0.00  0.00    +0.000 NA
ENDROOT
BRANCH   9  14
ATOM     14  N   UNL     1       1.519   1.329  18.934  0.00  0.00    +0.000 N 
ATOM     15  H   UNL     1       1.080   0.835  18.166  0.00  0.00    +0.000 HD
ATOM     16  H   UNL     1       2.277   0.795  19.350  0.00  0.00    +0.000 HD
ENDBRANCH   9  14
BRANCH   1  17
ATOM     17  C   UNL     1       6.850   4.752  14.369  0.00  0.00    +0.000 C 
ATOM     18  O   UNL     1       7.753   5.542  14.100  0.00  0.00    +0.000 OA
BRANCH  17  19
ATOM     19  O   UNL     1       6.599   3.610  13.661  0.00  0.00    +0.000 OA
BRANCH  19  21
ATOM     20  C   UNL     1       5.179   3.048  11.828  0.00  0.00    +0.000 C 
ATOM     21  C   UNL     1       6.437   3.789  12.248  0.00  0.00    +0.000 C 
ENDBRANCH  19  21
ENDBRANCH  17  19
ENDBRANCH   1  17
BRANCH   4  22
ATOM     22  O   UNL     1       4.394   8.313  17.422  0.00  0.00    +0.000 OA
ATOM     23  H   UNL     1       5.277   8.321  17.010  0.00  0.00    +0.000 HD
ENDBRANCH   4  22
TORSDOF 5
ENDMDL
MODEL 8
REMARK VINA RESULT:      -6.8      3.192      6.268
REMARK  Name = 
REMARK  6 active torsions:
REMARK  status: ('A' for Active; 'I' for Inactive)
REMARK    1  A    between atoms: C_1  and  C_2
REMARK    2  A    between atoms: C_2  and  O_3
REMARK    3  A    between atoms: O_3  and  C_4
REMARK    4  A    between atoms: C_4  and  C_6
REMARK    5  A    between atoms: C_9  and  O_10
REMARK    6  A    between atoms: C_15  and  N_16
REMARK                            x       y       z     vdW  Elec       q    Type
REMARK                         _______ _______ _______ _____ _____    ______ ____
ROOT
ATOM      1  C   UNL     1       3.975   3.220  18.760  0.00  0.00    +0.000 A 
ATOM      2  N   UNL     1       5.012   3.956  19.327  0.00  0.00    +0.000 NA
ATOM      3  C   UNL     1       5.744   4.262  18.286  0.00  0.00    +0.000 A 
ATOM      4  C   UNL     1       6.952   5.002  18.229  0.00  0.00    +0.000 A 
ATOM      5  N   UNL     1       7.577   5.254  17.128  0.00  0.00    +0.000 NA
ATOM      6  C   UNL     1       6.996   4.768  15.930  0.00  0.00    +0.000 A 
ATOM      7  C   UNL     1       7.619   5.087  14.728  0.00  0.00    +0.000 A 
ATOM      8  C   UNL     1       7.075   4.663  13.514  0.00  0.00    +0.000 A 
ATOM      9  C   UNL     1       5.921   3.867  13.477  0.00  0.00    +0.000 A 
ATOM     10  C   UNL     1       5.259   3.564  14.677  0.00  0.00    +0.000 A 
ATOM     11  C   UNL     1       5.804   4.005  15.888  0.00  0.00    +0.000 A 
ATOM     12  N   UNL     1       5.205   3.773  17.138  0.00  0.00    +0.000 N 
ATOM     13  N   UNL     1       4.076   3.082  17.410  0.00  0.00    +0.000 NA
ENDROOT
BRANCH   9  14
ATOM     14  N   UNL     1       5.328   3.595  12.240  0.00  0.00    +0.000 N 
ATOM     15  H   UNL     1       5.673   2.757  11.787  0.00  0.00    +0.000 HD
ATOM     16  H   UNL     1       4.314   3.648  12.228  0.00  0.00    +0.000 HD
ENDBRANCH   9  14
BRANCH   1  17
ATOM     17  C   UNL     1       2.935   2.583  19.604  0.00  0.00    +0.000 C 
ATOM     18  O   UNL     1       2.191   1.694  19.193  0.00  0.00    +0.000 OA
BRANCH  17  19
ATOM     19  O   UNL     1       2.828   3.159  20.838  0.00  0.00    +0.000 OA
BRANCH  19  21
ATOM     20  C   UNL     1       1.726   5.270  20.693  0.00  0.00    +0.000 C 
ATOM     21  C   UNL     1       1.580   3.814  21.101  0.00  0.00    +0.000 C 
ENDBRANCH  19  21
ENDBRANCH  17  19
ENDBRANCH   1  17
BRANCH   4  22
ATOM     22  O   UNL     1       7.404   5.417  19.430  0.00  0.00    +0.000 OA
ATOM     23  H   UNL     1       7.215   6.365  19.556  0.00  0.00    +0.000 HD
ENDBRANCH   4  22
TORSDOF 5
ENDMDL
MODEL 9
REMARK VINA RESULT:      -6.8      3.115      6.238
REMARK  Name = 
REMARK  6 active torsions:
REMARK  status: ('A' for Active; 'I' for Inactive)
REMARK    1  A    between atoms: C_1  and  C_2
REMARK    2  A    between atoms: C_2  and  O_3
REMARK    3  A    between atoms: O_3  and  C_4
REMARK    4  A    between atoms: C_4  and  C_6
REMARK    5  A    between atoms: C_9  and  O_10
REMARK    6  A    between atoms: C_15  and  N_16
REMARK                            x       y       z     vdW  Elec       q    Type
REMARK                         _______ _______ _______ _____ _____    ______ ____
ROOT
ATOM      1  C   UNL     1       4.432   3.986  18.382  0.00  0.00    +0.000 A 
ATOM      2  N   UNL     1       5.398   4.950  18.660  0.00  0.00    +0.000 NA
ATOM      3  C   UNL     1       6.012   5.073  17.510  0.00  0.00    +0.000 A 
ATOM      4  C   UNL     1       7.105   5.907  17.165  0.00  0.00    +0.000 A 
ATOM      5  N   UNL     1       7.617   5.952  15.981  0.00  0.00    +0.000 NA
ATOM      6  C   UNL     1       7.026   5.128  14.991  0.00  0.00    +0.000 A 
ATOM      7  C   UNL     1       7.520   5.213  13.694  0.00  0.00    +0.000 A 
ATOM      8  C   UNL     1       6.956   4.449  12.670  0.00  0.00    +0.000 A 
ATOM      9  C   UNL     1       5.917   3.544  12.932  0.00  0.00    +0.000 A 
ATOM     10  C   UNL     1       5.382   3.469  14.227  0.00  0.00    +0.000 A 
ATOM     11  C   UNL     1       5.945   4.250  15.243  0.00  0.00    +0.000 A 
ATOM     12  N   UNL     1       5.466   4.263  16.565  0.00  0.00    +0.000 N 
ATOM     13  N   UNL     1       4.459   3.537  17.098  0.00  0.00    +0.000 NA
ENDROOT
BRANCH   9  14
ATOM     14  N   UNL     1       5.284   2.914  11.855  0.00  0.00    +0.000 N 
ATOM     15  H   UNL     1       5.883   2.752  11.054  0.00  0.00    +0.000 HD
ATOM     16  H   UNL     1       4.738   2.093  12.098  0.00  0.00    +0.000 HD
ENDBRANCH   9  14
BRANCH   1  17
ATOM     17  C   UNL     1       3.543   3.461  19.448  0.00  0.00    +0.000 C 
ATOM     18  O   UNL     1       3.849   2.511  20.166  0.00  0.00    +0.000 OA
BRANCH  17  19
ATOM     19  O   UNL     1       2.323   4.074  19.470  0.00  0.00    +0.000 OA
BRANCH  19  21
ATOM     20  C   UNL     1       0.764   2.410  18.767  0.00  0.00    +0.000 C 
ATOM     21  C   UNL     1       1.237   3.260  19.933  0.00  0.00    +0.000 C 
ENDBRANCH  19  21
ENDBRANCH  17  19
ENDBRANCH   1  17
BRANCH   4  22
ATOM     22  O   UNL     1       7.578   6.650  18.188  0.00  0.00    +0.000 OA
ATOM     23  H   UNL     1       7.471   6.175  19.032  0.00  0.00    +0.000 HD
ENDBRANCH   4  22
TORSDOF 5
ENDMDL
