MODEL 1
REMARK VINA RESULT:      -7.2      0.000      0.000
REMARK  Name = 
REMARK  8 active torsions:
REMARK  status: ('A' for Active; 'I' for Inactive)
REMARK    1  A    between atoms: C_1  and  O_2
REMARK    2  A    between atoms: O_2  and  C_3
REMARK    3  A    between atoms: C_8  and  N_9
REMARK    4  A    between atoms: C_10  and  S_11
REMARK    5  A    between atoms: N_12  and  C_13
REMARK    6  A    between atoms: N_12  and  C_20
REMARK    7  A    between atoms: C_13  and  C_14
REMARK    8  A    between atoms: C_20  and  C_21
REMARK                            x       y       z     vdW  Elec       q    Type
REMARK                         _______ _______ _______ _____ _____    ______ ____
ROOT
ATOM      1  N   UNL     1       3.877   4.626  18.429  0.00  0.00    +0.000 NA
ATOM      2  C   UNL     1       4.456   4.014  17.430  0.00  0.00    +0.000 C 
ATOM      3  N   UNL     1       5.322   4.694  16.577  0.00  0.00    +0.000 N 
ENDROOT
BRANCH   1   9
ATOM      4  C   UNL     1       3.447   3.136  20.362  0.00  0.00    +0.000 A 
ATOM      5  C   UNL     1       2.535   2.596  21.288  0.00  0.00    +0.000 A 
ATOM      6  C   UNL     1       1.184   2.930  21.250  0.00  0.00    +0.000 A 
ATOM      7  C   UNL     1       0.743   3.862  20.322  0.00  0.00    +0.000 A 
ATOM      8  C   UNL     1       1.652   4.435  19.428  0.00  0.00    +0.000 A 
ATOM      9  C   UNL     1       3.000   4.039  19.371  0.00  0.00    +0.000 A 
BRANCH   4  11
ATOM     10  C   UNL     1       4.962   1.320  20.693  0.00  0.00    +0.000 C 
ATOM     11  O   UNL     1       4.722   2.712  20.626  0.00  0.00    +0.000 OA
ENDBRANCH   4  11
ENDBRANCH   1   9
BRANCH   2  12
ATOM     12  S   UNL     1       4.221   2.299  17.037  0.00  0.00    +0.000 S 
ATOM     13  H   UNL     1       3.281   2.044  17.950  0.00  0.00    +0.000 HD
ENDBRANCH   2  12
BRANCH   3  14
ATOM     14  C   UNL     1       5.317   6.160  16.513  0.00  0.00    +0.000 C 
BRANCH  14  15
ATOM     15  C   UNL     1       6.466   6.755  17.305  0.00  0.00    +0.000 A 
ATOM     16  C   UNL     1       6.891   8.067  17.054  0.00  0.00    +0.000 A 
ATOM     17  C   UNL     1       7.939   8.626  17.789  0.00  0.00    +0.000 A 
ATOM     18  C   UNL     1       8.573   7.881  18.780  0.00  0.00    +0.000 A 
ATOM     19  C   UNL     1       8.163   6.575  19.041  0.00  0.00    +0.000 A 
ATOM     20  C   UNL     1       7.111   6.016  18.311  0.00  0.00    +0.000 A 
ENDBRANCH  14  15
ENDBRANCH   3  14
BRANCH   3  21
ATOM     21  C   UNL     1       6.521   4.045  16.011  0.00  0.00    +0.000 C 
BRANCH  21  22
ATOM     22  C   UNL     1       6.717   4.302  14.520  0.00  0.00    +0.000 A 
ATOM     23  C   UNL     1       6.008   3.584  13.556  0.00  0.00    +0.000 A 
ATOM     24  C   UNL     1       6.275   3.797  12.206  0.00  0.00    +0.000 A 
ATOM     25  C   UNL     1       7.248   4.716  11.843  0.00  0.00    +0.000 A 
ATOM     26  C   UNL     1       7.909   5.392  12.852  0.00  0.00    +0.000 A 
ATOM     27  N   UNL     1       7.673   5.202  14.171  0.00  0.00    +0.000 NA
ENDBRANCH  21  22
ENDBRANCH   3  21
TORSDOF 7
ENDMDL
MODEL 2
REMARK VINA RESULT:      -6.9      2.762      7.225
REMARK  Name = 
REMARK  8 active torsions:
REMARK  status: ('A' for Active; 'I' for Inactive)
REMARK    1  A    between atoms: C_1  and  O_2
REMARK    2  A    between atoms: O_2  and  C_3
REMARK    3  A    between atoms: C_8  and  N_9
REMARK    4  A    between atoms: C_10  and  S_11
REMARK    5  A    between atoms: N_12  and  C_13
REMARK    6  A    between atoms: N_12  and  C_20
REMARK    7  A    between atoms: C_13  and  C_14
REMARK    8  A    between atoms: C_20  and  C_21
REMARK                            x       y       z     vdW  Elec       q    Type
REMARK                         _______ _______ _______ _____ _____    ______ ____
ROOT
ATOM      1  N   UNL     1       4.611   4.509  15.941  0.00  0.00    +0.000 NA
ATOM      2  C   UNL     1       4.283   5.565  16.638  0.00  0.00    +0.000 C 
ATOM      3  N   UNL     1       3.344   5.484  17.662  0.00  0.00    +0.000 N 
ENDROOT
BRANCH   1   9
ATOM      4  C   UNL     1       6.899   4.893  15.067  0.00  0.00    +0.000 A 
ATOM      5  C   UNL     1       7.812   4.806  14.001  0.00  0.00    +0.000 A 
ATOM      6  C   UNL     1       7.427   4.304  12.760  0.00  0.00    +0.000 A 
ATOM      7  C   UNL     1       6.137   3.820  12.596  0.00  0.00    +0.000 A 
ATOM      8  C   UNL     1       5.238   3.863  13.666  0.00  0.00    +0.000 A 
ATOM      9  C   UNL     1       5.563   4.462  14.896  0.00  0.00    +0.000 A 
BRANCH   4  11
ATOM     10  C   UNL     1       7.591   4.502  17.320  0.00  0.00    +0.000 C 
ATOM     11  O   UNL     1       7.510   5.362  16.199  0.00  0.00    +0.000 OA
ENDBRANCH   4  11
ENDBRANCH   1   9
BRANCH   2  12
ATOM     12  S   UNL     1       4.961   7.184  16.378  0.00  0.00    +0.000 S 
ATOM     13  H   UNL     1       4.135   7.846  17.191  0.00  0.00    +0.000 HD
ENDBRANCH   2  12
BRANCH   3  14
ATOM     14  C   UNL     1       2.416   4.349  17.745  0.00  0.00    +0.000 C 
BRANCH  14  15
ATOM     15  C   UNL     1       2.426   3.722  19.126  0.00  0.00    +0.000 A 
ATOM     16  C   UNL     1       1.340   3.904  19.993  0.00  0.00    +0.000 A 
ATOM     17  C   UNL     1       1.337   3.318  21.260  0.00  0.00    +0.000 A 
ATOM     18  C   UNL     1       2.418   2.545  21.676  0.00  0.00    +0.000 A 
ATOM     19  C   UNL     1       3.507   2.356  20.827  0.00  0.00    +0.000 A 
ATOM     20  C   UNL     1       3.509   2.936  19.556  0.00  0.00    +0.000 A 
ENDBRANCH  14  15
ENDBRANCH   3  14
BRANCH   3  21
ATOM     21  C   UNL     1       3.476   6.277  18.900  0.00  0.00    +0.000 C 
BRANCH  21  22
ATOM     22  C   UNL     1       2.481   7.430  19.005  0.00  0.00    +0.000 A 
ATOM     23  C   UNL     1       2.208   8.261  17.918  0.00  0.00    +0.000 A 
ATOM     24  C   UNL     1       1.353   9.347  18.080  0.00  0.00    +0.000 A 
ATOM     25  C   UNL     1       0.791   9.587  19.325  0.00  0.00    +0.000 A 
ATOM     26  C   UNL     1       1.103   8.721  20.355  0.00  0.00    +0.000 A 
ATOM     27  N   UNL     1       1.934   7.661  20.227  0.00  0.00    +0.000 NA
ENDBRANCH  21  22
ENDBRANCH   3  21
TORSDOF 7
ENDMDL
MODEL 3
REMARK VINA RESULT:      -6.7      2.965      7.312
REMARK  Name = 
REMARK  8 active torsions:
REMARK  status: ('A' for Active; 'I' for Inactive)
REMARK    1  A    between atoms: C_1  and  O_2
REMARK    2  A    between atoms: O_2  and  C_3
REMARK    3  A    between atoms: C_8  and  N_9
REMARK    4  A    between atoms: C_10  and  S_11
REMARK    5  A    between atoms: N_12  and  C_13
REMARK    6  A    between atoms: N_12  and  C_20
REMARK    7  A    between atoms: C_13  and  C_14
REMARK    8  A    between atoms: C_20  and  C_21
REMARK                            x       y       z     vdW  Elec       q    Type
REMARK                         _______ _______ _______ _____ _____    ______ ____
ROOT
ATOM      1  N   UNL     1       4.288   4.869  16.537  0.00  0.00    +0.000 NA
ATOM      2  C   UNL     1       3.945   5.960  17.171  0.00  0.00    +0.000 C 
ATOM      3  N   UNL     1       2.920   5.949  18.112  0.00  0.00    +0.000 N 
ENDROOT
BRANCH   1   9
ATOM      4  C   UNL     1       6.661   5.107  15.862  0.00  0.00    +0.000 A 
ATOM      5  C   UNL     1       7.656   4.950  14.880  0.00  0.00    +0.000 A 
ATOM      6  C   UNL     1       7.351   4.451  13.617  0.00  0.00    +0.000 A 
ATOM      7  C   UNL     1       6.055   4.039  13.346  0.00  0.00    +0.000 A 
ATOM      8  C   UNL     1       5.070   4.151  14.333  0.00  0.00    +0.000 A 
ATOM      9  C   UNL     1       5.322   4.751  15.580  0.00  0.00    +0.000 A 
BRANCH   4  11
ATOM     10  C   UNL     1       7.721   4.605  17.944  0.00  0.00    +0.000 C 
ATOM     11  O   UNL     1       7.199   5.559  17.038  0.00  0.00    +0.000 OA
ENDBRANCH   4  11
ENDBRANCH   1   9
BRANCH   2  12
ATOM     12  S   UNL     1       4.708   7.542  16.920  0.00  0.00    +0.000 S 
ATOM     13  H   UNL     1       4.123   8.176  17.939  0.00  0.00    +0.000 HD
ENDBRANCH   2  12
BRANCH   3  14
ATOM     14  C   UNL     1       1.943   4.855  18.150  0.00  0.00    +0.000 C 
BRANCH  14  15
ATOM     15  C   UNL     1       2.130   3.985  19.379  0.00  0.00    +0.000 A 
ATOM     16  C   UNL     1       3.332   3.293  19.579  0.00  0.00    +0.000 A 
ATOM     17  C   UNL     1       3.514   2.501  20.714  0.00  0.00    +0.000 A 
ATOM     18  C   UNL     1       2.499   2.391  21.661  0.00  0.00    +0.000 A 
ATOM     19  C   UNL     1       1.297   3.071  21.476  0.00  0.00    +0.000 A 
ATOM     20  C   UNL     1       1.115   3.869  20.344  0.00  0.00    +0.000 A 
ENDBRANCH  14  15
ENDBRANCH   3  14
BRANCH   3  21
ATOM     21  C   UNL     1       2.979   6.779  19.332  0.00  0.00    +0.000 C 
BRANCH  21  22
ATOM     22  C   UNL     1       1.975   7.929  19.347  0.00  0.00    +0.000 A 
ATOM     23  C   UNL     1       1.664   8.642  18.189  0.00  0.00    +0.000 A 
ATOM     24  C   UNL     1       0.802   9.733  18.264  0.00  0.00    +0.000 A 
ATOM     25  C   UNL     1       0.271  10.095  19.493  0.00  0.00    +0.000 A 
ATOM     26  C   UNL     1       0.621   9.340  20.597  0.00  0.00    +0.000 A 
ATOM     27  N   UNL     1       1.460   8.280  20.554  0.00  0.00    +0.000 NA
ENDBRANCH  21  22
ENDBRANCH   3  21
TORSDOF 7
ENDMDL
MODEL 4
REMARK VINA RESULT:      -6.7      4.736      7.408
REMARK  Name = 
REMARK  8 active torsions:
REMARK  status: ('A' for Active; 'I' for Inactive)
REMARK    1  A    between atoms: C_1  and  O_2
REMARK    2  A    between atoms: O_2  and  C_3
REMARK    3  A    between atoms: C_8  and  N_9
REMARK    4  A    between atoms: C_10  and  S_11
REMARK    5  A    between atoms: N_12  and  C_13
REMARK    6  A    between atoms: N_12  and  C_20
REMARK    7  A    between atoms: C_13  and  C_14
REMARK    8  A    between atoms: C_20  and  C_21
REMARK                            x       y       z     vdW  Elec       q    Type
REMARK                         _______ _______ _______ _____ _____    ______ ____
ROOT
ATOM      1  N   UNL     1       1.805   9.152  18.213  0.00  0.00    +0.000 NA
ATOM      2  C   UNL     1       1.842   8.245  19.154  0.00  0.00    +0.000 C 
ATOM      3  N   UNL     1       2.391   6.988  18.916  0.00  0.00    +0.000 N 
ENDROOT
BRANCH   1   9
ATOM      4  C   UNL     1      -0.091  10.738  18.392  0.00  0.00    +0.000 A 
ATOM      5  C   UNL     1      -0.546  12.061  18.540  0.00  0.00    +0.000 A 
ATOM      6  C   UNL     1       0.348  13.125  18.632  0.00  0.00    +0.000 A 
ATOM      7  C   UNL     1       1.710  12.867  18.644  0.00  0.00    +0.000 A 
ATOM      8  C   UNL     1       2.168  11.549  18.542  0.00  0.00    +0.000 A 
ATOM      9  C   UNL     1       1.295  10.465  18.340  0.00  0.00    +0.000 A 
BRANCH   4  11
ATOM     10  C   UNL     1      -2.089   9.964  17.336  0.00  0.00    +0.000 C 
ATOM     11  O   UNL     1      -1.140   9.858  18.380  0.00  0.00    +0.000 OA
ENDBRANCH   4  11
ENDBRANCH   1   9
BRANCH   2  12
ATOM     12  S   UNL     1       1.217   8.485  20.797  0.00  0.00    +0.000 S 
ATOM     13  H   UNL     1       1.765   7.399  21.347  0.00  0.00    +0.000 HD
ENDBRANCH   2  12
BRANCH   3  14
ATOM     14  C   UNL     1       2.581   6.496  17.547  0.00  0.00    +0.000 C 
BRANCH  14  15
ATOM     15  C   UNL     1       4.035   6.163  17.272  0.00  0.00    +0.000 A 
ATOM     16  C   UNL     1       4.406   4.859  16.915  0.00  0.00    +0.000 A 
ATOM     17  C   UNL     1       5.741   4.549  16.648  0.00  0.00    +0.000 A 
ATOM     18  C   UNL     1       6.719   5.536  16.734  0.00  0.00    +0.000 A 
ATOM     19  C   UNL     1       6.367   6.837  17.088  0.00  0.00    +0.000 A 
ATOM     20  C   UNL     1       5.031   7.151  17.351  0.00  0.00    +0.000 A 
ENDBRANCH  14  15
ENDBRANCH   3  14
BRANCH   3  21
ATOM     21  C   UNL     1       3.156   6.268  19.953  0.00  0.00    +0.000 C 
BRANCH  21  22
ATOM     22  C   UNL     1       2.668   4.844  20.204  0.00  0.00    +0.000 A 
ATOM     23  C   UNL     1       1.338   4.575  20.531  0.00  0.00    +0.000 A 
ATOM     24  C   UNL     1       0.954   3.270  20.828  0.00  0.00    +0.000 A 
ATOM     25  C   UNL     1       1.904   2.260  20.800  0.00  0.00    +0.000 A 
ATOM     26  C   UNL     1       3.202   2.600  20.466  0.00  0.00    +0.000 A 
ATOM     27  N   UNL     1       3.604   3.859  20.178  0.00  0.00    +0.000 NA
ENDBRANCH  21  22
ENDBRANCH   3  21
TORSDOF 7
ENDMDL
MODEL 5
REMARK VINA RESULT:      -6.6      1.773      4.690
REMARK  Name = 
REMARK  8 active torsions:
REMARK  status: ('A' for Active; 'I' for Inactive)
REMARK    1  A    between atoms: C_1  and  O_2
REMARK    2  A    between atoms: O_2  and  C_3
REMARK    3  A    between atoms: C_8  and  N_9
REMARK    4  A    between atoms: C_10  and  S_11
REMARK    5  A    between atoms: N_12  and  C_13
REMARK    6  A    between atoms: N_12  and  C_20
REMARK    7  A    between atoms: C_13  and  C_14
REMARK    8  A    between atoms: C_20  and  C_21
REMARK                            x       y       z     vdW  Elec       q    Type
REMARK                         _______ _______ _______ _____ _____    ______ ____
ROOT
ATOM      1  N   UNL     1       3.411   4.530  17.421  0.00  0.00    +0.000 NA
ATOM      2  C   UNL     1       4.565   3.925  17.319  0.00  0.00    +0.000 C 
ATOM      3  N   UNL     1       5.445   4.229  16.283  0.00  0.00    +0.000 N 
ENDROOT
BRANCH   1   9
ATOM      4  C   UNL     1       2.230   5.256  19.476  0.00  0.00    +0.000 A 
ATOM      5  C   UNL     1       1.245   5.011  20.449  0.00  0.00    +0.000 A 
ATOM      6  C   UNL     1       0.470   3.855  20.417  0.00  0.00    +0.000 A 
ATOM      7  C   UNL     1       0.629   2.962  19.368  0.00  0.00    +0.000 A 
ATOM      8  C   UNL     1       1.577   3.221  18.373  0.00  0.00    +0.000 A 
ATOM      9  C   UNL     1       2.448   4.324  18.435  0.00  0.00    +0.000 A 
BRANCH   4  11
ATOM     10  C   UNL     1       2.466   7.539  18.816  0.00  0.00    +0.000 C 
ATOM     11  O   UNL     1       2.824   6.473  19.675  0.00  0.00    +0.000 OA
ENDBRANCH   4  11
ENDBRANCH   1   9
BRANCH   2  12
ATOM     12  S   UNL     1       5.141   2.677  18.441  0.00  0.00    +0.000 S 
ATOM     13  H   UNL     1       4.576   1.630  17.835  0.00  0.00    +0.000 HD
ENDBRANCH   2  12
BRANCH   3  14
ATOM     14  C   UNL     1       4.977   4.921  15.077  0.00  0.00    +0.000 C 
BRANCH  14  15
ATOM     15  C   UNL     1       5.667   4.398  13.832  0.00  0.00    +0.000 A 
ATOM     16  C   UNL     1       5.068   3.391  13.062  0.00  0.00    +0.000 A 
ATOM     17  C   UNL     1       5.692   2.914  11.907  0.00  0.00    +0.000 A 
ATOM     18  C   UNL     1       6.920   3.437  11.509  0.00  0.00    +0.000 A 
ATOM     19  C   UNL     1       7.529   4.437  12.264  0.00  0.00    +0.000 A 
ATOM     20  C   UNL     1       6.904   4.919  13.417  0.00  0.00    +0.000 A 
ENDBRANCH  14  15
ENDBRANCH   3  14
BRANCH   3  21
ATOM     21  C   UNL     1       6.907   4.244  16.488  0.00  0.00    +0.000 C 
BRANCH  21  22
ATOM     22  C   UNL     1       7.413   5.471  17.240  0.00  0.00    +0.000 A 
ATOM     23  C   UNL     1       7.816   5.395  18.574  0.00  0.00    +0.000 A 
ATOM     24  C   UNL     1       8.197   6.554  19.244  0.00  0.00    +0.000 A 
ATOM     25  C   UNL     1       8.164   7.768  18.573  0.00  0.00    +0.000 A 
ATOM     26  C   UNL     1       7.757   7.767  17.252  0.00  0.00    +0.000 A 
ATOM     27  N   UNL     1       7.377   6.657  16.578  0.00  0.00    +0.000 NA
ENDBRANCH  21  22
ENDBRANCH   3  21
TORSDOF 7
ENDMDL
MODEL 6
REMARK VINA RESULT:      -6.6      2.422      4.571
REMARK  Name = 
REMARK  8 active torsions:
REMARK  status: ('A' for Active; 'I' for Inactive)
REMARK    1  A    between atoms: C_1  and  O_2
REMARK    2  A    between atoms: O_2  and  C_3
REMARK    3  A    between atoms: C_8  and  N_9
REMARK    4  A    between atoms: C_10  and  S_11
REMARK    5  A    between atoms: N_12  and  C_13
REMARK    6  A    between atoms: N_12  and  C_20
REMARK    7  A    between atoms: C_13  and  C_14
REMARK    8  A    between atoms: C_20  and  C_21
REMARK                            x       y       z     vdW  Elec       q    Type
REMARK                         _______ _______ _______ _____ _____    ______ ____
ROOT
ATOM      1  N   UNL     1       3.642   5.820  17.520  0.00  0.00    +0.000 NA
ATOM      2  C   UNL     1       4.927   5.599  17.612  0.00  0.00    +0.000 C 
ATOM      3  N   UNL     1       5.508   4.485  17.014  0.00  0.00    +0.000 N 
ENDROOT
BRANCH   1   9
ATOM      4  C   UNL     1       2.445   6.926  19.387  0.00  0.00    +0.000 A 
ATOM      5  C   UNL     1       1.775   8.058  19.886  0.00  0.00    +0.000 A 
ATOM      6  C   UNL     1       1.583   9.189  19.098  0.00  0.00    +0.000 A 
ATOM      7  C   UNL     1       2.120   9.224  17.820  0.00  0.00    +0.000 A 
ATOM      8  C   UNL     1       2.826   8.119  17.334  0.00  0.00    +0.000 A 
ATOM      9  C   UNL     1       2.944   6.923  18.064  0.00  0.00    +0.000 A 
BRANCH   4  11
ATOM     10  C   UNL     1       1.401   5.256  20.739  0.00  0.00    +0.000 C 
ATOM     11  O   UNL     1       2.565   5.962  20.352  0.00  0.00    +0.000 OA
ENDBRANCH   4  11
ENDBRANCH   1   9
BRANCH   2  12
ATOM     12  S   UNL     1       6.060   6.649  18.487  0.00  0.00    +0.000 S 
ATOM     13  H   UNL     1       5.151   7.449  19.048  0.00  0.00    +0.000 HD
ENDBRANCH   2  12
BRANCH   3  14
ATOM     14  C   UNL     1       4.690   3.336  16.608  0.00  0.00    +0.000 C 
BRANCH  14  15
ATOM     15  C   UNL     1       3.792   2.865  17.735  0.00  0.00    +0.000 A 
ATOM     16  C   UNL     1       4.307   2.701  19.028  0.00  0.00    +0.000 A 
ATOM     17  C   UNL     1       3.482   2.280  20.073  0.00  0.00    +0.000 A 
ATOM     18  C   UNL     1       2.134   2.019  19.839  0.00  0.00    +0.000 A 
ATOM     19  C   UNL     1       1.607   2.177  18.559  0.00  0.00    +0.000 A 
ATOM     20  C   UNL     1       2.429   2.603  17.513  0.00  0.00    +0.000 A 
ENDBRANCH  14  15
ENDBRANCH   3  14
BRANCH   3  21
ATOM     21  C   UNL     1       6.852   4.544  16.405  0.00  0.00    +0.000 C 
BRANCH  21  22
ATOM     22  C   UNL     1       6.841   4.524  14.880  0.00  0.00    +0.000 A 
ATOM     23  C   UNL     1       6.015   3.654  14.166  0.00  0.00    +0.000 A 
ATOM     24  C   UNL     1       6.094   3.615  12.777  0.00  0.00    +0.000 A 
ATOM     25  C   UNL     1       6.998   4.440  12.126  0.00  0.00    +0.000 A 
ATOM     26  C   UNL     1       7.782   5.278  12.896  0.00  0.00    +0.000 A 
ATOM     27  N   UNL     1       7.730   5.333  14.247  0.00  0.00    +0.000 NA
ENDBRANCH  21  22
ENDBRANCH   3  21
TORSDOF 7
ENDMDL
MODEL 7
REMARK VINA RESULT:      -6.5      4.134      6.065
REMARK  Name = 
REMARK  8 active torsions:
REMARK  status: ('A' for Active; 'I' for Inactive)
REMARK    1  A    between atoms: C_1  and  O_2
REMARK    2  A    between atoms: O_2  and  C_3
REMARK    3  A    between atoms: C_8  and  N_9
REMARK    4  A    between atoms: C_10  and  S_11
REMARK    5  A    between atoms: N_12  and  C_13
REMARK    6  A    between atoms: N_12  and  C_20
REMARK    7  A    between atoms: C_13  and  C_14
REMARK    8  A    between atoms: C_20  and  C_21
REMARK                            x       y       z     vdW  Elec       q    Type
REMARK                         _______ _______ _______ _____ _____    ______ ____
ROOT
ATOM      1  N   UNL     1       2.068   8.377  19.500  0.00  0.00    +0.000 NA
ATOM      2  C   UNL     1       2.356   7.106  19.603  0.00  0.00    +0.000 C 
ATOM      3  N   UNL     1       3.300   6.515  18.769  0.00  0.00    +0.000 N 
ENDROOT
BRANCH   1   9
ATOM      4  C   UNL     1       0.124   9.894  19.745  0.00  0.00    +0.000 A 
ATOM      5  C   UNL     1      -0.780  10.568  20.587  0.00  0.00    +0.000 A 
ATOM      6  C   UNL     1      -0.687  10.469  21.972  0.00  0.00    +0.000 A 
ATOM      7  C   UNL     1       0.273   9.637  22.530  0.00  0.00    +0.000 A 
ATOM      8  C   UNL     1       1.145   8.930  21.697  0.00  0.00    +0.000 A 
ATOM      9  C   UNL     1       1.147   9.092  20.300  0.00  0.00    +0.000 A 
BRANCH   4  11
ATOM     10  C   UNL     1      -1.546  10.336  18.095  0.00  0.00    +0.000 C 
ATOM     11  O   UNL     1      -0.193  10.091  18.428  0.00  0.00    +0.000 OA
ENDBRANCH   4  11
ENDBRANCH   1   9
BRANCH   2  12
ATOM     12  S   UNL     1       1.603   6.004  20.773  0.00  0.00    +0.000 S 
ATOM     13  H   UNL     1       0.894   5.287  19.898  0.00  0.00    +0.000 HD
ENDBRANCH   2  12
BRANCH   3  14
ATOM     14  C   UNL     1       3.712   7.163  17.519  0.00  0.00    +0.000 C 
BRANCH  14  15
ATOM     15  C   UNL     1       4.977   6.542  16.959  0.00  0.00    +0.000 A 
ATOM     16  C   UNL     1       6.225   6.863  17.510  0.00  0.00    +0.000 A 
ATOM     17  C   UNL     1       7.393   6.285  17.007  0.00  0.00    +0.000 A 
ATOM     18  C   UNL     1       7.327   5.379  15.952  0.00  0.00    +0.000 A 
ATOM     19  C   UNL     1       6.094   5.050  15.393  0.00  0.00    +0.000 A 
ATOM     20  C   UNL     1       4.924   5.624  15.897  0.00  0.00    +0.000 A 
ENDBRANCH  14  15
ENDBRANCH   3  14
BRANCH   3  21
ATOM     21  C   UNL     1       4.207   5.455  19.254  0.00  0.00    +0.000 C 
BRANCH  21  22
ATOM     22  C   UNL     1       3.765   4.044  18.878  0.00  0.00    +0.000 A 
ATOM     23  C   UNL     1       2.689   3.820  18.018  0.00  0.00    +0.000 A 
ATOM     24  C   UNL     1       2.272   2.516  17.763  0.00  0.00    +0.000 A 
ATOM     25  C   UNL     1       2.931   1.461  18.376  0.00  0.00    +0.000 A 
ATOM     26  C   UNL     1       3.990   1.758  19.214  0.00  0.00    +0.000 A 
ATOM     27  N   UNL     1       4.413   3.014  19.483  0.00  0.00    +0.000 NA
ENDBRANCH  21  22
ENDBRANCH   3  21
TORSDOF 7
ENDMDL
MODEL 8
REMARK VINA RESULT:      -6.5      4.442      6.584
REMARK  Name = 
REMARK  8 active torsions:
REMARK  status: ('A' for Active; 'I' for Inactive)
REMARK    1  A    between atoms: C_1  and  O_2
REMARK    2  A    between atoms: O_2  and  C_3
REMARK    3  A    between atoms: C_8  and  N_9
REMARK    4  A    between atoms: C_10  and  S_11
REMARK    5  A    between atoms: N_12  and  C_13
REMARK    6  A    between atoms: N_12  and  C_20
REMARK    7  A    between atoms: C_13  and  C_14
REMARK    8  A    between atoms: C_20  and  C_21
REMARK                            x       y       z     vdW  Elec       q    Type
REMARK                         _______ _______ _______ _____ _____    ______ ____
ROOT
ATOM      1  N   UNL     1       1.289   8.359  19.990  0.00  0.00    +0.000 NA
ATOM      2  C   UNL     1       2.059   8.076  18.973  0.00  0.00    +0.000 C 
ATOM      3  N   UNL     1       2.761   6.875  18.918  0.00  0.00    +0.000 N 
ENDROOT
BRANCH   1   9
ATOM      4  C   UNL     1       0.402  10.205  21.386  0.00  0.00    +0.000 A 
ATOM      5  C   UNL     1      -0.366  11.380  21.484  0.00  0.00    +0.000 A 
ATOM      6  C   UNL     1      -1.033  11.901  20.379  0.00  0.00    +0.000 A 
ATOM      7  C   UNL     1      -0.882  11.286  19.145  0.00  0.00    +0.000 A 
ATOM      8  C   UNL     1      -0.084  10.143  19.032  0.00  0.00    +0.000 A 
ATOM      9  C   UNL     1       0.514   9.532  20.148  0.00  0.00    +0.000 A 
BRANCH   4  11
ATOM     10  C   UNL     1       0.204   9.422  23.634  0.00  0.00    +0.000 C 
ATOM     11  O   UNL     1       1.008   9.914  22.579  0.00  0.00    +0.000 OA
ENDBRANCH   4  11
ENDBRANCH   1   9
BRANCH   2  12
ATOM     12  S   UNL     1       2.310   9.147  17.581  0.00  0.00    +0.000 S 
ATOM     13  H   UNL     1       1.048   9.568  17.461  0.00  0.00    +0.000 HD
ENDBRANCH   2  12
BRANCH   3  14
ATOM     14  C   UNL     1       2.981   6.075  20.128  0.00  0.00    +0.000 C 
BRANCH  14  15
ATOM     15  C   UNL     1       2.513   4.644  19.944  0.00  0.00    +0.000 A 
ATOM     16  C   UNL     1       3.446   3.612  19.776  0.00  0.00    +0.000 A 
ATOM     17  C   UNL     1       3.022   2.291  19.619  0.00  0.00    +0.000 A 
ATOM     18  C   UNL     1       1.663   1.986  19.627  0.00  0.00    +0.000 A 
ATOM     19  C   UNL     1       0.722   3.002  19.791  0.00  0.00    +0.000 A 
ATOM     20  C   UNL     1       1.145   4.323  19.954  0.00  0.00    +0.000 A 
ENDBRANCH  14  15
ENDBRANCH   3  14
BRANCH   3  21
ATOM     21  C   UNL     1       2.967   6.155  17.645  0.00  0.00    +0.000 C 
BRANCH  21  22
ATOM     22  C   UNL     1       4.434   5.985  17.262  0.00  0.00    +0.000 A 
ATOM     23  C   UNL     1       4.915   4.789  16.728  0.00  0.00    +0.000 A 
ATOM     24  C   UNL     1       6.276   4.651  16.465  0.00  0.00    +0.000 A 
ATOM     25  C   UNL     1       7.131   5.707  16.745  0.00  0.00    +0.000 A 
ATOM     26  C   UNL     1       6.583   6.862  17.271  0.00  0.00    +0.000 A 
ATOM     27  N   UNL     1       5.267   7.022  17.540  0.00  0.00    +0.000 NA
ENDBRANCH  21  22
ENDBRANCH   3  21
TORSDOF 7
ENDMDL
MODEL 9
REMARK VINA RESULT:      -6.5      4.753      7.256
REMARK  Name = 
REMARK  8 active torsions:
REMARK  status: ('A' for Active; 'I' for Inactive)
REMARK    1  A    between atoms: C_1  and  O_2
REMARK    2  A    between atoms: O_2  and  C_3
REMARK    3  A    between atoms: C_8  and  N_9
REMARK    4  A    between atoms: C_10  and  S_11
REMARK    5  A    between atoms: N_12  and  C_13
REMARK    6  A    between atoms: N_12  and  C_20
REMARK    7  A    between atoms: C_13  and  C_14
REMARK    8  A    between atoms: C_20  and  C_21
REMARK                            x       y       z     vdW  Elec       q    Type
REMARK                         _______ _______ _______ _____ _____    ______ ____
ROOT
ATOM      1  N   UNL     1       0.671   8.717  20.041  0.00  0.00    +0.000 NA
ATOM      2  C   UNL     1       1.647   8.331  19.263  0.00  0.00    +0.000 C 
ATOM      3  N   UNL     1       2.328   7.141  19.503  0.00  0.00    +0.000 N 
ENDROOT
BRANCH   1   9
ATOM      4  C   UNL     1      -0.296  10.816  20.937  0.00  0.00    +0.000 A 
ATOM      5  C   UNL     1      -1.062  11.977  20.725  0.00  0.00    +0.000 A 
ATOM      6  C   UNL     1      -1.649  12.238  19.490  0.00  0.00    +0.000 A 
ATOM      7  C   UNL     1      -1.420  11.370  18.433  0.00  0.00    +0.000 A 
ATOM      8  C   UNL     1      -0.624  10.237  18.626  0.00  0.00    +0.000 A 
ATOM      9  C   UNL     1      -0.106   9.889  19.887  0.00  0.00    +0.000 A 
BRANCH   4  11
ATOM     10  C   UNL     1      -0.432  10.021  23.186  0.00  0.00    +0.000 C 
ATOM     11  O   UNL     1       0.226  10.798  22.203  0.00  0.00    +0.000 OA
ENDBRANCH   4  11
ENDBRANCH   1   9
BRANCH   2  12
ATOM     12  S   UNL     1       2.218   9.242  17.851  0.00  0.00    +0.000 S 
ATOM     13  H   UNL     1       1.846   8.361  16.919  0.00  0.00    +0.000 HD
ENDBRANCH   2  12
BRANCH   3  14
ATOM     14  C   UNL     1       2.260   6.487  20.815  0.00  0.00    +0.000 C 
BRANCH  14  15
ATOM     15  C   UNL     1       1.940   5.010  20.684  0.00  0.00    +0.000 A 
ATOM     16  C   UNL     1       2.522   4.081  21.557  0.00  0.00    +0.000 A 
ATOM     17  C   UNL     1       2.221   2.721  21.451  0.00  0.00    +0.000 A 
ATOM     18  C   UNL     1       1.337   2.275  20.472  0.00  0.00    +0.000 A 
ATOM     19  C   UNL     1       0.750   3.186  19.595  0.00  0.00    +0.000 A 
ATOM     20  C   UNL     1       1.046   4.548  19.704  0.00  0.00    +0.000 A 
ENDBRANCH  14  15
ENDBRANCH   3  14
BRANCH   3  21
ATOM     21  C   UNL     1       2.807   6.286  18.399  0.00  0.00    +0.000 C 
BRANCH  21  22
ATOM     22  C   UNL     1       4.327   6.218  18.285  0.00  0.00    +0.000 A 
ATOM     23  C   UNL     1       5.008   6.834  17.233  0.00  0.00    +0.000 A 
ATOM     24  C   UNL     1       6.388   6.681  17.125  0.00  0.00    +0.000 A 
ATOM     25  C   UNL     1       7.061   5.913  18.063  0.00  0.00    +0.000 A 
ATOM     26  C   UNL     1       6.322   5.335  19.078  0.00  0.00    +0.000 A 
ATOM     27  N   UNL     1       4.981   5.463  19.205  0.00  0.00    +0.000 NA
ENDBRANCH  21  22
ENDBRANCH   3  21
TORSDOF 7
ENDMDL
