MODEL 1
REMARK VINA RESULT:      -8.4      0.000      0.000
REMARK  Name = 
REMARK  4 active torsions:
REMARK  status: ('A' for Active; 'I' for Inactive)
REMARK    1  A    between atoms: C_2  and  O_3
REMARK    2  A    between atoms: C_2  and  C_4
REMARK    3  A    between atoms: C_9  and  C_10
REMARK    4  A    between atoms: C_11  and  C_12
REMARK                            x       y       z     vdW  Elec       q    Type
REMARK                         _______ _______ _______ _____ _____    ______ ____
ROOT
ATOM      1  C   UNL     1       4.390   3.946  17.925  0.00  0.00    +0.000 A 
ATOM      2  C   UNL     1       3.934   4.865  16.979  0.00  0.00    +0.000 A 
ATOM      3  C   UNL     1       4.642   6.054  16.762  0.00  0.00    +0.000 A 
ATOM      4  C   UNL     1       5.807   6.347  17.460  0.00  0.00    +0.000 A 
ATOM      5  N   UNL     1       6.456   7.497  17.208  0.00  0.00    +0.000 NA
ATOM      6  C   UNL     1       7.598   7.758  17.884  0.00  0.00    +0.000 A 
ATOM      7  C   UNL     1       8.121   6.889  18.833  0.00  0.00    +0.000 A 
ATOM      8  C   UNL     1       7.448   5.703  19.097  0.00  0.00    +0.000 A 
ATOM      9  C   UNL     1       6.269   5.408  18.407  0.00  0.00    +0.000 A 
ATOM     10  C   UNL     1       5.566   4.210  18.632  0.00  0.00    +0.000 A 
ENDROOT
BRANCH   1  12
ATOM     11  O   UNL     1       2.476   2.550  17.748  0.00  0.00    +0.000 OA
ATOM     12  C   UNL     1       3.635   2.682  18.102  0.00  0.00    +0.000 C 
BRANCH  12  13
ATOM     13  O   UNL     1       4.336   1.710  18.723  0.00  0.00    +0.000 OA
ATOM     14  H   UNL     1       5.068   2.020  19.286  0.00  0.00    +0.000 HD
ENDBRANCH  12  13
ENDBRANCH   1  12
BRANCH   6  15
ATOM     15  C   UNL     1       8.306   9.011  17.583  0.00  0.00    +0.000 C 
ATOM     16  C   UNL     1       8.737   9.888  18.506  0.00  0.00    +0.000 C 
BRANCH  16  17
ATOM     17  C   UNL     1       9.441  11.139  18.179  0.00  0.00    +0.000 A 
ATOM     18  C   UNL     1      10.801  11.163  17.832  0.00  0.00    +0.000 A 
ATOM     19  C   UNL     1      11.442  12.365  17.521  0.00  0.00    +0.000 A 
ATOM     20  C   UNL     1      10.724  13.558  17.535  0.00  0.00    +0.000 A 
ATOM     21  C   UNL     1       9.367  13.540  17.852  0.00  0.00    +0.000 A 
ATOM     22 CL   UNL     1       8.478  15.015  17.855  0.00  0.00    +0.000 Cl
ATOM     23  C   UNL     1       8.724  12.342  18.167  0.00  0.00    +0.000 A 
ENDBRANCH  16  17
ENDBRANCH   6  15
TORSDOF 4
ENDMDL
MODEL 2
REMARK VINA RESULT:      -8.2      1.148      1.160
REMARK  Name = 
REMARK  4 active torsions:
REMARK  status: ('A' for Active; 'I' for Inactive)
REMARK    1  A    between atoms: C_2  and  O_3
REMARK    2  A    between atoms: C_2  and  C_4
REMARK    3  A    between atoms: C_9  and  C_10
REMARK    4  A    between atoms: C_11  and  C_12
REMARK                            x       y       z     vdW  Elec       q    Type
REMARK                         _______ _______ _______ _____ _____    ______ ____
ROOT
ATOM      1  C   UNL     1       4.376   4.159  17.547  0.00  0.00    +0.000 A 
ATOM      2  C   UNL     1       3.983   5.223  16.732  0.00  0.00    +0.000 A 
ATOM      3  C   UNL     1       4.756   6.390  16.685  0.00  0.00    +0.000 A 
ATOM      4  C   UNL     1       5.924   6.521  17.425  0.00  0.00    +0.000 A 
ATOM      5  N   UNL     1       6.636   7.658  17.337  0.00  0.00    +0.000 NA
ATOM      6  C   UNL     1       7.780   7.762  18.051  0.00  0.00    +0.000 A 
ATOM      7  C   UNL     1       8.243   6.745  18.876  0.00  0.00    +0.000 A 
ATOM      8  C   UNL     1       7.504   5.572  18.970  0.00  0.00    +0.000 A 
ATOM      9  C   UNL     1       6.322   5.439  18.238  0.00  0.00    +0.000 A 
ATOM     10  C   UNL     1       5.553   4.261  18.292  0.00  0.00    +0.000 A 
ENDROOT
BRANCH   1  12
ATOM     11  O   UNL     1       2.411   2.895  17.115  0.00  0.00    +0.000 OA
ATOM     12  C   UNL     1       3.552   2.926  17.543  0.00  0.00    +0.000 C 
BRANCH  12  13
ATOM     13  O   UNL     1       4.170   1.857  18.089  0.00  0.00    +0.000 OA
ATOM     14  H   UNL     1       4.212   1.853  19.062  0.00  0.00    +0.000 HD
ENDBRANCH  12  13
ENDBRANCH   1  12
BRANCH   6  15
ATOM     15  C   UNL     1       8.558   9.004  17.930  0.00  0.00    +0.000 C 
ATOM     16  C   UNL     1       8.962   9.759  18.966  0.00  0.00    +0.000 C 
BRANCH  16  17
ATOM     17  C   UNL     1       9.738  11.002  18.818  0.00  0.00    +0.000 A 
ATOM     18  C   UNL     1      10.408  11.328  17.628  0.00  0.00    +0.000 A 
ATOM     19  C   UNL     1      11.132  12.517  17.516  0.00  0.00    +0.000 A 
ATOM     20  C   UNL     1      11.180  13.406  18.587  0.00  0.00    +0.000 A 
ATOM     21  C   UNL     1      10.496  13.103  19.762  0.00  0.00    +0.000 A 
ATOM     22 CL   UNL     1      10.545  14.209  21.081  0.00  0.00    +0.000 Cl
ATOM     23  C   UNL     1       9.774  11.913  19.881  0.00  0.00    +0.000 A 
ENDBRANCH  16  17
ENDBRANCH   6  15
TORSDOF 4
ENDMDL
MODEL 3
REMARK VINA RESULT:      -8.0      1.317      1.579
REMARK  Name = 
REMARK  4 active torsions:
REMARK  status: ('A' for Active; 'I' for Inactive)
REMARK    1  A    between atoms: C_2  and  O_3
REMARK    2  A    between atoms: C_2  and  C_4
REMARK    3  A    between atoms: C_9  and  C_10
REMARK    4  A    between atoms: C_11  and  C_12
REMARK                            x       y       z     vdW  Elec       q    Type
REMARK                         _______ _______ _______ _____ _____    ______ ____
ROOT
ATOM      1  C   UNL     1       4.468   4.376  17.407  0.00  0.00    +0.000 A 
ATOM      2  C   UNL     1       4.147   5.448  16.573  0.00  0.00    +0.000 A 
ATOM      3  C   UNL     1       4.939   6.603  16.583  0.00  0.00    +0.000 A 
ATOM      4  C   UNL     1       6.058   6.714  17.398  0.00  0.00    +0.000 A 
ATOM      5  N   UNL     1       6.791   7.839  17.363  0.00  0.00    +0.000 NA
ATOM      6  C   UNL     1       7.888   7.922  18.151  0.00  0.00    +0.000 A 
ATOM      7  C   UNL     1       8.279   6.895  19.001  0.00  0.00    +0.000 A 
ATOM      8  C   UNL     1       7.518   5.734  19.040  0.00  0.00    +0.000 A 
ATOM      9  C   UNL     1       6.384   5.622  18.230  0.00  0.00    +0.000 A 
ATOM     10  C   UNL     1       5.595   4.456  18.228  0.00  0.00    +0.000 A 
ENDROOT
BRANCH   1  12
ATOM     11  O   UNL     1       4.033   2.056  17.677  0.00  0.00    +0.000 OA
ATOM     12  C   UNL     1       3.627   3.157  17.343  0.00  0.00    +0.000 C 
BRANCH  12  13
ATOM     13  O   UNL     1       2.389   3.373  16.851  0.00  0.00    +0.000 OA
ATOM     14  H   UNL     1       1.666   2.942  17.340  0.00  0.00    +0.000 HD
ENDBRANCH  12  13
ENDBRANCH   1  12
BRANCH   6  15
ATOM     15  C   UNL     1       8.691   9.153  18.088  0.00  0.00    +0.000 C 
ATOM     16  C   UNL     1       9.187   9.799  19.156  0.00  0.00    +0.000 C 
BRANCH  16  17
ATOM     17  C   UNL     1       9.986  11.033  19.066  0.00  0.00    +0.000 A 
ATOM     18  C   UNL     1      10.479  11.690  20.204  0.00  0.00    +0.000 A 
ATOM     19  C   UNL     1      11.239  12.857  20.087  0.00  0.00    +0.000 A 
ATOM     20  C   UNL     1      11.532  13.371  18.826  0.00  0.00    +0.000 A 
ATOM     21  C   UNL     1      11.070  12.710  17.691  0.00  0.00    +0.000 A 
ATOM     22 CL   UNL     1      11.445  13.340  16.132  0.00  0.00    +0.000 Cl
ATOM     23  C   UNL     1      10.306  11.547  17.803  0.00  0.00    +0.000 A 
ENDBRANCH  16  17
ENDBRANCH   6  15
TORSDOF 4
ENDMDL
MODEL 4
REMARK VINA RESULT:      -7.7      6.495      8.459
REMARK  Name = 
REMARK  4 active torsions:
REMARK  status: ('A' for Active; 'I' for Inactive)
REMARK    1  A    between atoms: C_2  and  O_3
REMARK    2  A    between atoms: C_2  and  C_4
REMARK    3  A    between atoms: C_9  and  C_10
REMARK    4  A    between atoms: C_11  and  C_12
REMARK                            x       y       z     vdW  Elec       q    Type
REMARK                         _______ _______ _______ _____ _____    ______ ____
ROOT
ATOM      1  C   UNL     1      -0.577  10.633  21.521  0.00  0.00    +0.000 A 
ATOM      2  C   UNL     1       0.052   9.679  22.323  0.00  0.00    +0.000 A 
ATOM      3  C   UNL     1       0.922   8.745  21.748  0.00  0.00    +0.000 A 
ATOM      4  C   UNL     1       1.193   8.744  20.386  0.00  0.00    +0.000 A 
ATOM      5  N   UNL     1       2.044   7.833  19.883  0.00  0.00    +0.000 NA
ATOM      6  C   UNL     1       2.310   7.857  18.557  0.00  0.00    +0.000 A 
ATOM      7  C   UNL     1       1.733   8.781  17.694  0.00  0.00    +0.000 A 
ATOM      8  C   UNL     1       0.850   9.719  18.213  0.00  0.00    +0.000 A 
ATOM      9  C   UNL     1       0.564   9.718  19.581  0.00  0.00    +0.000 A 
ATOM     10  C   UNL     1      -0.312  10.662  20.149  0.00  0.00    +0.000 A 
ENDROOT
BRANCH   1  12
ATOM     11  O   UNL     1      -1.658  11.654  23.374  0.00  0.00    +0.000 OA
ATOM     12  C   UNL     1      -1.464  11.628  22.171  0.00  0.00    +0.000 C 
BRANCH  12  13
ATOM     13  O   UNL     1      -2.060  12.474  21.304  0.00  0.00    +0.000 OA
ATOM     14  H   UNL     1      -1.571  13.296  21.121  0.00  0.00    +0.000 HD
ENDBRANCH  12  13
ENDBRANCH   1  12
BRANCH   6  15
ATOM     15  C   UNL     1       3.258   6.866  18.026  0.00  0.00    +0.000 C 
ATOM     16  C   UNL     1       4.490   7.152  17.571  0.00  0.00    +0.000 C 
BRANCH  16  17
ATOM     17  C   UNL     1       5.419   6.141  17.040  0.00  0.00    +0.000 A 
ATOM     18  C   UNL     1       6.510   5.664  17.783  0.00  0.00    +0.000 A 
ATOM     19  C   UNL     1       7.373   4.700  17.254  0.00  0.00    +0.000 A 
ATOM     20  C   UNL     1       7.143   4.187  15.980  0.00  0.00    +0.000 A 
ATOM     21  C   UNL     1       6.047   4.635  15.246  0.00  0.00    +0.000 A 
ATOM     22 CL   UNL     1       5.757   3.989  13.676  0.00  0.00    +0.000 Cl
ATOM     23  C   UNL     1       5.186   5.601  15.769  0.00  0.00    +0.000 A 
ENDBRANCH  16  17
ENDBRANCH   6  15
TORSDOF 4
ENDMDL
MODEL 5
REMARK VINA RESULT:      -7.7      1.567      2.198
REMARK  Name = 
REMARK  4 active torsions:
REMARK  status: ('A' for Active; 'I' for Inactive)
REMARK    1  A    between atoms: C_2  and  O_3
REMARK    2  A    between atoms: C_2  and  C_4
REMARK    3  A    between atoms: C_9  and  C_10
REMARK    4  A    between atoms: C_11  and  C_12
REMARK                            x       y       z     vdW  Elec       q    Type
REMARK                         _______ _______ _______ _____ _____    ______ ____
ROOT
ATOM      1  C   UNL     1       4.177   3.464  17.930  0.00  0.00    +0.000 A 
ATOM      2  C   UNL     1       4.446   3.752  19.270  0.00  0.00    +0.000 A 
ATOM      3  C   UNL     1       5.392   4.731  19.598  0.00  0.00    +0.000 A 
ATOM      4  C   UNL     1       6.073   5.445  18.621  0.00  0.00    +0.000 A 
ATOM      5  N   UNL     1       6.964   6.382  18.988  0.00  0.00    +0.000 NA
ATOM      6  C   UNL     1       7.606   7.079  18.023  0.00  0.00    +0.000 A 
ATOM      7  C   UNL     1       7.386   6.859  16.669  0.00  0.00    +0.000 A 
ATOM      8  C   UNL     1       6.469   5.887  16.289  0.00  0.00    +0.000 A 
ATOM      9  C   UNL     1       5.789   5.158  17.269  0.00  0.00    +0.000 A 
ATOM     10  C   UNL     1       4.840   4.176  16.927  0.00  0.00    +0.000 A 
ENDROOT
BRANCH   1  12
ATOM     11  O   UNL     1       3.284   1.264  17.879  0.00  0.00    +0.000 OA
ATOM     12  C   UNL     1       3.145   2.447  17.620  0.00  0.00    +0.000 C 
BRANCH  12  13
ATOM     13  O   UNL     1       2.057   2.948  16.996  0.00  0.00    +0.000 OA
ATOM     14  H   UNL     1       1.306   3.162  17.578  0.00  0.00    +0.000 HD
ENDBRANCH  12  13
ENDBRANCH   1  12
BRANCH   6  15
ATOM     15  C   UNL     1       8.563   8.114  18.441  0.00  0.00    +0.000 C 
ATOM     16  C   UNL     1       8.345   9.438  18.358  0.00  0.00    +0.000 C 
BRANCH  16  17
ATOM     17  C   UNL     1       9.322  10.455  18.780  0.00  0.00    +0.000 A 
ATOM     18  C   UNL     1       9.591  10.718  20.133  0.00  0.00    +0.000 A 
ATOM     19  C   UNL     1      10.527  11.686  20.503  0.00  0.00    +0.000 A 
ATOM     20  C   UNL     1      11.222  12.391  19.523  0.00  0.00    +0.000 A 
ATOM     21  C   UNL     1      10.981  12.117  18.179  0.00  0.00    +0.000 A 
ATOM     22 CL   UNL     1      11.851  12.981  16.969  0.00  0.00    +0.000 Cl
ATOM     23  C   UNL     1      10.043  11.154  17.804  0.00  0.00    +0.000 A 
ENDBRANCH  16  17
ENDBRANCH   6  15
TORSDOF 4
ENDMDL
MODEL 6
REMARK VINA RESULT:      -7.6      5.674      7.457
REMARK  Name = 
REMARK  4 active torsions:
REMARK  status: ('A' for Active; 'I' for Inactive)
REMARK    1  A    between atoms: C_2  and  O_3
REMARK    2  A    between atoms: C_2  and  C_4
REMARK    3  A    between atoms: C_9  and  C_10
REMARK    4  A    between atoms: C_11  and  C_12
REMARK                            x       y       z     vdW  Elec       q    Type
REMARK                         _______ _______ _______ _____ _____    ______ ____
ROOT
ATOM      1  C   UNL     1       5.590   5.152  15.719  0.00  0.00    +0.000 A 
ATOM      2  C   UNL     1       5.275   6.496  15.509  0.00  0.00    +0.000 A 
ATOM      3  C   UNL     1       4.437   7.166  16.409  0.00  0.00    +0.000 A 
ATOM      4  C   UNL     1       3.910   6.531  17.527  0.00  0.00    +0.000 A 
ATOM      5  N   UNL     1       3.119   7.221  18.366  0.00  0.00    +0.000 NA
ATOM      6  C   UNL     1       2.629   6.592  19.459  0.00  0.00    +0.000 A 
ATOM      7  C   UNL     1       2.905   5.260  19.743  0.00  0.00    +0.000 A 
ATOM      8  C   UNL     1       3.719   4.546  18.872  0.00  0.00    +0.000 A 
ATOM      9  C   UNL     1       4.242   5.176  17.740  0.00  0.00    +0.000 A 
ATOM     10  C   UNL     1       5.084   4.493  16.842  0.00  0.00    +0.000 A 
ENDROOT
BRANCH   1  12
ATOM     11  O   UNL     1       6.191   3.501  14.119  0.00  0.00    +0.000 OA
ATOM     12  C   UNL     1       6.508   4.486  14.765  0.00  0.00    +0.000 C 
BRANCH  12  13
ATOM     13  O   UNL     1       7.735   5.048  14.706  0.00  0.00    +0.000 OA
ATOM     14  H   UNL     1       8.438   4.474  14.354  0.00  0.00    +0.000 HD
ENDBRANCH  12  13
ENDBRANCH   1  12
BRANCH   6  15
ATOM     15  C   UNL     1       1.781   7.366  20.378  0.00  0.00    +0.000 C 
ATOM     16  C   UNL     1       1.408   8.642  20.184  0.00  0.00    +0.000 C 
BRANCH  16  17
ATOM     17  C   UNL     1       0.560   9.397  21.122  0.00  0.00    +0.000 A 
ATOM     18  C   UNL     1       0.391   9.004  22.460  0.00  0.00    +0.000 A 
ATOM     19  C   UNL     1      -0.416   9.743  23.328  0.00  0.00    +0.000 A 
ATOM     20  C   UNL     1      -1.052  10.896  22.873  0.00  0.00    +0.000 A 
ATOM     21  C   UNL     1      -0.868  11.308  21.555  0.00  0.00    +0.000 A 
ATOM     22 CL   UNL     1      -1.644  12.741  20.999  0.00  0.00    +0.000 Cl
ATOM     23  C   UNL     1      -0.066  10.570  20.683  0.00  0.00    +0.000 A 
ENDBRANCH  16  17
ENDBRANCH   6  15
TORSDOF 4
ENDMDL
MODEL 7
REMARK VINA RESULT:      -7.6      1.613      2.065
REMARK  Name = 
REMARK  4 active torsions:
REMARK  status: ('A' for Active; 'I' for Inactive)
REMARK    1  A    between atoms: C_2  and  O_3
REMARK    2  A    between atoms: C_2  and  C_4
REMARK    3  A    between atoms: C_9  and  C_10
REMARK    4  A    between atoms: C_11  and  C_12
REMARK                            x       y       z     vdW  Elec       q    Type
REMARK                         _______ _______ _______ _____ _____    ______ ____
ROOT
ATOM      1  C   UNL     1       4.221   3.279  17.993  0.00  0.00    +0.000 A 
ATOM      2  C   UNL     1       4.511   3.590  19.322  0.00  0.00    +0.000 A 
ATOM      3  C   UNL     1       5.432   4.603  19.618  0.00  0.00    +0.000 A 
ATOM      4  C   UNL     1       6.066   5.327  18.617  0.00  0.00    +0.000 A 
ATOM      5  N   UNL     1       6.934   6.297  18.953  0.00  0.00    +0.000 NA
ATOM      6  C   UNL     1       7.530   7.004  17.966  0.00  0.00    +0.000 A 
ATOM      7  C   UNL     1       7.287   6.761  16.620  0.00  0.00    +0.000 A 
ATOM      8  C   UNL     1       6.393   5.756  16.273  0.00  0.00    +0.000 A 
ATOM      9  C   UNL     1       5.761   5.016  17.275  0.00  0.00    +0.000 A 
ATOM     10  C   UNL     1       4.836   4.001  16.966  0.00  0.00    +0.000 A 
ENDROOT
BRANCH   1  12
ATOM     11  O   UNL     1       2.123   2.465  17.232  0.00  0.00    +0.000 OA
ATOM     12  C   UNL     1       3.215   2.225  17.718  0.00  0.00    +0.000 C 
BRANCH  12  13
ATOM     13  O   UNL     1       3.607   0.988  18.088  0.00  0.00    +0.000 OA
ATOM     14  H   UNL     1       4.369   0.629  17.599  0.00  0.00    +0.000 HD
ENDBRANCH  12  13
ENDBRANCH   1  12
BRANCH   6  15
ATOM     15  C   UNL     1       8.463   8.074  18.350  0.00  0.00    +0.000 C 
ATOM     16  C   UNL     1       8.244   9.386  18.159  0.00  0.00    +0.000 C 
BRANCH  16  17
ATOM     17  C   UNL     1       9.196  10.439  18.549  0.00  0.00    +0.000 A 
ATOM     18  C   UNL     1      10.154  10.950  17.659  0.00  0.00    +0.000 A 
ATOM     19  C   UNL     1      11.041  11.952  18.057  0.00  0.00    +0.000 A 
ATOM     20  C   UNL     1      10.970  12.471  19.347  0.00  0.00    +0.000 A 
ATOM     21  C   UNL     1      10.006  11.989  20.229  0.00  0.00    +0.000 A 
ATOM     22 CL   UNL     1       9.911  12.640  21.821  0.00  0.00    +0.000 Cl
ATOM     23  C   UNL     1       9.119  10.983  19.837  0.00  0.00    +0.000 A 
ENDBRANCH  16  17
ENDBRANCH   6  15
TORSDOF 4
ENDMDL
MODEL 8
REMARK VINA RESULT:      -7.6      7.420      9.426
REMARK  Name = 
REMARK  4 active torsions:
REMARK  status: ('A' for Active; 'I' for Inactive)
REMARK    1  A    between atoms: C_2  and  O_3
REMARK    2  A    between atoms: C_2  and  C_4
REMARK    3  A    between atoms: C_9  and  C_10
REMARK    4  A    between atoms: C_11  and  C_12
REMARK                            x       y       z     vdW  Elec       q    Type
REMARK                         _______ _______ _______ _____ _____    ______ ____
ROOT
ATOM      1  C   UNL     1      -0.950  11.523  22.420  0.00  0.00    +0.000 A 
ATOM      2  C   UNL     1      -0.662  10.356  23.130  0.00  0.00    +0.000 A 
ATOM      3  C   UNL     1       0.045   9.318  22.511  0.00  0.00    +0.000 A 
ATOM      4  C   UNL     1       0.486   9.417  21.198  0.00  0.00    +0.000 A 
ATOM      5  N   UNL     1       1.169   8.397  20.653  0.00  0.00    +0.000 NA
ATOM      6  C   UNL     1       1.606   8.517  19.378  0.00  0.00    +0.000 A 
ATOM      7  C   UNL     1       1.370   9.650  18.609  0.00  0.00    +0.000 A 
ATOM      8  C   UNL     1       0.659  10.703  19.172  0.00  0.00    +0.000 A 
ATOM      9  C   UNL     1       0.202  10.604  20.489  0.00  0.00    +0.000 A 
ATOM     10  C   UNL     1      -0.507  11.654  21.101  0.00  0.00    +0.000 A 
ENDROOT
BRANCH   1  12
ATOM     11  O   UNL     1      -1.115  13.633  23.501  0.00  0.00    +0.000 OA
ATOM     12  C   UNL     1      -1.668  12.616  23.119  0.00  0.00    +0.000 C 
BRANCH  12  13
ATOM     13  O   UNL     1      -2.979  12.363  23.323  0.00  0.00    +0.000 OA
ATOM     14  H   UNL     1      -3.369  12.796  24.103  0.00  0.00    +0.000 HD
ENDBRANCH  12  13
ENDBRANCH   1  12
BRANCH   6  15
ATOM     15  C   UNL     1       2.369   7.400  18.802  0.00  0.00    +0.000 C 
ATOM     16  C   UNL     1       3.229   7.509  17.774  0.00  0.00    +0.000 C 
BRANCH  16  17
ATOM     17  C   UNL     1       3.978   6.372  17.213  0.00  0.00    +0.000 A 
ATOM     18  C   UNL     1       5.025   6.548  16.293  0.00  0.00    +0.000 A 
ATOM     19  C   UNL     1       5.721   5.450  15.781  0.00  0.00    +0.000 A 
ATOM     20  C   UNL     1       5.392   4.163  16.197  0.00  0.00    +0.000 A 
ATOM     21  C   UNL     1       4.374   3.982  17.130  0.00  0.00    +0.000 A 
ATOM     22 CL   UNL     1       3.977   2.389  17.653  0.00  0.00    +0.000 Cl
ATOM     23  C   UNL     1       3.672   5.075  17.641  0.00  0.00    +0.000 A 
ENDBRANCH  16  17
ENDBRANCH   6  15
TORSDOF 4
ENDMDL
MODEL 9
REMARK VINA RESULT:      -7.5      6.849      9.007
REMARK  Name = 
REMARK  4 active torsions:
REMARK  status: ('A' for Active; 'I' for Inactive)
REMARK    1  A    between atoms: C_2  and  O_3
REMARK    2  A    between atoms: C_2  and  C_4
REMARK    3  A    between atoms: C_9  and  C_10
REMARK    4  A    between atoms: C_11  and  C_12
REMARK                            x       y       z     vdW  Elec       q    Type
REMARK                         _______ _______ _______ _____ _____    ______ ____
ROOT
ATOM      1  C   UNL     1      -0.605  11.178  22.198  0.00  0.00    +0.000 A 
ATOM      2  C   UNL     1      -0.344  10.004  22.907  0.00  0.00    +0.000 A 
ATOM      3  C   UNL     1       0.340   8.951  22.288  0.00  0.00    +0.000 A 
ATOM      4  C   UNL     1       0.786   9.042  20.976  0.00  0.00    +0.000 A 
ATOM      5  N   UNL     1       1.447   8.007  20.431  0.00  0.00    +0.000 NA
ATOM      6  C   UNL     1       1.889   8.119  19.157  0.00  0.00    +0.000 A 
ATOM      7  C   UNL     1       1.679   9.257  18.389  0.00  0.00    +0.000 A 
ATOM      8  C   UNL     1       0.990  10.325  18.952  0.00  0.00    +0.000 A 
ATOM      9  C   UNL     1       0.530  10.235  20.268  0.00  0.00    +0.000 A 
ATOM     10  C   UNL     1      -0.157  11.300  20.880  0.00  0.00    +0.000 A 
ENDROOT
BRANCH   1  12
ATOM     11  O   UNL     1      -2.514  12.343  23.000  0.00  0.00    +0.000 OA
ATOM     12  C   UNL     1      -1.301  12.285  22.897  0.00  0.00    +0.000 C 
BRANCH  12  13
ATOM     13  O   UNL     1      -0.470  13.236  23.373  0.00  0.00    +0.000 OA
ATOM     14  H   UNL     1      -0.708  13.598  24.246  0.00  0.00    +0.000 HD
ENDBRANCH  12  13
ENDBRANCH   1  12
BRANCH   6  15
ATOM     15  C   UNL     1       2.628   6.985  18.581  0.00  0.00    +0.000 C 
ATOM     16  C   UNL     1       3.579   7.092  17.637  0.00  0.00    +0.000 C 
BRANCH  16  17
ATOM     17  C   UNL     1       4.302   5.940  17.074  0.00  0.00    +0.000 A 
ATOM     18  C   UNL     1       4.038   4.621  17.476  0.00  0.00    +0.000 A 
ATOM     19  C   UNL     1       4.738   3.547  16.920  0.00  0.00    +0.000 A 
ATOM     20  C   UNL     1       5.699   3.778  15.938  0.00  0.00    +0.000 A 
ATOM     21  C   UNL     1       5.948   5.081  15.514  0.00  0.00    +0.000 A 
ATOM     22 CL   UNL     1       7.127   5.363  14.290  0.00  0.00    +0.000 Cl
ATOM     23  C   UNL     1       5.254   6.157  16.070  0.00  0.00    +0.000 A 
ENDBRANCH  16  17
ENDBRANCH   6  15
TORSDOF 4
ENDMDL
