MODEL 1
REMARK VINA RESULT:      -7.5      0.000      0.000
REMARK  Name = 
REMARK  12 active torsions:
REMARK  status: ('A' for Active; 'I' for Inactive)
REMARK    1  A    between atoms: C_1  and  C_2
REMARK    2  A    between atoms: C_2  and  C_3
REMARK    3  A    between atoms: C_2  and  C_4
REMARK    4  A    between atoms: C_6  and  C_7
REMARK    5  A    between atoms: C_9  and  C_10
REMARK    6  A    between atoms: C_10  and  O_11
REMARK    7  A    between atoms: C_10  and  C_12
REMARK    8  A    between atoms: C_12  and  O_13
REMARK    9  A    between atoms: C_12  and  C_14
REMARK   10  A    between atoms: C_14  and  O_15
REMARK   11  A    between atoms: C_14  and  C_16
REMARK   12  A    between atoms: C_16  and  O_17
REMARK                            x       y       z     vdW  Elec       q    Type
REMARK                         _______ _______ _______ _____ _____    ______ ____
ROOT
ATOM      1  C   UNL     1       5.343   5.121  17.323  0.00  0.00    +0.000 A 
ATOM      2  N   UNL     1       4.010   5.292  17.393  0.00  0.00    +0.000 NA
ATOM      3  C   UNL     1       3.742   5.320  18.709  0.00  0.00    +0.000 A 
ATOM      4  C   UNL     1       4.921   5.183  19.419  0.00  0.00    +0.000 A 
ATOM      5  N   UNL     1       5.927   5.058  18.537  0.00  0.00    +0.000 N 
ATOM      6  H   UNL     1       6.938   4.920  18.750  0.00  0.00    +0.000 HD
ENDROOT
BRANCH   1   9
ATOM      7  C   UNL     1       6.607   4.360  14.053  0.00  0.00    +0.000 A 
ATOM      8  C   UNL     1       5.642   4.176  15.014  0.00  0.00    +0.000 A 
ATOM      9  C   UNL     1       6.046   4.984  16.047  0.00  0.00    +0.000 A 
ATOM     10  N   UNL     1       7.188   5.613  15.713  0.00  0.00    +0.000 NA
ATOM     11  O   UNL     1       7.500   5.212  14.511  0.00  0.00    +0.000 OA
BRANCH   7  13
ATOM     12  C   UNL     1       5.222   3.399  12.205  0.00  0.00    +0.000 C 
ATOM     13  C   UNL     1       6.637   3.730  12.690  0.00  0.00    +0.000 C 
ATOM     14  C   UNL     1       7.345   4.672  11.713  0.00  0.00    +0.000 C 
ENDBRANCH   7  13
ENDBRANCH   1   9
BRANCH   3  15
ATOM     15  C   UNL     1       2.344   5.400  19.273  0.00  0.00    +0.000 C 
BRANCH  15  16
ATOM     16  O   UNL     1       2.401   5.631  20.662  0.00  0.00    +0.000 OA
ATOM     17  H   UNL     1       1.487   5.831  20.998  0.00  0.00    +0.000 HD
ENDBRANCH  15  16
BRANCH  15  18
ATOM     18  C   UNL     1       1.546   4.099  19.004  0.00  0.00    +0.000 C 
BRANCH  18  19
ATOM     19  O   UNL     1       1.395   3.883  17.617  0.00  0.00    +0.000 OA
ATOM     20  H   UNL     1       0.744   3.152  17.469  0.00  0.00    +0.000 HD
ENDBRANCH  18  19
BRANCH  18  21
ATOM     21  C   UNL     1       2.176   2.871  19.732  0.00  0.00    +0.000 C 
BRANCH  21  22
ATOM     22  O   UNL     1       2.195   1.739  18.887  0.00  0.00    +0.000 OA
ATOM     23  H   UNL     1       3.125   1.518  18.623  0.00  0.00    +0.000 HD
ENDBRANCH  21  22
BRANCH  21  24
ATOM     24  C   UNL     1       1.477   2.571  21.077  0.00  0.00    +0.000 C 
BRANCH  24  25
ATOM     25  O   UNL     1       2.201   3.097  22.157  0.00  0.00    +0.000 OA
ATOM     26  H   UNL     1       3.154   2.876  21.991  0.00  0.00    +0.000 HD
ENDBRANCH  24  25
ENDBRANCH  21  24
ENDBRANCH  18  21
ENDBRANCH  15  18
ENDBRANCH   3  15
TORSDOF 10
ENDMDL
MODEL 2
REMARK VINA RESULT:      -7.3      1.589      2.221
REMARK  Name = 
REMARK  12 active torsions:
REMARK  status: ('A' for Active; 'I' for Inactive)
REMARK    1  A    between atoms: C_1  and  C_2
REMARK    2  A    between atoms: C_2  and  C_3
REMARK    3  A    between atoms: C_2  and  C_4
REMARK    4  A    between atoms: C_6  and  C_7
REMARK    5  A    between atoms: C_9  and  C_10
REMARK    6  A    between atoms: C_10  and  O_11
REMARK    7  A    between atoms: C_10  and  C_12
REMARK    8  A    between atoms: C_12  and  O_13
REMARK    9  A    between atoms: C_12  and  C_14
REMARK   10  A    between atoms: C_14  and  O_15
REMARK   11  A    between atoms: C_14  and  C_16
REMARK   12  A    between atoms: C_16  and  O_17
REMARK                            x       y       z     vdW  Elec       q    Type
REMARK                         _______ _______ _______ _____ _____    ______ ____
ROOT
ATOM      1  C   UNL     1       6.558   4.761  16.267  0.00  0.00    +0.000 A 
ATOM      2  N   UNL     1       5.560   4.206  16.982  0.00  0.00    +0.000 NA
ATOM      3  C   UNL     1       5.832   4.539  18.255  0.00  0.00    +0.000 A 
ATOM      4  C   UNL     1       6.982   5.305  18.292  0.00  0.00    +0.000 A 
ATOM      5  N   UNL     1       7.434   5.441  17.034  0.00  0.00    +0.000 N 
ATOM      6  H   UNL     1       8.291   5.947  16.725  0.00  0.00    +0.000 HD
ENDROOT
BRANCH   1   9
ATOM      7  C   UNL     1       6.375   3.896  12.790  0.00  0.00    +0.000 A 
ATOM      8  C   UNL     1       5.912   3.721  14.073  0.00  0.00    +0.000 A 
ATOM      9  C   UNL     1       6.669   4.591  14.819  0.00  0.00    +0.000 A 
ATOM     10  N   UNL     1       7.531   5.244  14.019  0.00  0.00    +0.000 NA
ATOM     11  O   UNL     1       7.332   4.799  12.808  0.00  0.00    +0.000 OA
BRANCH   7  13
ATOM     12  C   UNL     1       6.357   1.756  11.496  0.00  0.00    +0.000 C 
ATOM     13  C   UNL     1       5.865   3.205  11.558  0.00  0.00    +0.000 C 
ATOM     14  C   UNL     1       4.336   3.266  11.542  0.00  0.00    +0.000 C 
ENDBRANCH   7  13
ENDBRANCH   1   9
BRANCH   3  15
ATOM     15  C   UNL     1       5.024   4.049  19.433  0.00  0.00    +0.000 C 
BRANCH  15  16
ATOM     16  O   UNL     1       5.179   2.655  19.571  0.00  0.00    +0.000 OA
ATOM     17  H   UNL     1       6.035   2.378  19.149  0.00  0.00    +0.000 HD
ENDBRANCH  15  16
BRANCH  15  18
ATOM     18  C   UNL     1       3.519   4.382  19.269  0.00  0.00    +0.000 C 
BRANCH  18  19
ATOM     19  O   UNL     1       3.336   5.424  18.335  0.00  0.00    +0.000 OA
ATOM     20  H   UNL     1       2.696   5.131  17.638  0.00  0.00    +0.000 HD
ENDBRANCH  18  19
BRANCH  18  21
ATOM     21  C   UNL     1       2.680   3.114  18.916  0.00  0.00    +0.000 C 
BRANCH  21  22
ATOM     22  O   UNL     1       2.845   2.763  17.557  0.00  0.00    +0.000 OA
ATOM     23  H   UNL     1       2.479   1.857  17.386  0.00  0.00    +0.000 HD
ENDBRANCH  21  22
BRANCH  21  24
ATOM     24  C   UNL     1       1.189   3.281  19.287  0.00  0.00    +0.000 C 
BRANCH  24  25
ATOM     25  O   UNL     1       0.996   4.382  20.135  0.00  0.00    +0.000 OA
ATOM     26  H   UNL     1       1.323   5.178  19.642  0.00  0.00    +0.000 HD
ENDBRANCH  24  25
ENDBRANCH  21  24
ENDBRANCH  18  21
ENDBRANCH  15  18
ENDBRANCH   3  15
TORSDOF 10
ENDMDL
MODEL 3
REMARK VINA RESULT:      -7.2      0.980      1.627
REMARK  Name = 
REMARK  12 active torsions:
REMARK  status: ('A' for Active; 'I' for Inactive)
REMARK    1  A    between atoms: C_1  and  C_2
REMARK    2  A    between atoms: C_2  and  C_3
REMARK    3  A    between atoms: C_2  and  C_4
REMARK    4  A    between atoms: C_6  and  C_7
REMARK    5  A    between atoms: C_9  and  C_10
REMARK    6  A    between atoms: C_10  and  O_11
REMARK    7  A    between atoms: C_10  and  C_12
REMARK    8  A    between atoms: C_12  and  O_13
REMARK    9  A    between atoms: C_12  and  C_14
REMARK   10  A    between atoms: C_14  and  O_15
REMARK   11  A    between atoms: C_14  and  C_16
REMARK   12  A    between atoms: C_16  and  O_17
REMARK                            x       y       z     vdW  Elec       q    Type
REMARK                         _______ _______ _______ _____ _____    ______ ____
ROOT
ATOM      1  C   UNL     1       5.635   4.718  17.228  0.00  0.00    +0.000 A 
ATOM      2  N   UNL     1       4.405   5.223  17.436  0.00  0.00    +0.000 NA
ATOM      3  C   UNL     1       4.142   4.951  18.725  0.00  0.00    +0.000 A 
ATOM      4  C   UNL     1       5.225   4.299  19.286  0.00  0.00    +0.000 A 
ATOM      5  N   UNL     1       6.163   4.156  18.334  0.00  0.00    +0.000 N 
ATOM      6  H   UNL     1       7.090   3.689  18.430  0.00  0.00    +0.000 HD
ENDROOT
BRANCH   1   9
ATOM      7  C   UNL     1       6.826   4.336  13.866  0.00  0.00    +0.000 A 
ATOM      8  C   UNL     1       5.949   3.957  14.854  0.00  0.00    +0.000 A 
ATOM      9  C   UNL     1       6.284   4.758  15.918  0.00  0.00    +0.000 A 
ATOM     10  N   UNL     1       7.303   5.566  15.575  0.00  0.00    +0.000 NA
ATOM     11  O   UNL     1       7.608   5.283  14.338  0.00  0.00    +0.000 OA
BRANCH   7  13
ATOM     12  C   UNL     1       5.507   3.268  12.029  0.00  0.00    +0.000 C 
ATOM     13  C   UNL     1       6.878   3.794  12.466  0.00  0.00    +0.000 C 
ATOM     14  C   UNL     1       7.374   4.888  11.519  0.00  0.00    +0.000 C 
ENDBRANCH   7  13
ENDBRANCH   1   9
BRANCH   3  15
ATOM     15  C   UNL     1       2.818   5.252  19.386  0.00  0.00    +0.000 C 
BRANCH  15  16
ATOM     16  O   UNL     1       2.874   6.513  20.014  0.00  0.00    +0.000 OA
ATOM     17  H   UNL     1       1.991   6.962  19.925  0.00  0.00    +0.000 HD
ENDBRANCH  15  16
BRANCH  15  18
ATOM     18  C   UNL     1       2.446   4.174  20.435  0.00  0.00    +0.000 C 
BRANCH  18  19
ATOM     19  O   UNL     1       2.502   4.707  21.740  0.00  0.00    +0.000 OA
ATOM     20  H   UNL     1       1.584   4.914  22.050  0.00  0.00    +0.000 HD
ENDBRANCH  18  19
BRANCH  18  21
ATOM     21  C   UNL     1       1.068   3.511  20.122  0.00  0.00    +0.000 C 
BRANCH  21  22
ATOM     22  O   UNL     1       0.624   2.734  21.215  0.00  0.00    +0.000 OA
ATOM     23  H   UNL     1       1.002   1.819  21.166  0.00  0.00    +0.000 HD
ENDBRANCH  21  22
BRANCH  21  24
ATOM     24  C   UNL     1       1.102   2.692  18.812  0.00  0.00    +0.000 C 
BRANCH  24  25
ATOM     25  O   UNL     1       2.100   1.707  18.853  0.00  0.00    +0.000 OA
ATOM     26  H   UNL     1       2.784   2.026  19.495  0.00  0.00    +0.000 HD
ENDBRANCH  24  25
ENDBRANCH  21  24
ENDBRANCH  18  21
ENDBRANCH  15  18
ENDBRANCH   3  15
TORSDOF 10
ENDMDL
MODEL 4
REMARK VINA RESULT:      -7.2      1.553      2.334
REMARK  Name = 
REMARK  12 active torsions:
REMARK  status: ('A' for Active; 'I' for Inactive)
REMARK    1  A    between atoms: C_1  and  C_2
REMARK    2  A    between atoms: C_2  and  C_3
REMARK    3  A    between atoms: C_2  and  C_4
REMARK    4  A    between atoms: C_6  and  C_7
REMARK    5  A    between atoms: C_9  and  C_10
REMARK    6  A    between atoms: C_10  and  O_11
REMARK    7  A    between atoms: C_10  and  C_12
REMARK    8  A    between atoms: C_12  and  O_13
REMARK    9  A    between atoms: C_12  and  C_14
REMARK   10  A    between atoms: C_14  and  O_15
REMARK   11  A    between atoms: C_14  and  C_16
REMARK   12  A    between atoms: C_16  and  O_17
REMARK                            x       y       z     vdW  Elec       q    Type
REMARK                         _______ _______ _______ _____ _____    ______ ____
ROOT
ATOM      1  C   UNL     1       6.525   4.590  16.346  0.00  0.00    +0.000 A 
ATOM      2  N   UNL     1       5.437   4.135  16.996  0.00  0.00    +0.000 NA
ATOM      3  C   UNL     1       5.704   4.353  18.294  0.00  0.00    +0.000 A 
ATOM      4  C   UNL     1       6.944   4.953  18.412  0.00  0.00    +0.000 A 
ATOM      5  N   UNL     1       7.456   5.100  17.179  0.00  0.00    +0.000 N 
ATOM      6  H   UNL     1       8.383   5.502  16.926  0.00  0.00    +0.000 HD
ENDROOT
BRANCH   1   9
ATOM      7  C   UNL     1       6.428   3.881  12.831  0.00  0.00    +0.000 A 
ATOM      8  C   UNL     1       5.951   3.632  14.096  0.00  0.00    +0.000 A 
ATOM      9  C   UNL     1       6.665   4.491  14.894  0.00  0.00    +0.000 A 
ATOM     10  N   UNL     1       7.516   5.210  14.140  0.00  0.00    +0.000 NA
ATOM     11  O   UNL     1       7.352   4.815  12.907  0.00  0.00    +0.000 OA
BRANCH   7  13
ATOM     12  C   UNL     1       6.474   1.791  11.458  0.00  0.00    +0.000 C 
ATOM     13  C   UNL     1       5.962   3.232  11.560  0.00  0.00    +0.000 C 
ATOM     14  C   UNL     1       4.433   3.275  11.501  0.00  0.00    +0.000 C 
ENDBRANCH   7  13
ENDBRANCH   1   9
BRANCH   3  15
ATOM     15  C   UNL     1       4.795   3.909  19.416  0.00  0.00    +0.000 C 
BRANCH  15  16
ATOM     16  O   UNL     1       5.185   2.633  19.869  0.00  0.00    +0.000 OA
ATOM     17  H   UNL     1       5.675   2.727  20.729  0.00  0.00    +0.000 HD
ENDBRANCH  15  16
BRANCH  15  18
ATOM     18  C   UNL     1       3.314   3.860  18.964  0.00  0.00    +0.000 C 
BRANCH  18  19
ATOM     19  O   UNL     1       2.835   2.532  18.967  0.00  0.00    +0.000 OA
ATOM     20  H   UNL     1       1.969   2.498  19.448  0.00  0.00    +0.000 HD
ENDBRANCH  18  19
BRANCH  18  21
ATOM     21  C   UNL     1       2.418   4.818  19.808  0.00  0.00    +0.000 C 
BRANCH  21  22
ATOM     22  O   UNL     1       3.153   5.944  20.242  0.00  0.00    +0.000 OA
ATOM     23  H   UNL     1       3.845   5.674  20.899  0.00  0.00    +0.000 HD
ENDBRANCH  21  22
BRANCH  21  24
ATOM     24  C   UNL     1       1.738   4.089  20.989  0.00  0.00    +0.000 C 
BRANCH  24  25
ATOM     25  O   UNL     1       0.635   3.337  20.557  0.00  0.00    +0.000 OA
ATOM     26  H   UNL     1       0.447   2.677  21.272  0.00  0.00    +0.000 HD
ENDBRANCH  24  25
ENDBRANCH  21  24
ENDBRANCH  18  21
ENDBRANCH  15  18
ENDBRANCH   3  15
TORSDOF 10
ENDMDL
MODEL 5
REMARK VINA RESULT:      -7.2      1.331      2.030
REMARK  Name = 
REMARK  12 active torsions:
REMARK  status: ('A' for Active; 'I' for Inactive)
REMARK    1  A    between atoms: C_1  and  C_2
REMARK    2  A    between atoms: C_2  and  C_3
REMARK    3  A    between atoms: C_2  and  C_4
REMARK    4  A    between atoms: C_6  and  C_7
REMARK    5  A    between atoms: C_9  and  C_10
REMARK    6  A    between atoms: C_10  and  O_11
REMARK    7  A    between atoms: C_10  and  C_12
REMARK    8  A    between atoms: C_12  and  O_13
REMARK    9  A    between atoms: C_12  and  C_14
REMARK   10  A    between atoms: C_14  and  O_15
REMARK   11  A    between atoms: C_14  and  C_16
REMARK   12  A    between atoms: C_16  and  O_17
REMARK                            x       y       z     vdW  Elec       q    Type
REMARK                         _______ _______ _______ _____ _____    ______ ____
ROOT
ATOM      1  C   UNL     1       6.226   4.781  16.675  0.00  0.00    +0.000 A 
ATOM      2  N   UNL     1       5.291   3.989  17.232  0.00  0.00    +0.000 NA
ATOM      3  C   UNL     1       5.342   4.277  18.543  0.00  0.00    +0.000 A 
ATOM      4  C   UNL     1       6.298   5.253  18.761  0.00  0.00    +0.000 A 
ATOM      5  N   UNL     1       6.851   5.566  17.577  0.00  0.00    +0.000 N 
ATOM      6  H   UNL     1       7.615   6.253  17.401  0.00  0.00    +0.000 HD
ENDROOT
BRANCH   1   9
ATOM      7  C   UNL     1       6.520   4.232  13.142  0.00  0.00    +0.000 A 
ATOM      8  C   UNL     1       5.890   3.944  14.330  0.00  0.00    +0.000 A 
ATOM      9  C   UNL     1       6.532   4.741  15.245  0.00  0.00    +0.000 A 
ATOM     10  N   UNL     1       7.488   5.460  14.631  0.00  0.00    +0.000 NA
ATOM     11  O   UNL     1       7.457   5.127  13.369  0.00  0.00    +0.000 OA
BRANCH   7  13
ATOM     12  C   UNL     1       7.086   2.459  11.471  0.00  0.00    +0.000 C 
ATOM     13  C   UNL     1       6.186   3.656  11.796  0.00  0.00    +0.000 C 
ATOM     14  C   UNL     1       4.710   3.254  11.770  0.00  0.00    +0.000 C 
ENDBRANCH   7  13
ENDBRANCH   1   9
BRANCH   3  15
ATOM     15  C   UNL     1       4.525   3.553  19.587  0.00  0.00    +0.000 C 
BRANCH  15  16
ATOM     16  O   UNL     1       4.406   2.192  19.239  0.00  0.00    +0.000 OA
ATOM     17  H   UNL     1       4.992   1.651  19.833  0.00  0.00    +0.000 HD
ENDBRANCH  15  16
BRANCH  15  18
ATOM     18  C   UNL     1       3.111   4.169  19.731  0.00  0.00    +0.000 C 
BRANCH  18  19
ATOM     19  O   UNL     1       2.502   4.323  18.467  0.00  0.00    +0.000 OA
ATOM     20  H   UNL     1       2.306   5.282  18.312  0.00  0.00    +0.000 HD
ENDBRANCH  18  19
BRANCH  18  21
ATOM     21  C   UNL     1       2.223   3.356  20.724  0.00  0.00    +0.000 C 
BRANCH  21  22
ATOM     22  O   UNL     1       3.014   2.504  21.527  0.00  0.00    +0.000 OA
ATOM     23  H   UNL     1       3.563   1.904  20.959  0.00  0.00    +0.000 HD
ENDBRANCH  21  22
BRANCH  21  24
ATOM     24  C   UNL     1       1.101   2.578  19.998  0.00  0.00    +0.000 C 
BRANCH  24  25
ATOM     25  O   UNL     1       1.629   1.692  19.047  0.00  0.00    +0.000 OA
ATOM     26  H   UNL     1       2.581   1.555  19.287  0.00  0.00    +0.000 HD
ENDBRANCH  24  25
ENDBRANCH  21  24
ENDBRANCH  18  21
ENDBRANCH  15  18
ENDBRANCH   3  15
TORSDOF 10
ENDMDL
MODEL 6
REMARK VINA RESULT:      -7.2      1.318      1.793
REMARK  Name = 
REMARK  12 active torsions:
REMARK  status: ('A' for Active; 'I' for Inactive)
REMARK    1  A    between atoms: C_1  and  C_2
REMARK    2  A    between atoms: C_2  and  C_3
REMARK    3  A    between atoms: C_2  and  C_4
REMARK    4  A    between atoms: C_6  and  C_7
REMARK    5  A    between atoms: C_9  and  C_10
REMARK    6  A    between atoms: C_10  and  O_11
REMARK    7  A    between atoms: C_10  and  C_12
REMARK    8  A    between atoms: C_12  and  O_13
REMARK    9  A    between atoms: C_12  and  C_14
REMARK   10  A    between atoms: C_14  and  O_15
REMARK   11  A    between atoms: C_14  and  C_16
REMARK   12  A    between atoms: C_16  and  O_17
REMARK                            x       y       z     vdW  Elec       q    Type
REMARK                         _______ _______ _______ _____ _____    ______ ____
ROOT
ATOM      1  C   UNL     1       5.914   4.596  17.199  0.00  0.00    +0.000 A 
ATOM      2  N   UNL     1       5.091   3.633  17.656  0.00  0.00    +0.000 NA
ATOM      3  C   UNL     1       4.978   3.882  18.971  0.00  0.00    +0.000 A 
ATOM      4  C   UNL     1       5.722   5.003  19.291  0.00  0.00    +0.000 A 
ATOM      5  N   UNL     1       6.309   5.448  18.168  0.00  0.00    +0.000 N 
ATOM      6  H   UNL     1       6.950   6.264  18.074  0.00  0.00    +0.000 HD
ENDROOT
BRANCH   1   9
ATOM      7  C   UNL     1       6.625   4.209  13.704  0.00  0.00    +0.000 A 
ATOM      8  C   UNL     1       5.972   3.763  14.830  0.00  0.00    +0.000 A 
ATOM      9  C   UNL     1       6.344   4.658  15.803  0.00  0.00    +0.000 A 
ATOM     10  N   UNL     1       7.170   5.582  15.280  0.00  0.00    +0.000 NA
ATOM     11  O   UNL     1       7.322   5.280  14.019  0.00  0.00    +0.000 OA
BRANCH   7  13
ATOM     12  C   UNL     1       5.085   3.374  11.919  0.00  0.00    +0.000 C 
ATOM     13  C   UNL     1       6.542   3.608  12.331  0.00  0.00    +0.000 C 
ATOM     14  C   UNL     1       7.253   4.526  11.334  0.00  0.00    +0.000 C 
ENDBRANCH   7  13
ENDBRANCH   1   9
BRANCH   3  15
ATOM     15  C   UNL     1       4.217   2.990  19.924  0.00  0.00    +0.000 C 
BRANCH  15  16
ATOM     16  O   UNL     1       4.923   1.786  20.117  0.00  0.00    +0.000 OA
ATOM     17  H   UNL     1       4.919   1.557  21.085  0.00  0.00    +0.000 HD
ENDBRANCH  15  16
BRANCH  15  18
ATOM     18  C   UNL     1       2.797   2.670  19.392  0.00  0.00    +0.000 C 
BRANCH  18  19
ATOM     19  O   UNL     1       2.800   1.470  18.649  0.00  0.00    +0.000 OA
ATOM     20  H   UNL     1       2.530   1.662  17.716  0.00  0.00    +0.000 HD
ENDBRANCH  18  19
BRANCH  18  21
ATOM     21  C   UNL     1       1.738   2.656  20.539  0.00  0.00    +0.000 C 
BRANCH  21  22
ATOM     22  O   UNL     1       0.453   2.970  20.042  0.00  0.00    +0.000 OA
ATOM     23  H   UNL     1      -0.208   2.995  20.781  0.00  0.00    +0.000 HD
ENDBRANCH  21  22
BRANCH  21  24
ATOM     24  C   UNL     1       2.139   3.580  21.711  0.00  0.00    +0.000 C 
BRANCH  24  25
ATOM     25  O   UNL     1       2.144   4.927  21.321  0.00  0.00    +0.000 OA
ATOM     26  H   UNL     1       1.397   5.036  20.678  0.00  0.00    +0.000 HD
ENDBRANCH  24  25
ENDBRANCH  21  24
ENDBRANCH  18  21
ENDBRANCH  15  18
ENDBRANCH   3  15
TORSDOF 10
ENDMDL
MODEL 7
REMARK VINA RESULT:      -7.2      0.896      1.160
REMARK  Name = 
REMARK  12 active torsions:
REMARK  status: ('A' for Active; 'I' for Inactive)
REMARK    1  A    between atoms: C_1  and  C_2
REMARK    2  A    between atoms: C_2  and  C_3
REMARK    3  A    between atoms: C_2  and  C_4
REMARK    4  A    between atoms: C_6  and  C_7
REMARK    5  A    between atoms: C_9  and  C_10
REMARK    6  A    between atoms: C_10  and  O_11
REMARK    7  A    between atoms: C_10  and  C_12
REMARK    8  A    between atoms: C_12  and  O_13
REMARK    9  A    between atoms: C_12  and  C_14
REMARK   10  A    between atoms: C_14  and  O_15
REMARK   11  A    between atoms: C_14  and  C_16
REMARK   12  A    between atoms: C_16  and  O_17
REMARK                            x       y       z     vdW  Elec       q    Type
REMARK                         _______ _______ _______ _____ _____    ______ ____
ROOT
ATOM      1  C   UNL     1       5.639   5.135  17.176  0.00  0.00    +0.000 A 
ATOM      2  N   UNL     1       4.314   4.983  17.363  0.00  0.00    +0.000 NA
ATOM      3  C   UNL     1       4.144   5.104  18.690  0.00  0.00    +0.000 A 
ATOM      4  C   UNL     1       5.368   5.343  19.288  0.00  0.00    +0.000 A 
ATOM      5  N   UNL     1       6.306   5.362  18.327  0.00  0.00    +0.000 N 
ATOM      6  H   UNL     1       7.331   5.501  18.450  0.00  0.00    +0.000 HD
ENDROOT
BRANCH   1   9
ATOM      7  C   UNL     1       6.730   4.388  13.842  0.00  0.00    +0.000 A 
ATOM      8  C   UNL     1       5.855   4.151  14.875  0.00  0.00    +0.000 A 
ATOM      9  C   UNL     1       6.259   5.021  15.857  0.00  0.00    +0.000 A 
ATOM     10  N   UNL     1       7.316   5.734  15.426  0.00  0.00    +0.000 NA
ATOM     11  O   UNL     1       7.576   5.326  14.214  0.00  0.00    +0.000 OA
BRANCH   7  13
ATOM     12  C   UNL     1       5.295   3.331  12.087  0.00  0.00    +0.000 C 
ATOM     13  C   UNL     1       6.719   3.723  12.495  0.00  0.00    +0.000 C 
ATOM     14  C   UNL     1       7.346   4.663  11.463  0.00  0.00    +0.000 C 
ENDBRANCH   7  13
ENDBRANCH   1   9
BRANCH   3  15
ATOM     15  C   UNL     1       2.815   4.908  19.380  0.00  0.00    +0.000 C 
BRANCH  15  16
ATOM     16  O   UNL     1       2.905   5.335  20.720  0.00  0.00    +0.000 OA
ATOM     17  H   UNL     1       2.559   4.618  21.315  0.00  0.00    +0.000 HD
ENDBRANCH  15  16
BRANCH  15  18
ATOM     18  C   UNL     1       2.368   3.425  19.345  0.00  0.00    +0.000 C 
BRANCH  18  19
ATOM     19  O   UNL     1       3.447   2.570  19.655  0.00  0.00    +0.000 OA
ATOM     20  H   UNL     1       3.418   1.777  19.062  0.00  0.00    +0.000 HD
ENDBRANCH  18  19
BRANCH  18  21
ATOM     21  C   UNL     1       1.128   3.172  20.258  0.00  0.00    +0.000 C 
BRANCH  21  22
ATOM     22  O   UNL     1       0.425   4.374  20.499  0.00  0.00    +0.000 OA
ATOM     23  H   UNL     1       0.329   4.893  19.660  0.00  0.00    +0.000 HD
ENDBRANCH  21  22
BRANCH  21  24
ATOM     24  C   UNL     1       1.512   2.459  21.575  0.00  0.00    +0.000 C 
BRANCH  24  25
ATOM     25  O   UNL     1       2.329   3.271  22.375  0.00  0.00    +0.000 OA
ATOM     26  H   UNL     1       2.787   2.668  23.014  0.00  0.00    +0.000 HD
ENDBRANCH  24  25
ENDBRANCH  21  24
ENDBRANCH  18  21
ENDBRANCH  15  18
ENDBRANCH   3  15
TORSDOF 10
ENDMDL
MODEL 8
REMARK VINA RESULT:      -7.1      1.000      1.556
REMARK  Name = 
REMARK  12 active torsions:
REMARK  status: ('A' for Active; 'I' for Inactive)
REMARK    1  A    between atoms: C_1  and  C_2
REMARK    2  A    between atoms: C_2  and  C_3
REMARK    3  A    between atoms: C_2  and  C_4
REMARK    4  A    between atoms: C_6  and  C_7
REMARK    5  A    between atoms: C_9  and  C_10
REMARK    6  A    between atoms: C_10  and  O_11
REMARK    7  A    between atoms: C_10  and  C_12
REMARK    8  A    between atoms: C_12  and  O_13
REMARK    9  A    between atoms: C_12  and  C_14
REMARK   10  A    between atoms: C_14  and  O_15
REMARK   11  A    between atoms: C_14  and  C_16
REMARK   12  A    between atoms: C_16  and  O_17
REMARK                            x       y       z     vdW  Elec       q    Type
REMARK                         _______ _______ _______ _____ _____    ______ ____
ROOT
ATOM      1  C   UNL     1       5.755   4.980  17.277  0.00  0.00    +0.000 A 
ATOM      2  N   UNL     1       4.452   4.769  17.545  0.00  0.00    +0.000 NA
ATOM      3  C   UNL     1       4.360   4.883  18.880  0.00  0.00    +0.000 A 
ATOM      4  C   UNL     1       5.606   5.179  19.402  0.00  0.00    +0.000 A 
ATOM      5  N   UNL     1       6.480   5.239  18.384  0.00  0.00    +0.000 N 
ATOM      6  H   UNL     1       7.504   5.424  18.444  0.00  0.00    +0.000 HD
ENDROOT
BRANCH   1   9
ATOM      7  C   UNL     1       6.659   4.291  13.875  0.00  0.00    +0.000 A 
ATOM      8  C   UNL     1       5.853   4.023  14.956  0.00  0.00    +0.000 A 
ATOM      9  C   UNL     1       6.297   4.893  15.921  0.00  0.00    +0.000 A 
ATOM     10  N   UNL     1       7.309   5.634  15.436  0.00  0.00    +0.000 NA
ATOM     11  O   UNL     1       7.505   5.243  14.206  0.00  0.00    +0.000 OA
BRANCH   7  13
ATOM     12  C   UNL     1       5.125   3.458  12.083  0.00  0.00    +0.000 C 
ATOM     13  C   UNL     1       6.582   3.638  12.524  0.00  0.00    +0.000 C 
ATOM     14  C   UNL     1       7.361   4.480  11.511  0.00  0.00    +0.000 C 
ENDBRANCH   7  13
ENDBRANCH   1   9
BRANCH   3  15
ATOM     15  C   UNL     1       3.086   4.628  19.650  0.00  0.00    +0.000 C 
BRANCH  15  16
ATOM     16  O   UNL     1       2.939   5.597  20.663  0.00  0.00    +0.000 OA
ATOM     17  H   UNL     1       3.316   5.243  21.512  0.00  0.00    +0.000 HD
ENDBRANCH  15  16
BRANCH  15  18
ATOM     18  C   UNL     1       3.079   3.217  20.290  0.00  0.00    +0.000 C 
BRANCH  18  19
ATOM     19  O   UNL     1       2.188   3.167  21.383  0.00  0.00    +0.000 OA
ATOM     20  H   UNL     1       2.545   3.723  22.122  0.00  0.00    +0.000 HD
ENDBRANCH  18  19
BRANCH  18  21
ATOM     21  C   UNL     1       2.789   2.104  19.235  0.00  0.00    +0.000 C 
BRANCH  21  22
ATOM     22  O   UNL     1       3.961   1.770  18.519  0.00  0.00    +0.000 OA
ATOM     23  H   UNL     1       4.076   2.375  17.742  0.00  0.00    +0.000 HD
ENDBRANCH  21  22
BRANCH  21  24
ATOM     24  C   UNL     1       1.630   2.488  18.289  0.00  0.00    +0.000 C 
BRANCH  24  25
ATOM     25  O   UNL     1       0.387   2.368  18.929  0.00  0.00    +0.000 OA
ATOM     26  H   UNL     1       0.457   2.879  19.776  0.00  0.00    +0.000 HD
ENDBRANCH  24  25
ENDBRANCH  21  24
ENDBRANCH  18  21
ENDBRANCH  15  18
ENDBRANCH   3  15
TORSDOF 10
ENDMDL
MODEL 9
REMARK VINA RESULT:      -7.1      0.980      1.215
REMARK  Name = 
REMARK  12 active torsions:
REMARK  status: ('A' for Active; 'I' for Inactive)
REMARK    1  A    between atoms: C_1  and  C_2
REMARK    2  A    between atoms: C_2  and  C_3
REMARK    3  A    between atoms: C_2  and  C_4
REMARK    4  A    between atoms: C_6  and  C_7
REMARK    5  A    between atoms: C_9  and  C_10
REMARK    6  A    between atoms: C_10  and  O_11
REMARK    7  A    between atoms: C_10  and  C_12
REMARK    8  A    between atoms: C_12  and  O_13
REMARK    9  A    between atoms: C_12  and  C_14
REMARK   10  A    between atoms: C_14  and  O_15
REMARK   11  A    between atoms: C_14  and  C_16
REMARK   12  A    between atoms: C_16  and  O_17
REMARK                            x       y       z     vdW  Elec       q    Type
REMARK                         _______ _______ _______ _____ _____    ______ ____
ROOT
ATOM      1  C   UNL     1       5.614   4.649  16.645  0.00  0.00    +0.000 A 
ATOM      2  N   UNL     1       4.367   5.082  16.909  0.00  0.00    +0.000 NA
ATOM      3  C   UNL     1       4.253   4.990  18.245  0.00  0.00    +0.000 A 
ATOM      4  C   UNL     1       5.440   4.517  18.774  0.00  0.00    +0.000 A 
ATOM      5  N   UNL     1       6.294   4.304  17.758  0.00  0.00    +0.000 N 
ATOM      6  H   UNL     1       7.265   3.932  17.820  0.00  0.00    +0.000 HD
ENDROOT
BRANCH   1   9
ATOM      7  C   UNL     1       6.363   4.011  13.196  0.00  0.00    +0.000 A 
ATOM      8  C   UNL     1       5.516   3.848  14.266  0.00  0.00    +0.000 A 
ATOM      9  C   UNL     1       6.130   4.539  15.281  0.00  0.00    +0.000 A 
ATOM     10  N   UNL     1       7.277   5.082  14.833  0.00  0.00    +0.000 NA
ATOM     11  O   UNL     1       7.389   4.741  13.579  0.00  0.00    +0.000 OA
BRANCH   7  13
ATOM     12  C   UNL     1       6.981   2.213  11.571  0.00  0.00    +0.000 C 
ATOM     13  C   UNL     1       6.154   3.481  11.806  0.00  0.00    +0.000 C 
ATOM     14  C   UNL     1       4.664   3.211  11.587  0.00  0.00    +0.000 C 
ENDBRANCH   7  13
ENDBRANCH   1   9
BRANCH   3  15
ATOM     15  C   UNL     1       2.975   5.284  18.993  0.00  0.00    +0.000 C 
BRANCH  15  16
ATOM     16  O   UNL     1       3.242   5.381  20.374  0.00  0.00    +0.000 OA
ATOM     17  H   UNL     1       2.727   6.142  20.753  0.00  0.00    +0.000 HD
ENDBRANCH  15  16
BRANCH  15  18
ATOM     18  C   UNL     1       1.909   4.185  18.755  0.00  0.00    +0.000 C 
BRANCH  18  19
ATOM     19  O   UNL     1       1.474   4.193  17.412  0.00  0.00    +0.000 OA
ATOM     20  H   UNL     1       1.163   5.104  17.175  0.00  0.00    +0.000 HD
ENDBRANCH  18  19
BRANCH  18  21
ATOM     21  C   UNL     1       2.415   2.779  19.206  0.00  0.00    +0.000 C 
BRANCH  21  22
ATOM     22  O   UNL     1       2.244   1.827  18.176  0.00  0.00    +0.000 OA
ATOM     23  H   UNL     1       1.346   1.411  18.235  0.00  0.00    +0.000 HD
ENDBRANCH  21  22
BRANCH  21  24
ATOM     24  C   UNL     1       1.755   2.320  20.526  0.00  0.00    +0.000 C 
BRANCH  24  25
ATOM     25  O   UNL     1       0.680   3.152  20.874  0.00  0.00    +0.000 OA
ATOM     26  H   UNL     1       0.727   3.275  21.857  0.00  0.00    +0.000 HD
ENDBRANCH  24  25
ENDBRANCH  21  24
ENDBRANCH  18  21
ENDBRANCH  15  18
ENDBRANCH   3  15
TORSDOF 10
ENDMDL
