MODEL 1
REMARK VINA RESULT:      -7.6      0.000      0.000
REMARK  Name = 
REMARK  12 active torsions:
REMARK  status: ('A' for Active; 'I' for Inactive)
REMARK    1  A    between atoms: C_1  and  O_2
REMARK    2  A    between atoms: O_2  and  C_3
REMARK    3  A    between atoms: C_5  and  C_6
REMARK    4  A    between atoms: C_7  and  C_8
REMARK    5  A    between atoms: C_8  and  O_10
REMARK    6  A    between atoms: O_10  and  C_11
REMARK    7  A    between atoms: C_11  and  C_12
REMARK    8  A    between atoms: C_12  and  C_13
REMARK    9  A    between atoms: C_16  and  N_17
REMARK   10  A    between atoms: C_21  and  O_22
REMARK   11  A    between atoms: O_22  and  C_23
REMARK   12  A    between atoms: C_24  and  O_25
REMARK                            x       y       z     vdW  Elec       q    Type
REMARK                         _______ _______ _______ _____ _____    ______ ____
ROOT
ATOM      1  C   UNL     1       4.094   3.389  17.234  0.00  0.00    +0.000 C 
ATOM      2  C   UNL     1       2.861   3.904  17.333  0.00  0.00    +0.000 C 
ENDROOT
BRANCH   1   5
ATOM      3  C   UNL     1       6.928   5.560  16.013  0.00  0.00    +0.000 A 
ATOM      4  C   UNL     1       5.921   4.989  16.806  0.00  0.00    +0.000 A 
ATOM      5  C   UNL     1       5.134   3.927  16.347  0.00  0.00    +0.000 A 
ATOM      6  C   UNL     1       5.375   3.436  15.059  0.00  0.00    +0.000 A 
ATOM      7  C   UNL     1       6.372   3.989  14.247  0.00  0.00    +0.000 A 
ATOM      8  C   UNL     1       7.146   5.057  14.724  0.00  0.00    +0.000 A 
BRANCH   3  10
ATOM      9  C   UNL     1       7.555   6.658  18.053  0.00  0.00    +0.000 C 
ATOM     10  O   UNL     1       7.544   6.615  16.634  0.00  0.00    +0.000 OA
ENDBRANCH   3  10
BRANCH   7  11
ATOM     11  O   UNL     1       6.404   3.494  12.967  0.00  0.00    +0.000 OA
ATOM     12  C   UNL     1       5.156   3.388  12.288  0.00  0.00    +0.000 C 
ENDBRANCH   7  11
BRANCH   8  13
ATOM     13  O   UNL     1       8.055   5.659  13.903  0.00  0.00    +0.000 OA
ATOM     14  H   UNL     1       7.905   5.276  13.022  0.00  0.00    +0.000 HD
ENDBRANCH   8  13
ENDBRANCH   1   5
BRANCH   2  15
ATOM     15  C   UNL     1       1.901   3.414  18.345  0.00  0.00    +0.000 C 
ATOM     16  O   UNL     1       0.852   2.846  18.111  0.00  0.00    +0.000 OA
BRANCH  15  17
ATOM     17  O   UNL     1       2.491   3.588  19.549  0.00  0.00    +0.000 OA
BRANCH  17  18
ATOM     18  C   UNL     1       2.019   4.717  20.292  0.00  0.00    +0.000 C 
BRANCH  18  19
ATOM     19  C   UNL     1       2.992   5.884  20.053  0.00  0.00    +0.000 C 
BRANCH  19  20
ATOM     20  C   UNL     1       2.353   7.176  19.573  0.00  0.00    +0.000 A 
ATOM     21  C   UNL     1       1.626   8.015  20.425  0.00  0.00    +0.000 A 
ATOM     22  C   UNL     1       1.036   9.189  19.944  0.00  0.00    +0.000 A 
ATOM     23  C   UNL     1       1.209   9.589  18.619  0.00  0.00    +0.000 A 
ATOM     24  C   UNL     1       1.902   8.738  17.757  0.00  0.00    +0.000 A 
ATOM     25  C   UNL     1       2.491   7.559  18.231  0.00  0.00    +0.000 A 
BRANCH  23  26
ATOM     26  N   UNL     1       0.507  10.692  18.120  0.00  0.00    +0.000 N 
ATOM     27  H   UNL     1      -0.483  10.679  18.344  0.00  0.00    +0.000 HD
ATOM     28  H   UNL     1       0.939  11.585  18.338  0.00  0.00    +0.000 HD
ENDBRANCH  23  26
ENDBRANCH  19  20
ENDBRANCH  18  19
ENDBRANCH  17  18
ENDBRANCH  15  17
ENDBRANCH   2  15
TORSDOF 10
ENDMDL
MODEL 2
REMARK VINA RESULT:      -7.5      5.039      7.932
REMARK  Name = 
REMARK  12 active torsions:
REMARK  status: ('A' for Active; 'I' for Inactive)
REMARK    1  A    between atoms: C_1  and  O_2
REMARK    2  A    between atoms: O_2  and  C_3
REMARK    3  A    between atoms: C_5  and  C_6
REMARK    4  A    between atoms: C_7  and  C_8
REMARK    5  A    between atoms: C_8  and  O_10
REMARK    6  A    between atoms: O_10  and  C_11
REMARK    7  A    between atoms: C_11  and  C_12
REMARK    8  A    between atoms: C_12  and  C_13
REMARK    9  A    between atoms: C_16  and  N_17
REMARK   10  A    between atoms: C_21  and  O_22
REMARK   11  A    between atoms: O_22  and  C_23
REMARK   12  A    between atoms: C_24  and  O_25
REMARK                            x       y       z     vdW  Elec       q    Type
REMARK                         _______ _______ _______ _____ _____    ______ ____
ROOT
ATOM      1  C   UNL     1       8.900   9.071  18.698  0.00  0.00    +0.000 C 
ATOM      2  C   UNL     1       7.950   8.754  17.810  0.00  0.00    +0.000 C 
ENDROOT
BRANCH   1   5
ATOM      3  C   UNL     1       9.666  12.180  20.694  0.00  0.00    +0.000 A 
ATOM      4  C   UNL     1       9.297  10.876  20.331  0.00  0.00    +0.000 A 
ATOM      5  C   UNL     1       9.308  10.450  18.998  0.00  0.00    +0.000 A 
ATOM      6  C   UNL     1       9.703  11.366  18.017  0.00  0.00    +0.000 A 
ATOM      7  C   UNL     1      10.074  12.674  18.351  0.00  0.00    +0.000 A 
ATOM      8  C   UNL     1      10.051  13.082  19.693  0.00  0.00    +0.000 A 
BRANCH   3  10
ATOM      9  C   UNL     1       8.339  12.003  22.686  0.00  0.00    +0.000 C 
ATOM     10  O   UNL     1       9.539  12.402  22.040  0.00  0.00    +0.000 OA
ENDBRANCH   3  10
BRANCH   7  11
ATOM     11  O   UNL     1      10.308  13.493  17.275  0.00  0.00    +0.000 OA
ATOM     12  C   UNL     1      11.585  13.387  16.653  0.00  0.00    +0.000 C 
ENDBRANCH   7  11
BRANCH   8  13
ATOM     13  O   UNL     1      10.322  14.381  20.015  0.00  0.00    +0.000 OA
ATOM     14  H   UNL     1       9.638  14.909  19.567  0.00  0.00    +0.000 HD
ENDBRANCH   8  13
ENDBRANCH   1   5
BRANCH   2  15
ATOM     15  C   UNL     1       7.477   7.362  17.651  0.00  0.00    +0.000 C 
ATOM     16  O   UNL     1       7.757   6.430  18.382  0.00  0.00    +0.000 OA
BRANCH  15  17
ATOM     17  O   UNL     1       6.574   7.376  16.646  0.00  0.00    +0.000 OA
BRANCH  17  18
ATOM     18  C   UNL     1       5.828   6.163  16.492  0.00  0.00    +0.000 C 
BRANCH  18  19
ATOM     19  C   UNL     1       4.427   6.387  17.087  0.00  0.00    +0.000 C 
BRANCH  19  20
ATOM     20  C   UNL     1       3.684   5.127  17.496  0.00  0.00    +0.000 A 
ATOM     21  C   UNL     1       4.273   3.858  17.442  0.00  0.00    +0.000 A 
ATOM     22  C   UNL     1       3.552   2.718  17.811  0.00  0.00    +0.000 A 
ATOM     23  C   UNL     1       2.251   2.818  18.302  0.00  0.00    +0.000 A 
ATOM     24  C   UNL     1       1.647   4.076  18.324  0.00  0.00    +0.000 A 
ATOM     25  C   UNL     1       2.361   5.222  17.952  0.00  0.00    +0.000 A 
BRANCH  23  26
ATOM     26  N   UNL     1       1.499   1.662  18.542  0.00  0.00    +0.000 N 
ATOM     27  H   UNL     1       1.502   1.007  17.766  0.00  0.00    +0.000 HD
ATOM     28  H   UNL     1       1.711   1.211  19.427  0.00  0.00    +0.000 HD
ENDBRANCH  23  26
ENDBRANCH  19  20
ENDBRANCH  18  19
ENDBRANCH  17  18
ENDBRANCH  15  17
ENDBRANCH   2  15
TORSDOF 10
ENDMDL
MODEL 3
REMARK VINA RESULT:      -7.2      0.774      1.234
REMARK  Name = 
REMARK  12 active torsions:
REMARK  status: ('A' for Active; 'I' for Inactive)
REMARK    1  A    between atoms: C_1  and  O_2
REMARK    2  A    between atoms: O_2  and  C_3
REMARK    3  A    between atoms: C_5  and  C_6
REMARK    4  A    between atoms: C_7  and  C_8
REMARK    5  A    between atoms: C_8  and  O_10
REMARK    6  A    between atoms: O_10  and  C_11
REMARK    7  A    between atoms: C_11  and  C_12
REMARK    8  A    between atoms: C_12  and  C_13
REMARK    9  A    between atoms: C_16  and  N_17
REMARK   10  A    between atoms: C_21  and  O_22
REMARK   11  A    between atoms: O_22  and  C_23
REMARK   12  A    between atoms: C_24  and  O_25
REMARK                            x       y       z     vdW  Elec       q    Type
REMARK                         _______ _______ _______ _____ _____    ______ ____
ROOT
ATOM      1  C   UNL     1       3.874   3.377  17.573  0.00  0.00    +0.000 C 
ATOM      2  C   UNL     1       2.569   3.580  17.349  0.00  0.00    +0.000 C 
ENDROOT
BRANCH   1   5
ATOM      3  C   UNL     1       7.014   5.221  16.588  0.00  0.00    +0.000 A 
ATOM      4  C   UNL     1       5.965   4.661  17.333  0.00  0.00    +0.000 A 
ATOM      5  C   UNL     1       4.942   3.924  16.726  0.00  0.00    +0.000 A 
ATOM      6  C   UNL     1       4.987   3.752  15.338  0.00  0.00    +0.000 A 
ATOM      7  C   UNL     1       6.021   4.302  14.572  0.00  0.00    +0.000 A 
ATOM      8  C   UNL     1       7.034   5.043  15.199  0.00  0.00    +0.000 A 
BRANCH   3  10
ATOM      9  C   UNL     1       7.558   7.289  17.679  0.00  0.00    +0.000 C 
ATOM     10  O   UNL     1       7.881   5.942  17.369  0.00  0.00    +0.000 OA
ENDBRANCH   3  10
BRANCH   7  11
ATOM     11  O   UNL     1       5.861   4.164  13.215  0.00  0.00    +0.000 OA
ATOM     12  C   UNL     1       5.647   2.843  12.726  0.00  0.00    +0.000 C 
ENDBRANCH   7  11
BRANCH   8  13
ATOM     13  O   UNL     1       7.993   5.658  14.447  0.00  0.00    +0.000 OA
ATOM     14  H   UNL     1       7.692   5.579  13.525  0.00  0.00    +0.000 HD
ENDBRANCH   8  13
ENDBRANCH   1   5
BRANCH   2  15
ATOM     15  C   UNL     1       1.543   3.128  18.313  0.00  0.00    +0.000 C 
ATOM     16  O   UNL     1       1.235   1.972  18.531  0.00  0.00    +0.000 OA
BRANCH  15  17
ATOM     17  O   UNL     1       1.143   4.227  18.990  0.00  0.00    +0.000 OA
BRANCH  17  18
ATOM     18  C   UNL     1       1.535   4.259  20.367  0.00  0.00    +0.000 C 
BRANCH  18  19
ATOM     19  C   UNL     1       2.617   5.342  20.528  0.00  0.00    +0.000 C 
BRANCH  19  20
ATOM     20  C   UNL     1       2.369   6.628  19.760  0.00  0.00    +0.000 A 
ATOM     21  C   UNL     1       2.843   6.827  18.457  0.00  0.00    +0.000 A 
ATOM     22  C   UNL     1       2.612   8.033  17.787  0.00  0.00    +0.000 A 
ATOM     23  C   UNL     1       1.850   9.045  18.371  0.00  0.00    +0.000 A 
ATOM     24  C   UNL     1       1.407   8.866  19.681  0.00  0.00    +0.000 A 
ATOM     25  C   UNL     1       1.638   7.663  20.361  0.00  0.00    +0.000 A 
BRANCH  23  26
ATOM     26  N   UNL     1       1.738  10.291  17.744  0.00  0.00    +0.000 N 
ATOM     27  H   UNL     1       1.101  10.293  16.954  0.00  0.00    +0.000 HD
ATOM     28  H   UNL     1       1.557  11.057  18.386  0.00  0.00    +0.000 HD
ENDBRANCH  23  26
ENDBRANCH  19  20
ENDBRANCH  18  19
ENDBRANCH  17  18
ENDBRANCH  15  17
ENDBRANCH   2  15
TORSDOF 10
ENDMDL
MODEL 4
REMARK VINA RESULT:      -7.1      4.990      7.833
REMARK  Name = 
REMARK  12 active torsions:
REMARK  status: ('A' for Active; 'I' for Inactive)
REMARK    1  A    between atoms: C_1  and  O_2
REMARK    2  A    between atoms: O_2  and  C_3
REMARK    3  A    between atoms: C_5  and  C_6
REMARK    4  A    between atoms: C_7  and  C_8
REMARK    5  A    between atoms: C_8  and  O_10
REMARK    6  A    between atoms: O_10  and  C_11
REMARK    7  A    between atoms: C_11  and  C_12
REMARK    8  A    between atoms: C_12  and  C_13
REMARK    9  A    between atoms: C_16  and  N_17
REMARK   10  A    between atoms: C_21  and  O_22
REMARK   11  A    between atoms: O_22  and  C_23
REMARK   12  A    between atoms: C_24  and  O_25
REMARK                            x       y       z     vdW  Elec       q    Type
REMARK                         _______ _______ _______ _____ _____    ______ ____
ROOT
ATOM      1  C   UNL     1       8.931   9.030  18.714  0.00  0.00    +0.000 C 
ATOM      2  C   UNL     1       7.954   8.679  17.869  0.00  0.00    +0.000 C 
ENDROOT
BRANCH   1   5
ATOM      3  C   UNL     1       9.696  12.178  20.649  0.00  0.00    +0.000 A 
ATOM      4  C   UNL     1       9.347  10.861  20.313  0.00  0.00    +0.000 A 
ATOM      5  C   UNL     1       9.316  10.422  18.985  0.00  0.00    +0.000 A 
ATOM      6  C   UNL     1       9.646  11.337  17.980  0.00  0.00    +0.000 A 
ATOM      7  C   UNL     1       9.996  12.657  18.287  0.00  0.00    +0.000 A 
ATOM      8  C   UNL     1      10.016  13.079  19.626  0.00  0.00    +0.000 A 
BRANCH   3  10
ATOM      9  C   UNL     1       8.357  12.748  22.557  0.00  0.00    +0.000 C 
ATOM     10  O   UNL     1       9.617  12.410  21.997  0.00  0.00    +0.000 OA
ENDBRANCH   3  10
BRANCH   7  11
ATOM     11  O   UNL     1      10.165  13.471  17.195  0.00  0.00    +0.000 OA
ATOM     12  C   UNL     1      11.477  13.541  16.644  0.00  0.00    +0.000 C 
ENDBRANCH   7  11
BRANCH   8  13
ATOM     13  O   UNL     1      10.266  14.387  19.924  0.00  0.00    +0.000 OA
ATOM     14  H   UNL     1       9.904  14.898  19.179  0.00  0.00    +0.000 HD
ENDBRANCH   8  13
ENDBRANCH   1   5
BRANCH   2  15
ATOM     15  C   UNL     1       7.513   7.273  17.742  0.00  0.00    +0.000 C 
ATOM     16  O   UNL     1       7.771   6.376  18.521  0.00  0.00    +0.000 OA
BRANCH  15  17
ATOM     17  O   UNL     1       6.658   7.233  16.696  0.00  0.00    +0.000 OA
BRANCH  17  18
ATOM     18  C   UNL     1       5.310   6.887  17.034  0.00  0.00    +0.000 C 
BRANCH  18  19
ATOM     19  C   UNL     1       5.038   5.467  16.510  0.00  0.00    +0.000 C 
BRANCH  19  20
ATOM     20  C   UNL     1       3.867   4.747  17.157  0.00  0.00    +0.000 A 
ATOM     21  C   UNL     1       2.940   5.407  17.973  0.00  0.00    +0.000 A 
ATOM     22  C   UNL     1       1.884   4.707  18.567  0.00  0.00    +0.000 A 
ATOM     23  C   UNL     1       1.688   3.350  18.313  0.00  0.00    +0.000 A 
ATOM     24  C   UNL     1       2.629   2.681  17.530  0.00  0.00    +0.000 A 
ATOM     25  C   UNL     1       3.692   3.374  16.936  0.00  0.00    +0.000 A 
BRANCH  23  26
ATOM     26  N   UNL     1       0.709   2.638  19.015  0.00  0.00    +0.000 N 
ATOM     27  H   UNL     1      -0.069   2.338  18.435  0.00  0.00    +0.000 HD
ATOM     28  H   UNL     1       1.080   1.881  19.581  0.00  0.00    +0.000 HD
ENDBRANCH  23  26
ENDBRANCH  19  20
ENDBRANCH  18  19
ENDBRANCH  17  18
ENDBRANCH  15  17
ENDBRANCH   2  15
TORSDOF 10
ENDMDL
MODEL 5
REMARK VINA RESULT:      -7.1      1.511      3.504
REMARK  Name = 
REMARK  12 active torsions:
REMARK  status: ('A' for Active; 'I' for Inactive)
REMARK    1  A    between atoms: C_1  and  O_2
REMARK    2  A    between atoms: O_2  and  C_3
REMARK    3  A    between atoms: C_5  and  C_6
REMARK    4  A    between atoms: C_7  and  C_8
REMARK    5  A    between atoms: C_8  and  O_10
REMARK    6  A    between atoms: O_10  and  C_11
REMARK    7  A    between atoms: C_11  and  C_12
REMARK    8  A    between atoms: C_12  and  C_13
REMARK    9  A    between atoms: C_16  and  N_17
REMARK   10  A    between atoms: C_21  and  O_22
REMARK   11  A    between atoms: O_22  and  C_23
REMARK   12  A    between atoms: C_24  and  O_25
REMARK                            x       y       z     vdW  Elec       q    Type
REMARK                         _______ _______ _______ _____ _____    ______ ____
ROOT
ATOM      1  C   UNL     1       4.708   3.123  17.804  0.00  0.00    +0.000 C 
ATOM      2  C   UNL     1       4.923   3.246  19.120  0.00  0.00    +0.000 C 
ENDROOT
BRANCH   1   5
ATOM      3  C   UNL     1       6.243   3.921  14.450  0.00  0.00    +0.000 A 
ATOM      4  C   UNL     1       5.511   3.308  15.479  0.00  0.00    +0.000 A 
ATOM      5  C   UNL     1       5.492   3.826  16.779  0.00  0.00    +0.000 A 
ATOM      6  C   UNL     1       6.230   4.986  17.038  0.00  0.00    +0.000 A 
ATOM      7  C   UNL     1       6.971   5.615  16.030  0.00  0.00    +0.000 A 
ATOM      8  C   UNL     1       6.980   5.077  14.734  0.00  0.00    +0.000 A 
BRANCH   3  10
ATOM      9  C   UNL     1       5.098   3.522  12.379  0.00  0.00    +0.000 C 
ATOM     10  O   UNL     1       6.163   3.227  13.271  0.00  0.00    +0.000 OA
ENDBRANCH   3  10
BRANCH   7  11
ATOM     11  O   UNL     1       7.746   6.663  16.462  0.00  0.00    +0.000 OA
ATOM     12  C   UNL     1       7.372   7.274  17.693  0.00  0.00    +0.000 C 
ENDBRANCH   7  11
BRANCH   8  13
ATOM     13  O   UNL     1       7.773   5.632  13.772  0.00  0.00    +0.000 OA
ATOM     14  H   UNL     1       7.684   6.595  13.884  0.00  0.00    +0.000 HD
ENDBRANCH   8  13
ENDBRANCH   1   5
BRANCH   2  15
ATOM     15  C   UNL     1       4.202   2.407  20.100  0.00  0.00    +0.000 C 
ATOM     16  O   UNL     1       4.674   1.944  21.121  0.00  0.00    +0.000 OA
BRANCH  15  17
ATOM     17  O   UNL     1       2.907   2.395  19.714  0.00  0.00    +0.000 OA
BRANCH  17  18
ATOM     18  C   UNL     1       1.960   2.372  20.789  0.00  0.00    +0.000 C 
BRANCH  18  19
ATOM     19  C   UNL     1       0.948   3.506  20.555  0.00  0.00    +0.000 C 
BRANCH  19  20
ATOM     20  C   UNL     1       1.485   4.715  19.809  0.00  0.00    +0.000 A 
ATOM     21  C   UNL     1       1.652   4.724  18.419  0.00  0.00    +0.000 A 
ATOM     22  C   UNL     1       2.167   5.849  17.766  0.00  0.00    +0.000 A 
ATOM     23  C   UNL     1       2.467   7.014  18.472  0.00  0.00    +0.000 A 
ATOM     24  C   UNL     1       2.335   6.998  19.861  0.00  0.00    +0.000 A 
ATOM     25  C   UNL     1       1.825   5.873  20.522  0.00  0.00    +0.000 A 
BRANCH  23  26
ATOM     26  N   UNL     1       3.102   8.082  17.829  0.00  0.00    +0.000 N 
ATOM     27  H   UNL     1       3.698   8.629  18.442  0.00  0.00    +0.000 HD
ATOM     28  H   UNL     1       3.573   7.821  16.968  0.00  0.00    +0.000 HD
ENDBRANCH  23  26
ENDBRANCH  19  20
ENDBRANCH  18  19
ENDBRANCH  17  18
ENDBRANCH  15  17
ENDBRANCH   2  15
TORSDOF 10
ENDMDL
MODEL 6
REMARK VINA RESULT:      -7.1      2.895      4.318
REMARK  Name = 
REMARK  12 active torsions:
REMARK  status: ('A' for Active; 'I' for Inactive)
REMARK    1  A    between atoms: C_1  and  O_2
REMARK    2  A    between atoms: O_2  and  C_3
REMARK    3  A    between atoms: C_5  and  C_6
REMARK    4  A    between atoms: C_7  and  C_8
REMARK    5  A    between atoms: C_8  and  O_10
REMARK    6  A    between atoms: O_10  and  C_11
REMARK    7  A    between atoms: C_11  and  C_12
REMARK    8  A    between atoms: C_12  and  C_13
REMARK    9  A    between atoms: C_16  and  N_17
REMARK   10  A    between atoms: C_21  and  O_22
REMARK   11  A    between atoms: O_22  and  C_23
REMARK   12  A    between atoms: C_24  and  O_25
REMARK                            x       y       z     vdW  Elec       q    Type
REMARK                         _______ _______ _______ _____ _____    ______ ____
ROOT
ATOM      1  C   UNL     1       3.266   6.774  17.453  0.00  0.00    +0.000 C 
ATOM      2  C   UNL     1       3.161   7.919  18.139  0.00  0.00    +0.000 C 
ENDROOT
BRANCH   1   5
ATOM      3  C   UNL     1       6.838   5.708  18.037  0.00  0.00    +0.000 A 
ATOM      4  C   UNL     1       5.610   6.382  18.113  0.00  0.00    +0.000 A 
ATOM      5  C   UNL     1       4.516   6.014  17.321  0.00  0.00    +0.000 A 
ATOM      6  C   UNL     1       4.674   4.941  16.437  0.00  0.00    +0.000 A 
ATOM      7  C   UNL     1       5.890   4.254  16.339  0.00  0.00    +0.000 A 
ATOM      8  C   UNL     1       6.975   4.642  17.139  0.00  0.00    +0.000 A 
BRANCH   3  10
ATOM      9  C   UNL     1       8.268   7.561  18.569  0.00  0.00    +0.000 C 
ATOM     10  O   UNL     1       7.786   6.258  18.861  0.00  0.00    +0.000 OA
ENDBRANCH   3  10
BRANCH   7  11
ATOM     11  O   UNL     1       5.935   3.315  15.338  0.00  0.00    +0.000 OA
ATOM     12  C   UNL     1       6.236   3.787  14.029  0.00  0.00    +0.000 C 
ENDBRANCH   7  11
BRANCH   8  13
ATOM     13  O   UNL     1       8.188   4.036  16.981  0.00  0.00    +0.000 OA
ATOM     14  H   UNL     1       7.992   3.142  16.649  0.00  0.00    +0.000 HD
ENDBRANCH   8  13
ENDBRANCH   1   5
BRANCH   2  15
ATOM     15  C   UNL     1       1.850   8.567  18.361  0.00  0.00    +0.000 C 
ATOM     16  O   UNL     1       1.263   9.272  17.562  0.00  0.00    +0.000 OA
BRANCH  15  17
ATOM     17  O   UNL     1       1.386   8.097  19.540  0.00  0.00    +0.000 OA
BRANCH  17  18
ATOM     18  C   UNL     1       2.269   7.196  20.217  0.00  0.00    +0.000 C 
BRANCH  18  19
ATOM     19  C   UNL     1       1.503   5.888  20.480  0.00  0.00    +0.000 C 
BRANCH  19  20
ATOM     20  C   UNL     1       2.126   4.637  19.884  0.00  0.00    +0.000 A 
ATOM     21  C   UNL     1       3.406   4.194  20.239  0.00  0.00    +0.000 A 
ATOM     22  C   UNL     1       3.954   3.047  19.655  0.00  0.00    +0.000 A 
ATOM     23  C   UNL     1       3.220   2.279  18.752  0.00  0.00    +0.000 A 
ATOM     24  C   UNL     1       1.959   2.737  18.368  0.00  0.00    +0.000 A 
ATOM     25  C   UNL     1       1.405   3.886  18.945  0.00  0.00    +0.000 A 
BRANCH  23  26
ATOM     26  N   UNL     1       3.827   1.213  18.079  0.00  0.00    +0.000 N 
ATOM     27  H   UNL     1       3.389   0.315  18.261  0.00  0.00    +0.000 HD
ATOM     28  H   UNL     1       3.964   1.380  17.087  0.00  0.00    +0.000 HD
ENDBRANCH  23  26
ENDBRANCH  19  20
ENDBRANCH  18  19
ENDBRANCH  17  18
ENDBRANCH  15  17
ENDBRANCH   2  15
TORSDOF 10
ENDMDL
MODEL 7
REMARK VINA RESULT:      -7.1      0.939      2.962
REMARK  Name = 
REMARK  12 active torsions:
REMARK  status: ('A' for Active; 'I' for Inactive)
REMARK    1  A    between atoms: C_1  and  O_2
REMARK    2  A    between atoms: O_2  and  C_3
REMARK    3  A    between atoms: C_5  and  C_6
REMARK    4  A    between atoms: C_7  and  C_8
REMARK    5  A    between atoms: C_8  and  O_10
REMARK    6  A    between atoms: O_10  and  C_11
REMARK    7  A    between atoms: C_11  and  C_12
REMARK    8  A    between atoms: C_12  and  C_13
REMARK    9  A    between atoms: C_16  and  N_17
REMARK   10  A    between atoms: C_21  and  O_22
REMARK   11  A    between atoms: O_22  and  C_23
REMARK   12  A    between atoms: C_24  and  O_25
REMARK                            x       y       z     vdW  Elec       q    Type
REMARK                         _______ _______ _______ _____ _____    ______ ____
ROOT
ATOM      1  C   UNL     1       4.082   3.791  17.675  0.00  0.00    +0.000 C 
ATOM      2  C   UNL     1       4.264   3.691  18.998  0.00  0.00    +0.000 C 
ENDROOT
BRANCH   1   5
ATOM      3  C   UNL     1       6.240   4.001  14.587  0.00  0.00    +0.000 A 
ATOM      4  C   UNL     1       5.273   3.605  15.524  0.00  0.00    +0.000 A 
ATOM      5  C   UNL     1       5.111   4.272  16.743  0.00  0.00    +0.000 A 
ATOM      6  C   UNL     1       5.947   5.360  17.016  0.00  0.00    +0.000 A 
ATOM      7  C   UNL     1       6.921   5.774  16.100  0.00  0.00    +0.000 A 
ATOM      8  C   UNL     1       7.070   5.089  14.885  0.00  0.00    +0.000 A 
BRANCH   3  10
ATOM      9  C   UNL     1       6.417   3.779  12.204  0.00  0.00    +0.000 C 
ATOM     10  O   UNL     1       6.261   3.187  13.485  0.00  0.00    +0.000 OA
ENDBRANCH   3  10
BRANCH   7  11
ATOM     11  O   UNL     1       7.750   6.768  16.559  0.00  0.00    +0.000 OA
ATOM     12  C   UNL     1       7.216   7.644  17.547  0.00  0.00    +0.000 C 
ENDBRANCH   7  11
BRANCH   8  13
ATOM     13  O   UNL     1       8.078   5.430  14.030  0.00  0.00    +0.000 OA
ATOM     14  H   UNL     1       7.927   4.904  13.225  0.00  0.00    +0.000 HD
ENDBRANCH   8  13
ENDBRANCH   1   5
BRANCH   2  15
ATOM     15  C   UNL     1       3.247   3.067  19.871  0.00  0.00    +0.000 C 
ATOM     16  O   UNL     1       3.475   2.415  20.872  0.00  0.00    +0.000 OA
BRANCH  15  17
ATOM     17  O   UNL     1       2.045   3.493  19.423  0.00  0.00    +0.000 OA
BRANCH  17  18
ATOM     18  C   UNL     1       1.296   4.273  20.363  0.00  0.00    +0.000 C 
BRANCH  18  19
ATOM     19  C   UNL     1       2.175   5.455  20.807  0.00  0.00    +0.000 C 
BRANCH  19  20
ATOM     20  C   UNL     1       2.024   6.723  19.985  0.00  0.00    +0.000 A 
ATOM     21  C   UNL     1       2.441   6.807  18.651  0.00  0.00    +0.000 A 
ATOM     22  C   UNL     1       2.303   7.998  17.931  0.00  0.00    +0.000 A 
ATOM     23  C   UNL     1       1.688   9.113  18.498  0.00  0.00    +0.000 A 
ATOM     24  C   UNL     1       1.303   9.046  19.838  0.00  0.00    +0.000 A 
ATOM     25  C   UNL     1       1.443   7.859  20.567  0.00  0.00    +0.000 A 
BRANCH  23  26
ATOM     26  N   UNL     1       1.674  10.334  17.813  0.00  0.00    +0.000 N 
ATOM     27  H   UNL     1       1.129  10.313  16.957  0.00  0.00    +0.000 HD
ATOM     28  H   UNL     1       1.441  11.130  18.398  0.00  0.00    +0.000 HD
ENDBRANCH  23  26
ENDBRANCH  19  20
ENDBRANCH  18  19
ENDBRANCH  17  18
ENDBRANCH  15  17
ENDBRANCH   2  15
TORSDOF 10
ENDMDL
MODEL 8
REMARK VINA RESULT:      -7.1      5.099      8.185
REMARK  Name = 
REMARK  12 active torsions:
REMARK  status: ('A' for Active; 'I' for Inactive)
REMARK    1  A    between atoms: C_1  and  O_2
REMARK    2  A    between atoms: O_2  and  C_3
REMARK    3  A    between atoms: C_5  and  C_6
REMARK    4  A    between atoms: C_7  and  C_8
REMARK    5  A    between atoms: C_8  and  O_10
REMARK    6  A    between atoms: O_10  and  C_11
REMARK    7  A    between atoms: C_11  and  C_12
REMARK    8  A    between atoms: C_12  and  C_13
REMARK    9  A    between atoms: C_16  and  N_17
REMARK   10  A    between atoms: C_21  and  O_22
REMARK   11  A    between atoms: O_22  and  C_23
REMARK   12  A    between atoms: C_24  and  O_25
REMARK                            x       y       z     vdW  Elec       q    Type
REMARK                         _______ _______ _______ _____ _____    ______ ____
ROOT
ATOM      1  C   UNL     1       8.948   9.024  18.861  0.00  0.00    +0.000 C 
ATOM      2  C   UNL     1       8.042   8.824  17.896  0.00  0.00    +0.000 C 
ENDROOT
BRANCH   1   5
ATOM      3  C   UNL     1      10.706  12.355  18.630  0.00  0.00    +0.000 A 
ATOM      4  C   UNL     1      10.192  11.085  18.325  0.00  0.00    +0.000 A 
ATOM      5  C   UNL     1       9.445  10.350  19.253  0.00  0.00    +0.000 A 
ATOM      6  C   UNL     1       9.215  10.916  20.511  0.00  0.00    +0.000 A 
ATOM      7  C   UNL     1       9.718  12.180  20.842  0.00  0.00    +0.000 A 
ATOM      8  C   UNL     1      10.470  12.898  19.899  0.00  0.00    +0.000 A 
BRANCH   3  10
ATOM      9  C   UNL     1      10.969  14.042  16.944  0.00  0.00    +0.000 C 
ATOM     10  O   UNL     1      11.445  12.878  17.601  0.00  0.00    +0.000 OA
ENDBRANCH   3  10
BRANCH   7  11
ATOM     11  O   UNL     1       9.526  12.546  22.151  0.00  0.00    +0.000 OA
ATOM     12  C   UNL     1       8.312  12.123  22.764  0.00  0.00    +0.000 C 
ENDBRANCH   7  11
BRANCH   8  13
ATOM     13  O   UNL     1      11.040  14.088  20.247  0.00  0.00    +0.000 OA
ATOM     14  H   UNL     1      11.481  13.927  21.100  0.00  0.00    +0.000 HD
ENDBRANCH   8  13
ENDBRANCH   1   5
BRANCH   2  15
ATOM     15  C   UNL     1       7.470   7.485  17.641  0.00  0.00    +0.000 C 
ATOM     16  O   UNL     1       7.712   6.477  18.278  0.00  0.00    +0.000 OA
BRANCH  15  17
ATOM     17  O   UNL     1       6.534   7.645  16.679  0.00  0.00    +0.000 OA
BRANCH  17  18
ATOM     18  C   UNL     1       5.731   6.486  16.425  0.00  0.00    +0.000 C 
BRANCH  18  19
ATOM     19  C   UNL     1       4.411   6.643  17.198  0.00  0.00    +0.000 C 
BRANCH  19  20
ATOM     20  C   UNL     1       3.702   5.346  17.546  0.00  0.00    +0.000 A 
ATOM     21  C   UNL     1       4.307   4.094  17.385  0.00  0.00    +0.000 A 
ATOM     22  C   UNL     1       3.616   2.918  17.699  0.00  0.00    +0.000 A 
ATOM     23  C   UNL     1       2.332   2.963  18.240  0.00  0.00    +0.000 A 
ATOM     24  C   UNL     1       1.711   4.206  18.369  0.00  0.00    +0.000 A 
ATOM     25  C   UNL     1       2.395   5.387  18.053  0.00  0.00    +0.000 A 
BRANCH  23  26
ATOM     26  N   UNL     1       1.605   1.781  18.426  0.00  0.00    +0.000 N 
ATOM     27  H   UNL     1       0.603   1.927  18.494  0.00  0.00    +0.000 HD
ATOM     28  H   UNL     1       1.842   1.047  17.766  0.00  0.00    +0.000 HD
ENDBRANCH  23  26
ENDBRANCH  19  20
ENDBRANCH  18  19
ENDBRANCH  17  18
ENDBRANCH  15  17
ENDBRANCH   2  15
TORSDOF 10
ENDMDL
MODEL 9
REMARK VINA RESULT:      -7.1      4.063      7.733
REMARK  Name = 
REMARK  12 active torsions:
REMARK  status: ('A' for Active; 'I' for Inactive)
REMARK    1  A    between atoms: C_1  and  O_2
REMARK    2  A    between atoms: O_2  and  C_3
REMARK    3  A    between atoms: C_5  and  C_6
REMARK    4  A    between atoms: C_7  and  C_8
REMARK    5  A    between atoms: C_8  and  O_10
REMARK    6  A    between atoms: O_10  and  C_11
REMARK    7  A    between atoms: C_11  and  C_12
REMARK    8  A    between atoms: C_12  and  C_13
REMARK    9  A    between atoms: C_16  and  N_17
REMARK   10  A    between atoms: C_21  and  O_22
REMARK   11  A    between atoms: O_22  and  C_23
REMARK   12  A    between atoms: C_24  and  O_25
REMARK                            x       y       z     vdW  Elec       q    Type
REMARK                         _______ _______ _______ _____ _____    ______ ____
ROOT
ATOM      1  C   UNL     1       5.762   5.442  18.713  0.00  0.00    +0.000 C 
ATOM      2  C   UNL     1       5.942   6.383  17.778  0.00  0.00    +0.000 C 
ENDROOT
BRANCH   1   5
ATOM      3  C   UNL     1       2.846   3.223  19.611  0.00  0.00    +0.000 A 
ATOM      4  C   UNL     1       4.090   3.684  19.154  0.00  0.00    +0.000 A 
ATOM      5  C   UNL     1       4.444   5.036  19.220  0.00  0.00    +0.000 A 
ATOM      6  C   UNL     1       3.519   5.935  19.760  0.00  0.00    +0.000 A 
ATOM      7  C   UNL     1       2.270   5.502  20.221  0.00  0.00    +0.000 A 
ATOM      8  C   UNL     1       1.932   4.142  20.141  0.00  0.00    +0.000 A 
BRANCH   3  10
ATOM      9  C   UNL     1       3.406   1.253  18.360  0.00  0.00    +0.000 C 
ATOM     10  O   UNL     1       2.685   1.876  19.412  0.00  0.00    +0.000 OA
ENDBRANCH   3  10
BRANCH   7  11
ATOM     11  O   UNL     1       1.420   6.511  20.600  0.00  0.00    +0.000 OA
ATOM     12  C   UNL     1       1.824   7.841  20.289  0.00  0.00    +0.000 C 
ENDBRANCH   7  11
BRANCH   8  13
ATOM     13  O   UNL     1       0.683   3.729  20.503  0.00  0.00    +0.000 OA
ATOM     14  H   UNL     1       0.089   4.046  19.800  0.00  0.00    +0.000 HD
ENDBRANCH   8  13
ENDBRANCH   1   5
BRANCH   2  15
ATOM     15  C   UNL     1       7.277   6.651  17.200  0.00  0.00    +0.000 C 
ATOM     16  O   UNL     1       7.647   6.324  16.089  0.00  0.00    +0.000 OA
BRANCH  15  17
ATOM     17  O   UNL     1       7.923   7.445  18.082  0.00  0.00    +0.000 OA
BRANCH  17  18
ATOM     18  C   UNL     1       7.943   8.835  17.735  0.00  0.00    +0.000 C 
BRANCH  18  19
ATOM     19  C   UNL     1       8.884   9.556  18.715  0.00  0.00    +0.000 C 
BRANCH  19  20
ATOM     20  C   UNL     1       9.365  10.926  18.266  0.00  0.00    +0.000 A 
ATOM     21  C   UNL     1       8.482  11.945  17.890  0.00  0.00    +0.000 A 
ATOM     22  C   UNL     1       8.962  13.188  17.465  0.00  0.00    +0.000 A 
ATOM     23  C   UNL     1      10.328  13.469  17.465  0.00  0.00    +0.000 A 
ATOM     24  C   UNL     1      11.214  12.445  17.805  0.00  0.00    +0.000 A 
ATOM     25  C   UNL     1      10.741  11.197  18.227  0.00  0.00    +0.000 A 
BRANCH  23  26
ATOM     26  N   UNL     1      10.800  14.666  16.915  0.00  0.00    +0.000 N 
ATOM     27  H   UNL     1      11.004  15.379  17.609  0.00  0.00    +0.000 HD
ATOM     28  H   UNL     1      11.563  14.542  16.257  0.00  0.00    +0.000 HD
ENDBRANCH  23  26
ENDBRANCH  19  20
ENDBRANCH  18  19
ENDBRANCH  17  18
ENDBRANCH  15  17
ENDBRANCH   2  15
TORSDOF 10
ENDMDL
