MODEL 1
REMARK VINA RESULT:      -7.9      0.000      0.000
REMARK  Name = 
REMARK  1 active torsions:
REMARK  status: ('A' for Active; 'I' for Inactive)
REMARK    1  A    between atoms: C_7  and  C_8
REMARK                            x       y       z     vdW  Elec       q    Type
REMARK                         _______ _______ _______ _____ _____    ______ ____
ROOT
ATOM      1  N   UNL     1       7.745   6.949  16.665  0.00  0.00    +0.000 N 
ATOM      2  C   UNL     1       6.929   5.917  16.244  0.00  0.00    +0.000 A 
ATOM      3  N   UNL     1       7.202   5.361  15.076  0.00  0.00    +0.000 NA
ATOM      4  C   UNL     1       6.406   4.366  14.728  0.00  0.00    +0.000 A 
ATOM      5  N   UNL     1       6.636   3.758  13.510  0.00  0.00    +0.000 N 
ATOM      6  N   UNL     1       5.384   3.923  15.440  0.00  0.00    +0.000 NA
ATOM      7  C   UNL     1       5.202   4.541  16.607  0.00  0.00    +0.000 A 
ATOM      8  N   UNL     1       5.958   5.541  17.058  0.00  0.00    +0.000 NA
ATOM      9  H   UNL     1       8.645   6.891  16.210  0.00  0.00    +0.000 HD
ATOM     10  H   UNL     1       7.741   7.013  17.673  0.00  0.00    +0.000 HD
ATOM     11  H   UNL     1       7.126   4.388  12.891  0.00  0.00    +0.000 HD
ATOM     12  H   UNL     1       5.788   3.335  13.159  0.00  0.00    +0.000 HD
ENDROOT
BRANCH   7  13
ATOM     13  C   UNL     1       4.092   4.086  17.454  0.00  0.00    +0.000 A 
ATOM     14  C   UNL     1       2.903   3.604  16.913  0.00  0.00    +0.000 A 
ATOM     15  N   UNL     1       1.834   3.165  17.626  0.00  0.00    +0.000 NA
ATOM     16  C   UNL     1       1.918   3.195  18.966  0.00  0.00    +0.000 A 
ATOM     17  C   UNL     1       0.846   2.752  19.728  0.00  0.00    +0.000 A 
ATOM     18  C   UNL     1       0.883   2.771  21.125  0.00  0.00    +0.000 A 
ATOM     19  C   UNL     1       2.015   3.241  21.782  0.00  0.00    +0.000 A 
ATOM     20  C   UNL     1       3.106   3.687  21.039  0.00  0.00    +0.000 A 
ATOM     21  C   UNL     1       3.066   3.666  19.633  0.00  0.00    +0.000 A 
ATOM     22  C   UNL     1       4.149   4.107  18.856  0.00  0.00    +0.000 A 
ENDBRANCH   7  13
TORSDOF 1
ENDMDL
MODEL 2
REMARK VINA RESULT:      -7.9      0.078      1.884
REMARK  Name = 
REMARK  1 active torsions:
REMARK  status: ('A' for Active; 'I' for Inactive)
REMARK    1  A    between atoms: C_7  and  C_8
REMARK                            x       y       z     vdW  Elec       q    Type
REMARK                         _______ _______ _______ _____ _____    ______ ____
ROOT
ATOM      1  N   UNL     1       6.754   3.782  13.539  0.00  0.00    +0.000 N 
ATOM      2  C   UNL     1       6.491   4.396  14.748  0.00  0.00    +0.000 A 
ATOM      3  N   UNL     1       7.268   5.405  15.103  0.00  0.00    +0.000 NA
ATOM      4  C   UNL     1       6.963   5.970  16.257  0.00  0.00    +0.000 A 
ATOM      5  N   UNL     1       7.752   7.020  16.684  0.00  0.00    +0.000 N 
ATOM      6  N   UNL     1       5.980   5.590  17.055  0.00  0.00    +0.000 NA
ATOM      7  C   UNL     1       5.247   4.573  16.601  0.00  0.00    +0.000 A 
ATOM      8  N   UNL     1       5.460   3.947  15.444  0.00  0.00    +0.000 NA
ATOM      9  H   UNL     1       7.254   4.414  12.929  0.00  0.00    +0.000 HD
ATOM     10  H   UNL     1       5.917   3.353  13.172  0.00  0.00    +0.000 HD
ATOM     11  H   UNL     1       8.666   6.969  16.256  0.00  0.00    +0.000 HD
ATOM     12  H   UNL     1       7.719   7.101  17.691  0.00  0.00    +0.000 HD
ENDROOT
BRANCH   7  13
ATOM     13  C   UNL     1       4.129   4.113  17.433  0.00  0.00    +0.000 A 
ATOM     14  C   UNL     1       2.964   3.591  16.875  0.00  0.00    +0.000 A 
ATOM     15  N   UNL     1       1.889   3.143  17.574  0.00  0.00    +0.000 NA
ATOM     16  C   UNL     1       1.941   3.207  18.914  0.00  0.00    +0.000 A 
ATOM     17  C   UNL     1       0.862   2.756  19.662  0.00  0.00    +0.000 A 
ATOM     18  C   UNL     1       0.865   2.808  21.058  0.00  0.00    +0.000 A 
ATOM     19  C   UNL     1       1.969   3.320  21.730  0.00  0.00    +0.000 A 
ATOM     20  C   UNL     1       3.067   3.774  21.002  0.00  0.00    +0.000 A 
ATOM     21  C   UNL     1       3.062   3.719  19.597  0.00  0.00    +0.000 A 
ATOM     22  C   UNL     1       4.151   4.167  18.834  0.00  0.00    +0.000 A 
ENDBRANCH   7  13
TORSDOF 1
ENDMDL
MODEL 3
REMARK VINA RESULT:      -7.8      2.217      6.696
REMARK  Name = 
REMARK  1 active torsions:
REMARK  status: ('A' for Active; 'I' for Inactive)
REMARK    1  A    between atoms: C_7  and  C_8
REMARK                            x       y       z     vdW  Elec       q    Type
REMARK                         _______ _______ _______ _____ _____    ______ ____
ROOT
ATOM      1  N   UNL     1       3.958   2.269  20.419  0.00  0.00    +0.000 N 
ATOM      2  C   UNL     1       3.976   3.453  19.709  0.00  0.00    +0.000 A 
ATOM      3  N   UNL     1       3.289   4.470  20.201  0.00  0.00    +0.000 NA
ATOM      4  C   UNL     1       3.354   5.585  19.496  0.00  0.00    +0.000 A 
ATOM      5  N   UNL     1       2.643   6.676  19.956  0.00  0.00    +0.000 N 
ATOM      6  N   UNL     1       4.020   5.733  18.364  0.00  0.00    +0.000 NA
ATOM      7  C   UNL     1       4.690   4.654  17.960  0.00  0.00    +0.000 A 
ATOM      8  N   UNL     1       4.705   3.489  18.608  0.00  0.00    +0.000 NA
ATOM      9  H   UNL     1       3.738   2.447  21.390  0.00  0.00    +0.000 HD
ATOM     10  H   UNL     1       4.791   1.730  20.227  0.00  0.00    +0.000 HD
ATOM     11  H   UNL     1       1.880   6.374  20.546  0.00  0.00    +0.000 HD
ATOM     12  H   UNL     1       2.416   7.299  19.193  0.00  0.00    +0.000 HD
ENDROOT
BRANCH   7  13
ATOM     13  C   UNL     1       5.465   4.756  16.718  0.00  0.00    +0.000 A 
ATOM     14  C   UNL     1       6.591   5.570  16.618  0.00  0.00    +0.000 A 
ATOM     15  N   UNL     1       7.360   5.717  15.508  0.00  0.00    +0.000 NA
ATOM     16  C   UNL     1       7.014   5.028  14.409  0.00  0.00    +0.000 A 
ATOM     17  C   UNL     1       7.777   5.152  13.256  0.00  0.00    +0.000 A 
ATOM     18  C   UNL     1       7.454   4.461  12.085  0.00  0.00    +0.000 A 
ATOM     19  C   UNL     1       6.344   3.625  12.059  0.00  0.00    +0.000 A 
ATOM     20  C   UNL     1       5.564   3.480  13.204  0.00  0.00    +0.000 A 
ATOM     21  C   UNL     1       5.893   4.175  14.382  0.00  0.00    +0.000 A 
ATOM     22  C   UNL     1       5.129   4.051  15.553  0.00  0.00    +0.000 A 
ENDBRANCH   7  13
TORSDOF 1
ENDMDL
MODEL 4
REMARK VINA RESULT:      -7.8      2.214      6.547
REMARK  Name = 
REMARK  1 active torsions:
REMARK  status: ('A' for Active; 'I' for Inactive)
REMARK    1  A    between atoms: C_7  and  C_8
REMARK                            x       y       z     vdW  Elec       q    Type
REMARK                         _______ _______ _______ _____ _____    ______ ____
ROOT
ATOM      1  N   UNL     1       2.595   6.941  19.896  0.00  0.00    +0.000 N 
ATOM      2  C   UNL     1       3.261   5.816  19.450  0.00  0.00    +0.000 A 
ATOM      3  N   UNL     1       3.124   4.707  20.156  0.00  0.00    +0.000 NA
ATOM      4  C   UNL     1       3.764   3.654  19.678  0.00  0.00    +0.000 A 
ATOM      5  N   UNL     1       3.668   2.472  20.385  0.00  0.00    +0.000 N 
ATOM      6  N   UNL     1       4.516   3.649  18.591  0.00  0.00    +0.000 NA
ATOM      7  C   UNL     1       4.577   4.812  17.944  0.00  0.00    +0.000 A 
ATOM      8  N   UNL     1       3.956   5.926  18.332  0.00  0.00    +0.000 NA
ATOM      9  H   UNL     1       1.810   6.677  20.475  0.00  0.00    +0.000 HD
ATOM     10  H   UNL     1       2.410   7.569  19.126  0.00  0.00    +0.000 HD
ATOM     11  H   UNL     1       3.444   2.658  21.352  0.00  0.00    +0.000 HD
ATOM     12  H   UNL     1       4.469   1.884  20.203  0.00  0.00    +0.000 HD
ENDROOT
BRANCH   7  13
ATOM     13  C   UNL     1       5.384   4.870  16.719  0.00  0.00    +0.000 A 
ATOM     14  C   UNL     1       6.526   5.661  16.627  0.00  0.00    +0.000 A 
ATOM     15  N   UNL     1       7.325   5.767  15.533  0.00  0.00    +0.000 NA
ATOM     16  C   UNL     1       6.994   5.056  14.443  0.00  0.00    +0.000 A 
ATOM     17  C   UNL     1       7.787   5.138  13.307  0.00  0.00    +0.000 A 
ATOM     18  C   UNL     1       7.481   4.423  12.146  0.00  0.00    +0.000 A 
ATOM     19  C   UNL     1       6.356   3.605  12.113  0.00  0.00    +0.000 A 
ATOM     20  C   UNL     1       5.546   3.504  13.242  0.00  0.00    +0.000 A 
ATOM     21  C   UNL     1       5.859   4.223  14.409  0.00  0.00    +0.000 A 
ATOM     22  C   UNL     1       5.064   4.141  15.564  0.00  0.00    +0.000 A 
ENDBRANCH   7  13
TORSDOF 1
ENDMDL
MODEL 5
REMARK VINA RESULT:      -7.7      1.859      3.349
REMARK  Name = 
REMARK  1 active torsions:
REMARK  status: ('A' for Active; 'I' for Inactive)
REMARK    1  A    between atoms: C_7  and  C_8
REMARK                            x       y       z     vdW  Elec       q    Type
REMARK                         _______ _______ _______ _____ _____    ______ ____
ROOT
ATOM      1  N   UNL     1       5.893   2.675  11.942  0.00  0.00    +0.000 N 
ATOM      2  C   UNL     1       6.309   3.649  12.828  0.00  0.00    +0.000 A 
ATOM      3  N   UNL     1       7.426   4.296  12.544  0.00  0.00    +0.000 NA
ATOM      4  C   UNL     1       7.770   5.231  13.411  0.00  0.00    +0.000 A 
ATOM      5  N   UNL     1       8.937   5.929  13.172  0.00  0.00    +0.000 N 
ATOM      6  N   UNL     1       7.101   5.533  14.511  0.00  0.00    +0.000 NA
ATOM      7  C   UNL     1       5.982   4.833  14.699  0.00  0.00    +0.000 A 
ATOM      8  N   UNL     1       5.539   3.883  13.877  0.00  0.00    +0.000 NA
ATOM      9  H   UNL     1       6.287   2.844  11.026  0.00  0.00    +0.000 HD
ATOM     10  H   UNL     1       4.892   2.551  11.997  0.00  0.00    +0.000 HD
ATOM     11  H   UNL     1       9.556   5.386  12.587  0.00  0.00    +0.000 HD
ATOM     12  H   UNL     1       9.317   6.291  14.035  0.00  0.00    +0.000 HD
ENDROOT
BRANCH   7  13
ATOM     13  C   UNL     1       5.184   5.130  15.895  0.00  0.00    +0.000 A 
ATOM     14  C   UNL     1       5.095   6.418  16.419  0.00  0.00    +0.000 A 
ATOM     15  N   UNL     1       4.379   6.774  17.516  0.00  0.00    +0.000 NA
ATOM     16  C   UNL     1       3.697   5.812  18.159  0.00  0.00    +0.000 A 
ATOM     17  C   UNL     1       2.952   6.139  19.284  0.00  0.00    +0.000 A 
ATOM     18  C   UNL     1       2.232   5.173  19.992  0.00  0.00    +0.000 A 
ATOM     19  C   UNL     1       2.251   3.848  19.571  0.00  0.00    +0.000 A 
ATOM     20  C   UNL     1       2.989   3.496  18.442  0.00  0.00    +0.000 A 
ATOM     21  C   UNL     1       3.711   4.470  17.731  0.00  0.00    +0.000 A 
ATOM     22  C   UNL     1       4.462   4.149  16.590  0.00  0.00    +0.000 A 
ENDBRANCH   7  13
TORSDOF 1
ENDMDL
MODEL 6
REMARK VINA RESULT:      -7.7      1.910      2.896
REMARK  Name = 
REMARK  1 active torsions:
REMARK  status: ('A' for Active; 'I' for Inactive)
REMARK    1  A    between atoms: C_7  and  C_8
REMARK                            x       y       z     vdW  Elec       q    Type
REMARK                         _______ _______ _______ _____ _____    ______ ____
ROOT
ATOM      1  N   UNL     1       8.785   5.936  13.094  0.00  0.00    +0.000 N 
ATOM      2  C   UNL     1       7.642   5.217  13.385  0.00  0.00    +0.000 A 
ATOM      3  N   UNL     1       7.323   4.224  12.574  0.00  0.00    +0.000 NA
ATOM      4  C   UNL     1       6.233   3.555  12.906  0.00  0.00    +0.000 A 
ATOM      5  N   UNL     1       5.844   2.516  12.085  0.00  0.00    +0.000 N 
ATOM      6  N   UNL     1       5.465   3.821  13.948  0.00  0.00    +0.000 NA
ATOM      7  C   UNL     1       5.881   4.832  14.711  0.00  0.00    +0.000 A 
ATOM      8  N   UNL     1       6.974   5.557  14.473  0.00  0.00    +0.000 NA
ATOM      9  H   UNL     1       9.413   5.380  12.529  0.00  0.00    +0.000 HD
ATOM     10  H   UNL     1       9.165   6.350  13.933  0.00  0.00    +0.000 HD
ATOM     11  H   UNL     1       6.216   2.646  11.154  0.00  0.00    +0.000 HD
ATOM     12  H   UNL     1       4.850   2.354  12.165  0.00  0.00    +0.000 HD
ENDROOT
BRANCH   7  13
ATOM     13  C   UNL     1       5.080   5.169  15.894  0.00  0.00    +0.000 A 
ATOM     14  C   UNL     1       5.034   6.463  16.407  0.00  0.00    +0.000 A 
ATOM     15  N   UNL     1       4.318   6.854  17.493  0.00  0.00    +0.000 NA
ATOM     16  C   UNL     1       3.593   5.925  18.135  0.00  0.00    +0.000 A 
ATOM     17  C   UNL     1       2.848   6.288  19.248  0.00  0.00    +0.000 A 
ATOM     18  C   UNL     1       2.083   5.356  19.955  0.00  0.00    +0.000 A 
ATOM     19  C   UNL     1       2.057   4.028  19.544  0.00  0.00    +0.000 A 
ATOM     20  C   UNL     1       2.794   3.639  18.427  0.00  0.00    +0.000 A 
ATOM     21  C   UNL     1       3.561   4.580  17.718  0.00  0.00    +0.000 A 
ATOM     22  C   UNL     1       4.314   4.221  16.588  0.00  0.00    +0.000 A 
ENDBRANCH   7  13
TORSDOF 1
ENDMDL
MODEL 7
REMARK VINA RESULT:      -7.5      2.263      3.239
REMARK  Name = 
REMARK  1 active torsions:
REMARK  status: ('A' for Active; 'I' for Inactive)
REMARK    1  A    between atoms: C_7  and  C_8
REMARK                            x       y       z     vdW  Elec       q    Type
REMARK                         _______ _______ _______ _____ _____    ______ ____
ROOT
ATOM      1  N   UNL     1       8.910   6.018  13.225  0.00  0.00    +0.000 N 
ATOM      2  C   UNL     1       7.773   5.276  13.481  0.00  0.00    +0.000 A 
ATOM      3  N   UNL     1       7.431   4.358  12.594  0.00  0.00    +0.000 NA
ATOM      4  C   UNL     1       6.348   3.663  12.894  0.00  0.00    +0.000 A 
ATOM      5  N   UNL     1       5.936   2.700  11.995  0.00  0.00    +0.000 N 
ATOM      6  N   UNL     1       5.607   3.837  13.975  0.00  0.00    +0.000 NA
ATOM      7  C   UNL     1       6.045   4.777  14.812  0.00  0.00    +0.000 A 
ATOM      8  N   UNL     1       7.133   5.520  14.611  0.00  0.00    +0.000 NA
ATOM      9  H   UNL     1       9.522   5.514  12.598  0.00  0.00    +0.000 HD
ATOM     10  H   UNL     1       9.312   6.357  14.087  0.00  0.00    +0.000 HD
ATOM     11  H   UNL     1       6.285   2.911  11.071  0.00  0.00    +0.000 HD
ATOM     12  H   UNL     1       4.944   2.532  12.086  0.00  0.00    +0.000 HD
ENDROOT
BRANCH   7  13
ATOM     13  C   UNL     1       5.275   5.009  16.041  0.00  0.00    +0.000 A 
ATOM     14  C   UNL     1       5.178   4.045  17.041  0.00  0.00    +0.000 A 
ATOM     15  N   UNL     1       4.489   4.183  18.203  0.00  0.00    +0.000 NA
ATOM     16  C   UNL     1       3.842   5.340  18.415  0.00  0.00    +0.000 A 
ATOM     17  C   UNL     1       3.128   5.518  19.593  0.00  0.00    +0.000 A 
ATOM     18  C   UNL     1       2.433   6.701  19.857  0.00  0.00    +0.000 A 
ATOM     19  C   UNL     1       2.446   7.735  18.927  0.00  0.00    +0.000 A 
ATOM     20  C   UNL     1       3.158   7.582  17.739  0.00  0.00    +0.000 A 
ATOM     21  C   UNL     1       3.859   6.391  17.477  0.00  0.00    +0.000 A 
ATOM     22  C   UNL     1       4.586   6.205  16.291  0.00  0.00    +0.000 A 
ENDBRANCH   7  13
TORSDOF 1
ENDMDL
MODEL 8
REMARK VINA RESULT:      -7.4      1.487      2.846
REMARK  Name = 
REMARK  1 active torsions:
REMARK  status: ('A' for Active; 'I' for Inactive)
REMARK    1  A    between atoms: C_7  and  C_8
REMARK                            x       y       z     vdW  Elec       q    Type
REMARK                         _______ _______ _______ _____ _____    ______ ____
ROOT
ATOM      1  N   UNL     1       7.402   5.069  14.627  0.00  0.00    +0.000 N 
ATOM      2  C   UNL     1       7.036   5.612  15.843  0.00  0.00    +0.000 A 
ATOM      3  N   UNL     1       7.789   6.583  16.329  0.00  0.00    +0.000 NA
ATOM      4  C   UNL     1       7.386   7.082  17.484  0.00  0.00    +0.000 A 
ATOM      5  N   UNL     1       8.145   8.089  18.046  0.00  0.00    +0.000 N 
ATOM      6  N   UNL     1       6.329   6.672  18.164  0.00  0.00    +0.000 NA
ATOM      7  C   UNL     1       5.629   5.699  17.581  0.00  0.00    +0.000 A 
ATOM      8  N   UNL     1       5.940   5.141  16.412  0.00  0.00    +0.000 NA
ATOM      9  H   UNL     1       7.965   5.727  14.106  0.00  0.00    +0.000 HD
ATOM     10  H   UNL     1       6.597   4.678  14.159  0.00  0.00    +0.000 HD
ATOM     11  H   UNL     1       9.094   8.048  17.701  0.00  0.00    +0.000 HD
ATOM     12  H   UNL     1       8.020   8.110  19.049  0.00  0.00    +0.000 HD
ENDROOT
BRANCH   7  13
ATOM     13  C   UNL     1       4.432   5.209  18.277  0.00  0.00    +0.000 A 
ATOM     14  C   UNL     1       3.930   5.841  19.412  0.00  0.00    +0.000 A 
ATOM     15  N   UNL     1       2.831   5.452  20.109  0.00  0.00    +0.000 NA
ATOM     16  C   UNL     1       2.167   4.368  19.679  0.00  0.00    +0.000 A 
ATOM     17  C   UNL     1       1.038   3.941  20.364  0.00  0.00    +0.000 A 
ATOM     18  C   UNL     1       0.317   2.815  19.960  0.00  0.00    +0.000 A 
ATOM     19  C   UNL     1       0.727   2.093  18.845  0.00  0.00    +0.000 A 
ATOM     20  C   UNL     1       1.855   2.503  18.138  0.00  0.00    +0.000 A 
ATOM     21  C   UNL     1       2.578   3.638  18.546  0.00  0.00    +0.000 A 
ATOM     22  C   UNL     1       3.717   4.079  17.854  0.00  0.00    +0.000 A 
ENDBRANCH   7  13
TORSDOF 1
ENDMDL
MODEL 9
REMARK VINA RESULT:      -7.4      2.191      3.631
REMARK  Name = 
REMARK  1 active torsions:
REMARK  status: ('A' for Active; 'I' for Inactive)
REMARK    1  A    between atoms: C_7  and  C_8
REMARK                            x       y       z     vdW  Elec       q    Type
REMARK                         _______ _______ _______ _____ _____    ______ ____
ROOT
ATOM      1  N   UNL     1       5.942   2.684  11.840  0.00  0.00    +0.000 N 
ATOM      2  C   UNL     1       6.343   3.623  12.769  0.00  0.00    +0.000 A 
ATOM      3  N   UNL     1       7.427   4.328  12.494  0.00  0.00    +0.000 NA
ATOM      4  C   UNL     1       7.758   5.226  13.405  0.00  0.00    +0.000 A 
ATOM      5  N   UNL     1       8.891   5.982  13.176  0.00  0.00    +0.000 N 
ATOM      6  N   UNL     1       7.109   5.439  14.537  0.00  0.00    +0.000 NA
ATOM      7  C   UNL     1       6.023   4.687  14.712  0.00  0.00    +0.000 A 
ATOM      8  N   UNL     1       5.594   3.767  13.848  0.00  0.00    +0.000 NA
ATOM      9  H   UNL     1       6.303   2.920  10.926  0.00  0.00    +0.000 HD
ATOM     10  H   UNL     1       4.948   2.517  11.913  0.00  0.00    +0.000 HD
ATOM     11  H   UNL     1       9.515   5.497  12.547  0.00  0.00    +0.000 HD
ATOM     12  H   UNL     1       9.280   6.310  14.049  0.00  0.00    +0.000 HD
ENDROOT
BRANCH   7  13
ATOM     13  C   UNL     1       5.246   4.885  15.942  0.00  0.00    +0.000 A 
ATOM     14  C   UNL     1       5.071   3.865  16.874  0.00  0.00    +0.000 A 
ATOM     15  N   UNL     1       4.371   3.969  18.033  0.00  0.00    +0.000 NA
ATOM     16  C   UNL     1       3.793   5.148  18.313  0.00  0.00    +0.000 A 
ATOM     17  C   UNL     1       3.070   5.292  19.490  0.00  0.00    +0.000 A 
ATOM     18  C   UNL     1       2.444   6.497  19.822  0.00  0.00    +0.000 A 
ATOM     19  C   UNL     1       2.538   7.586  18.964  0.00  0.00    +0.000 A 
ATOM     20  C   UNL     1       3.261   7.468  17.778  0.00  0.00    +0.000 A 
ATOM     21  C   UNL     1       3.892   6.255  17.448  0.00  0.00    +0.000 A 
ATOM     22  C   UNL     1       4.629   6.103  16.262  0.00  0.00    +0.000 A 
ENDBRANCH   7  13
TORSDOF 1
ENDMDL
