MODEL 1
REMARK VINA RESULT:      -8.3      0.000      0.000
REMARK  Name = 
REMARK  7 active torsions:
REMARK  status: ('A' for Active; 'I' for Inactive)
REMARK    1  A    between atoms: C_1  and  C_2
REMARK    2  A    between atoms: C_2  and  O_3
REMARK    3  A    between atoms: O_3  and  C_4
REMARK    4  A    between atoms: N_6  and  C_7
REMARK    5  A    between atoms: C_15  and  N_16
REMARK    6  A    between atoms: N_17  and  C_18
REMARK    7  A    between atoms: C_24  and  O_25
REMARK                            x       y       z     vdW  Elec       q    Type
REMARK                         _______ _______ _______ _____ _____    ______ ____
ROOT
ATOM      1  C   UNL     1       4.630   4.828  16.738  0.00  0.00    +0.000 A 
ATOM      2  C   UNL     1       4.130   3.569  17.090  0.00  0.00    +0.000 A 
ATOM      3  C   UNL     1       3.103   3.419  18.019  0.00  0.00    +0.000 A 
ATOM      4  C   UNL     1       2.638   2.125  18.322  0.00  0.00    +0.000 A 
ATOM      5  C   UNL     1       1.618   1.942  19.249  0.00  0.00    +0.000 A 
ATOM      6  C   UNL     1       1.050   3.046  19.870  0.00  0.00    +0.000 A 
ATOM      7  C   UNL     1       1.507   4.335  19.569  0.00  0.00    +0.000 A 
ATOM      8  C   UNL     1       2.547   4.555  18.641  0.00  0.00    +0.000 A 
ATOM      9  C   UNL     1       3.050   5.850  18.317  0.00  0.00    +0.000 A 
ATOM     10  C   UNL     1       4.082   5.965  17.353  0.00  0.00    +0.000 A 
ENDROOT
BRANCH   1  13
ATOM     11  C   UNL     1       7.010   4.910  16.092  0.00  0.00    +0.000 C 
ATOM     12  O   UNL     1       7.507   4.661  17.189  0.00  0.00    +0.000 OA
ATOM     13  N   UNL     1       5.674   4.964  15.796  0.00  0.00    +0.000 N 
ATOM     14  H   UNL     1       5.418   5.065  14.817  0.00  0.00    +0.000 HD
BRANCH  11  15
ATOM     15  O   UNL     1       7.763   5.217  15.003  0.00  0.00    +0.000 OA
BRANCH  15  17
ATOM     16  C   UNL     1       7.964   5.394  12.632  0.00  0.00    +0.000 C 
ATOM     17  C   UNL     1       7.121   4.849  13.772  0.00  0.00    +0.000 C 
ENDBRANCH  15  17
ENDBRANCH  11  15
ENDBRANCH   1  13
BRANCH   9  18
ATOM     18  N   UNL     1       2.456   6.977  18.957  0.00  0.00    +0.000 NA
ATOM     19  N   UNL     1       2.073   7.862  18.165  0.00  0.00    +0.000 NA
BRANCH  19  20
ATOM     20  C   UNL     1       1.653   9.047  18.814  0.00  0.00    +0.000 A 
ATOM     21  C   UNL     1       1.192   8.924  20.131  0.00  0.00    +0.000 A 
ATOM     22  C   UNL     1       0.737  10.034  20.847  0.00  0.00    +0.000 A 
ATOM     23  C   UNL     1       0.755  11.296  20.257  0.00  0.00    +0.000 A 
ATOM     24  C   UNL     1       1.224  11.443  18.953  0.00  0.00    +0.000 A 
ATOM     25  C   UNL     1       1.672  10.327  18.236  0.00  0.00    +0.000 A 
ENDBRANCH  19  20
ENDBRANCH   9  18
BRANCH  10  26
ATOM     26  O   UNL     1       4.548   7.189  16.938  0.00  0.00    +0.000 OA
ATOM     27  H   UNL     1       4.237   7.289  16.016  0.00  0.00    +0.000 HD
ENDBRANCH  10  26
TORSDOF 6
ENDMDL
MODEL 2
REMARK VINA RESULT:      -8.1      0.456      1.046
REMARK  Name = 
REMARK  7 active torsions:
REMARK  status: ('A' for Active; 'I' for Inactive)
REMARK    1  A    between atoms: C_1  and  C_2
REMARK    2  A    between atoms: C_2  and  O_3
REMARK    3  A    between atoms: O_3  and  C_4
REMARK    4  A    between atoms: N_6  and  C_7
REMARK    5  A    between atoms: C_15  and  N_16
REMARK    6  A    between atoms: N_17  and  C_18
REMARK    7  A    between atoms: C_24  and  O_25
REMARK                            x       y       z     vdW  Elec       q    Type
REMARK                         _______ _______ _______ _____ _____    ______ ____
ROOT
ATOM      1  C   UNL     1       4.579   4.710  17.081  0.00  0.00    +0.000 A 
ATOM      2  C   UNL     1       4.046   3.502  17.548  0.00  0.00    +0.000 A 
ATOM      3  C   UNL     1       3.031   3.467  18.501  0.00  0.00    +0.000 A 
ATOM      4  C   UNL     1       2.531   2.220  18.922  0.00  0.00    +0.000 A 
ATOM      5  C   UNL     1       1.521   2.151  19.875  0.00  0.00    +0.000 A 
ATOM      6  C   UNL     1       0.997   3.322  20.404  0.00  0.00    +0.000 A 
ATOM      7  C   UNL     1       1.489   4.564  19.986  0.00  0.00    +0.000 A 
ATOM      8  C   UNL     1       2.519   4.670  19.029  0.00  0.00    +0.000 A 
ATOM      9  C   UNL     1       3.057   5.915  18.586  0.00  0.00    +0.000 A 
ATOM     10  C   UNL     1       4.076   5.913  17.602  0.00  0.00    +0.000 A 
ENDROOT
BRANCH   1  13
ATOM     11  C   UNL     1       6.949   4.650  16.398  0.00  0.00    +0.000 C 
ATOM     12  O   UNL     1       7.455   4.471  17.505  0.00  0.00    +0.000 OA
ATOM     13  N   UNL     1       5.611   4.730  16.117  0.00  0.00    +0.000 N 
ATOM     14  H   UNL     1       5.343   4.761  15.136  0.00  0.00    +0.000 HD
BRANCH  11  15
ATOM     15  O   UNL     1       7.694   4.839  15.278  0.00  0.00    +0.000 OA
BRANCH  15  17
ATOM     16  C   UNL     1       7.807   5.184  12.920  0.00  0.00    +0.000 C 
ATOM     17  C   UNL     1       6.900   4.817  14.082  0.00  0.00    +0.000 C 
ENDBRANCH  15  17
ENDBRANCH  11  15
ENDBRANCH   1  13
BRANCH   9  18
ATOM     18  N   UNL     1       2.508   7.112  19.132  0.00  0.00    +0.000 NA
ATOM     19  N   UNL     1       2.021   7.879  18.278  0.00  0.00    +0.000 NA
BRANCH  19  20
ATOM     20  C   UNL     1       1.644   9.136  18.807  0.00  0.00    +0.000 A 
ATOM     21  C   UNL     1       1.988  10.270  18.061  0.00  0.00    +0.000 A 
ATOM     22  C   UNL     1       1.676  11.557  18.512  0.00  0.00    +0.000 A 
ATOM     23  C   UNL     1       0.995  11.725  19.715  0.00  0.00    +0.000 A 
ATOM     24  C   UNL     1       0.630  10.608  20.465  0.00  0.00    +0.000 A 
ATOM     25  C   UNL     1       0.950   9.322  20.014  0.00  0.00    +0.000 A 
ENDBRANCH  19  20
ENDBRANCH   9  18
BRANCH  10  26
ATOM     26  O   UNL     1       4.572   7.081  17.075  0.00  0.00    +0.000 OA
ATOM     27  H   UNL     1       5.181   6.808  16.361  0.00  0.00    +0.000 HD
ENDBRANCH  10  26
TORSDOF 6
ENDMDL
MODEL 3
REMARK VINA RESULT:      -7.6      1.167      1.190
REMARK  Name = 
REMARK  7 active torsions:
REMARK  status: ('A' for Active; 'I' for Inactive)
REMARK    1  A    between atoms: C_1  and  C_2
REMARK    2  A    between atoms: C_2  and  O_3
REMARK    3  A    between atoms: O_3  and  C_4
REMARK    4  A    between atoms: N_6  and  C_7
REMARK    5  A    between atoms: C_15  and  N_16
REMARK    6  A    between atoms: N_17  and  C_18
REMARK    7  A    between atoms: C_24  and  O_25
REMARK                            x       y       z     vdW  Elec       q    Type
REMARK                         _______ _______ _______ _____ _____    ______ ____
ROOT
ATOM      1  C   UNL     1       4.756   4.512  17.593  0.00  0.00    +0.000 A 
ATOM      2  C   UNL     1       4.611   3.494  18.544  0.00  0.00    +0.000 A 
ATOM      3  C   UNL     1       3.614   3.534  19.516  0.00  0.00    +0.000 A 
ATOM      4  C   UNL     1       3.515   2.474  20.437  0.00  0.00    +0.000 A 
ATOM      5  C   UNL     1       2.533   2.486  21.423  0.00  0.00    +0.000 A 
ATOM      6  C   UNL     1       1.641   3.547  21.488  0.00  0.00    +0.000 A 
ATOM      7  C   UNL     1       1.734   4.602  20.572  0.00  0.00    +0.000 A 
ATOM      8  C   UNL     1       2.723   4.625  19.567  0.00  0.00    +0.000 A 
ATOM      9  C   UNL     1       2.860   5.686  18.623  0.00  0.00    +0.000 A 
ATOM     10  C   UNL     1       3.873   5.603  17.636  0.00  0.00    +0.000 A 
ENDROOT
BRANCH   1  13
ATOM     11  C   UNL     1       7.115   4.539  16.875  0.00  0.00    +0.000 C 
ATOM     12  O   UNL     1       7.645   4.587  17.984  0.00  0.00    +0.000 OA
ATOM     13  N   UNL     1       5.773   4.460  16.615  0.00  0.00    +0.000 N 
ATOM     14  H   UNL     1       5.494   4.307  15.649  0.00  0.00    +0.000 HD
BRANCH  11  15
ATOM     15  O   UNL     1       7.832   4.603  15.722  0.00  0.00    +0.000 OA
BRANCH  15  17
ATOM     16  C   UNL     1       7.867   5.228  13.419  0.00  0.00    +0.000 C 
ATOM     17  C   UNL     1       6.994   4.745  14.564  0.00  0.00    +0.000 C 
ENDBRANCH  15  17
ENDBRANCH  11  15
ENDBRANCH   1  13
BRANCH   9  18
ATOM     18  N   UNL     1       1.935   6.769  18.696  0.00  0.00    +0.000 NA
ATOM     19  N   UNL     1       2.432   7.829  19.124  0.00  0.00    +0.000 NA
BRANCH  19  20
ATOM     20  C   UNL     1       1.472   8.840  19.362  0.00  0.00    +0.000 A 
ATOM     21  C   UNL     1       0.984   8.961  20.669  0.00  0.00    +0.000 A 
ATOM     22  C   UNL     1       0.018   9.917  20.998  0.00  0.00    +0.000 A 
ATOM     23  C   UNL     1      -0.462  10.783  20.019  0.00  0.00    +0.000 A 
ATOM     24  C   UNL     1       0.021  10.690  18.715  0.00  0.00    +0.000 A 
ATOM     25  C   UNL     1       0.983   9.727  18.389  0.00  0.00    +0.000 A 
ENDBRANCH  19  20
ENDBRANCH   9  18
BRANCH  10  26
ATOM     26  O   UNL     1       3.999   6.551  16.650  0.00  0.00    +0.000 OA
ATOM     27  H   UNL     1       4.808   6.310  16.156  0.00  0.00    +0.000 HD
ENDBRANCH  10  26
TORSDOF 6
ENDMDL
MODEL 4
REMARK VINA RESULT:      -7.5      0.989      1.221
REMARK  Name = 
REMARK  7 active torsions:
REMARK  status: ('A' for Active; 'I' for Inactive)
REMARK    1  A    between atoms: C_1  and  C_2
REMARK    2  A    between atoms: C_2  and  O_3
REMARK    3  A    between atoms: O_3  and  C_4
REMARK    4  A    between atoms: N_6  and  C_7
REMARK    5  A    between atoms: C_15  and  N_16
REMARK    6  A    between atoms: N_17  and  C_18
REMARK    7  A    between atoms: C_24  and  O_25
REMARK                            x       y       z     vdW  Elec       q    Type
REMARK                         _______ _______ _______ _____ _____    ______ ____
ROOT
ATOM      1  C   UNL     1       4.860   4.945  16.967  0.00  0.00    +0.000 A 
ATOM      2  C   UNL     1       4.475   3.642  17.307  0.00  0.00    +0.000 A 
ATOM      3  C   UNL     1       3.308   3.384  18.022  0.00  0.00    +0.000 A 
ATOM      4  C   UNL     1       2.972   2.051  18.323  0.00  0.00    +0.000 A 
ATOM      5  C   UNL     1       1.816   1.760  19.041  0.00  0.00    +0.000 A 
ATOM      6  C   UNL     1       0.986   2.794  19.451  0.00  0.00    +0.000 A 
ATOM      7  C   UNL     1       1.315   4.122  19.150  0.00  0.00    +0.000 A 
ATOM      8  C   UNL     1       2.484   4.451  18.434  0.00  0.00    +0.000 A 
ATOM      9  C   UNL     1       2.862   5.791  18.119  0.00  0.00    +0.000 A 
ATOM     10  C   UNL     1       4.046   6.014  17.373  0.00  0.00    +0.000 A 
ENDROOT
BRANCH   1  13
ATOM     11  C   UNL     1       6.201   4.993  14.898  0.00  0.00    +0.000 C 
ATOM     12  O   UNL     1       5.327   4.651  14.103  0.00  0.00    +0.000 OA
ATOM     13  N   UNL     1       6.048   5.192  16.244  0.00  0.00    +0.000 N 
ATOM     14  H   UNL     1       6.836   5.589  16.749  0.00  0.00    +0.000 HD
BRANCH  11  15
ATOM     15  O   UNL     1       7.494   5.183  14.522  0.00  0.00    +0.000 OA
BRANCH  15  17
ATOM     16  C   UNL     1       8.414   6.013  12.483  0.00  0.00    +0.000 C 
ATOM     17  C   UNL     1       7.720   4.836  13.146  0.00  0.00    +0.000 C 
ENDBRANCH  15  17
ENDBRANCH  11  15
ENDBRANCH   1  13
BRANCH   9  18
ATOM     18  N   UNL     1       1.999   6.845  18.540  0.00  0.00    +0.000 NA
ATOM     19  N   UNL     1       2.456   7.524  19.482  0.00  0.00    +0.000 NA
BRANCH  19  20
ATOM     20  C   UNL     1       1.522   8.447  20.009  0.00  0.00    +0.000 A 
ATOM     21  C   UNL     1       1.175   8.303  21.358  0.00  0.00    +0.000 A 
ATOM     22  C   UNL     1       0.246   9.154  21.963  0.00  0.00    +0.000 A 
ATOM     23  C   UNL     1      -0.339  10.179  21.225  0.00  0.00    +0.000 A 
ATOM     24  C   UNL     1       0.003  10.350  19.884  0.00  0.00    +0.000 A 
ATOM     25  C   UNL     1       0.929   9.491  19.280  0.00  0.00    +0.000 A 
ENDBRANCH  19  20
ENDBRANCH   9  18
BRANCH  10  26
ATOM     26  O   UNL     1       4.416   7.274  16.967  0.00  0.00    +0.000 OA
ATOM     27  H   UNL     1       4.935   7.645  17.707  0.00  0.00    +0.000 HD
ENDBRANCH  10  26
TORSDOF 6
ENDMDL
MODEL 5
REMARK VINA RESULT:      -7.5      1.192      1.269
REMARK  Name = 
REMARK  7 active torsions:
REMARK  status: ('A' for Active; 'I' for Inactive)
REMARK    1  A    between atoms: C_1  and  C_2
REMARK    2  A    between atoms: C_2  and  O_3
REMARK    3  A    between atoms: O_3  and  C_4
REMARK    4  A    between atoms: N_6  and  C_7
REMARK    5  A    between atoms: C_15  and  N_16
REMARK    6  A    between atoms: N_17  and  C_18
REMARK    7  A    between atoms: C_24  and  O_25
REMARK                            x       y       z     vdW  Elec       q    Type
REMARK                         _______ _______ _______ _____ _____    ______ ____
ROOT
ATOM      1  C   UNL     1       4.768   5.248  17.153  0.00  0.00    +0.000 A 
ATOM      2  C   UNL     1       4.530   4.123  17.952  0.00  0.00    +0.000 A 
ATOM      3  C   UNL     1       3.620   4.150  19.007  0.00  0.00    +0.000 A 
ATOM      4  C   UNL     1       3.419   2.982  19.766  0.00  0.00    +0.000 A 
ATOM      5  C   UNL     1       2.521   2.978  20.829  0.00  0.00    +0.000 A 
ATOM      6  C   UNL     1       1.813   4.133  21.132  0.00  0.00    +0.000 A 
ATOM      7  C   UNL     1       2.008   5.295  20.377  0.00  0.00    +0.000 A 
ATOM      8  C   UNL     1       2.917   5.336  19.300  0.00  0.00    +0.000 A 
ATOM      9  C   UNL     1       3.154   6.504  18.514  0.00  0.00    +0.000 A 
ATOM     10  C   UNL     1       4.073   6.434  17.438  0.00  0.00    +0.000 A 
ENDROOT
BRANCH   1  13
ATOM     11  C   UNL     1       7.050   5.069  16.235  0.00  0.00    +0.000 C 
ATOM     12  O   UNL     1       7.659   4.884  17.288  0.00  0.00    +0.000 OA
ATOM     13  N   UNL     1       5.696   5.206  16.089  0.00  0.00    +0.000 N 
ATOM     14  H   UNL     1       5.330   5.235  15.140  0.00  0.00    +0.000 HD
BRANCH  11  15
ATOM     15  O   UNL     1       7.685   5.208  15.041  0.00  0.00    +0.000 OA
BRANCH  15  17
ATOM     16  C   UNL     1       7.626   5.070  12.660  0.00  0.00    +0.000 C 
ATOM     17  C   UNL     1       6.909   4.696  13.946  0.00  0.00    +0.000 C 
ENDBRANCH  15  17
ENDBRANCH  11  15
ENDBRANCH   1  13
BRANCH   9  18
ATOM     18  N   UNL     1       2.417   7.683  18.831  0.00  0.00    +0.000 NA
ATOM     19  N   UNL     1       1.841   8.196  17.851  0.00  0.00    +0.000 NA
BRANCH  19  20
ATOM     20  C   UNL     1       1.266   9.457  18.139  0.00  0.00    +0.000 A 
ATOM     21  C   UNL     1      -0.129   9.549  18.077  0.00  0.00    +0.000 A 
ATOM     22  C   UNL     1      -0.788  10.757  18.325  0.00  0.00    +0.000 A 
ATOM     23  C   UNL     1      -0.053  11.892  18.660  0.00  0.00    +0.000 A 
ATOM     24  C   UNL     1       1.336  11.818  18.741  0.00  0.00    +0.000 A 
ATOM     25  C   UNL     1       1.992  10.608  18.485  0.00  0.00    +0.000 A 
ENDBRANCH  19  20
ENDBRANCH   9  18
BRANCH  10  26
ATOM     26  O   UNL     1       4.278   7.500  16.595  0.00  0.00    +0.000 OA
ATOM     27  H   UNL     1       5.144   7.873  16.852  0.00  0.00    +0.000 HD
ENDBRANCH  10  26
TORSDOF 6
ENDMDL
MODEL 6
REMARK VINA RESULT:      -7.5      0.727      1.311
REMARK  Name = 
REMARK  7 active torsions:
REMARK  status: ('A' for Active; 'I' for Inactive)
REMARK    1  A    between atoms: C_1  and  C_2
REMARK    2  A    between atoms: C_2  and  O_3
REMARK    3  A    between atoms: O_3  and  C_4
REMARK    4  A    between atoms: N_6  and  C_7
REMARK    5  A    between atoms: C_15  and  N_16
REMARK    6  A    between atoms: N_17  and  C_18
REMARK    7  A    between atoms: C_24  and  O_25
REMARK                            x       y       z     vdW  Elec       q    Type
REMARK                         _______ _______ _______ _____ _____    ______ ____
ROOT
ATOM      1  C   UNL     1       4.892   4.978  16.985  0.00  0.00    +0.000 A 
ATOM      2  C   UNL     1       4.374   3.690  17.159  0.00  0.00    +0.000 A 
ATOM      3  C   UNL     1       3.234   3.453  17.924  0.00  0.00    +0.000 A 
ATOM      4  C   UNL     1       2.758   2.134  18.051  0.00  0.00    +0.000 A 
ATOM      5  C   UNL     1       1.625   1.864  18.812  0.00  0.00    +0.000 A 
ATOM      6  C   UNL     1       0.955   2.907  19.438  0.00  0.00    +0.000 A 
ATOM      7  C   UNL     1       1.424   4.220  19.310  0.00  0.00    +0.000 A 
ATOM      8  C   UNL     1       2.575   4.527  18.555  0.00  0.00    +0.000 A 
ATOM      9  C   UNL     1       3.092   5.849  18.411  0.00  0.00    +0.000 A 
ATOM     10  C   UNL     1       4.242   6.054  17.611  0.00  0.00    +0.000 A 
ENDROOT
BRANCH   1  13
ATOM     11  C   UNL     1       6.193   4.854  14.893  0.00  0.00    +0.000 C 
ATOM     12  O   UNL     1       5.326   4.371  14.165  0.00  0.00    +0.000 OA
ATOM     13  N   UNL     1       6.051   5.203  16.209  0.00  0.00    +0.000 N 
ATOM     14  H   UNL     1       6.823   5.701  16.645  0.00  0.00    +0.000 HD
BRANCH  11  15
ATOM     15  O   UNL     1       7.465   5.069  14.466  0.00  0.00    +0.000 OA
BRANCH  15  17
ATOM     16  C   UNL     1       8.569   5.999  12.567  0.00  0.00    +0.000 C 
ATOM     17  C   UNL     1       7.594   4.936  13.042  0.00  0.00    +0.000 C 
ENDBRANCH  15  17
ENDBRANCH  11  15
ENDBRANCH   1  13
BRANCH   9  18
ATOM     18  N   UNL     1       2.393   6.913  19.055  0.00  0.00    +0.000 NA
ATOM     19  N   UNL     1       2.098   7.856  18.293  0.00  0.00    +0.000 NA
BRANCH  19  20
ATOM     20  C   UNL     1       1.570   8.978  18.973  0.00  0.00    +0.000 A 
ATOM     21  C   UNL     1       1.537  10.190  18.273  0.00  0.00    +0.000 A 
ATOM     22  C   UNL     1       1.052  11.359  18.867  0.00  0.00    +0.000 A 
ATOM     23  C   UNL     1       0.571  11.325  20.174  0.00  0.00    +0.000 A 
ATOM     24  C   UNL     1       0.581  10.125  20.884  0.00  0.00    +0.000 A 
ATOM     25  C   UNL     1       1.074   8.958  20.287  0.00  0.00    +0.000 A 
ENDBRANCH  19  20
ENDBRANCH   9  18
BRANCH  10  26
ATOM     26  O   UNL     1       4.735   7.313  17.366  0.00  0.00    +0.000 OA
ATOM     27  H   UNL     1       5.655   7.303  17.696  0.00  0.00    +0.000 HD
ENDBRANCH  10  26
TORSDOF 6
ENDMDL
MODEL 7
REMARK VINA RESULT:      -7.2      0.995      1.600
REMARK  Name = 
REMARK  7 active torsions:
REMARK  status: ('A' for Active; 'I' for Inactive)
REMARK    1  A    between atoms: C_1  and  C_2
REMARK    2  A    between atoms: C_2  and  O_3
REMARK    3  A    between atoms: O_3  and  C_4
REMARK    4  A    between atoms: N_6  and  C_7
REMARK    5  A    between atoms: C_15  and  N_16
REMARK    6  A    between atoms: N_17  and  C_18
REMARK    7  A    between atoms: C_24  and  O_25
REMARK                            x       y       z     vdW  Elec       q    Type
REMARK                         _______ _______ _______ _____ _____    ______ ____
ROOT
ATOM      1  C   UNL     1       4.876   4.937  17.537  0.00  0.00    +0.000 A 
ATOM      2  C   UNL     1       4.382   3.691  17.938  0.00  0.00    +0.000 A 
ATOM      3  C   UNL     1       3.199   3.568  18.664  0.00  0.00    +0.000 A 
ATOM      4  C   UNL     1       2.751   2.284  19.028  0.00  0.00    +0.000 A 
ATOM      5  C   UNL     1       1.576   2.129  19.757  0.00  0.00    +0.000 A 
ATOM      6  C   UNL     1       0.840   3.249  20.116  0.00  0.00    +0.000 A 
ATOM      7  C   UNL     1       1.281   4.527  19.753  0.00  0.00    +0.000 A 
ATOM      8  C   UNL     1       2.472   4.720  19.023  0.00  0.00    +0.000 A 
ATOM      9  C   UNL     1       2.962   6.006  18.645  0.00  0.00    +0.000 A 
ATOM     10  C   UNL     1       4.158   6.091  17.890  0.00  0.00    +0.000 A 
ENDROOT
BRANCH   1  13
ATOM     11  C   UNL     1       6.184   5.575  15.545  0.00  0.00    +0.000 C 
ATOM     12  O   UNL     1       5.283   6.102  14.893  0.00  0.00    +0.000 OA
ATOM     13  N   UNL     1       6.079   5.047  16.803  0.00  0.00    +0.000 N 
ATOM     14  H   UNL     1       6.940   4.753  17.259  0.00  0.00    +0.000 HD
BRANCH  11  15
ATOM     15  O   UNL     1       7.440   5.411  15.051  0.00  0.00    +0.000 OA
BRANCH  15  17
ATOM     16  C   UNL     1       8.270   5.666  12.829  0.00  0.00    +0.000 C 
ATOM     17  C   UNL     1       7.441   4.793  13.754  0.00  0.00    +0.000 C 
ENDBRANCH  15  17
ENDBRANCH  11  15
ENDBRANCH   1  13
BRANCH   9  18
ATOM     18  N   UNL     1       2.195   7.149  19.015  0.00  0.00    +0.000 NA
ATOM     19  N   UNL     1       2.303   7.462  20.218  0.00  0.00    +0.000 NA
BRANCH  19  20
ATOM     20  C   UNL     1       1.404   8.480  20.613  0.00  0.00    +0.000 A 
ATOM     21  C   UNL     1       0.948   9.350  19.615  0.00  0.00    +0.000 A 
ATOM     22  C   UNL     1       0.073  10.399  19.912  0.00  0.00    +0.000 A 
ATOM     23  C   UNL     1      -0.374  10.581  21.218  0.00  0.00    +0.000 A 
ATOM     24  C   UNL     1       0.056   9.717  22.224  0.00  0.00    +0.000 A 
ATOM     25  C   UNL     1       0.937   8.672  21.924  0.00  0.00    +0.000 A 
ENDBRANCH  19  20
ENDBRANCH   9  18
BRANCH  10  26
ATOM     26  O   UNL     1       4.634   7.293  17.425  0.00  0.00    +0.000 OA
ATOM     27  H   UNL     1       5.261   7.608  18.106  0.00  0.00    +0.000 HD
ENDBRANCH  10  26
TORSDOF 6
ENDMDL
MODEL 8
REMARK VINA RESULT:      -7.1      1.641      2.086
REMARK  Name = 
REMARK  7 active torsions:
REMARK  status: ('A' for Active; 'I' for Inactive)
REMARK    1  A    between atoms: C_1  and  C_2
REMARK    2  A    between atoms: C_2  and  O_3
REMARK    3  A    between atoms: O_3  and  C_4
REMARK    4  A    between atoms: N_6  and  C_7
REMARK    5  A    between atoms: C_15  and  N_16
REMARK    6  A    between atoms: N_17  and  C_18
REMARK    7  A    between atoms: C_24  and  O_25
REMARK                            x       y       z     vdW  Elec       q    Type
REMARK                         _______ _______ _______ _____ _____    ______ ____
ROOT
ATOM      1  C   UNL     1       4.392   5.614  17.846  0.00  0.00    +0.000 A 
ATOM      2  C   UNL     1       4.507   4.358  18.453  0.00  0.00    +0.000 A 
ATOM      3  C   UNL     1       3.700   3.983  19.525  0.00  0.00    +0.000 A 
ATOM      4  C   UNL     1       3.860   2.701  20.085  0.00  0.00    +0.000 A 
ATOM      5  C   UNL     1       3.072   2.299  21.159  0.00  0.00    +0.000 A 
ATOM      6  C   UNL     1       2.117   3.166  21.671  0.00  0.00    +0.000 A 
ATOM      7  C   UNL     1       1.953   4.440  21.115  0.00  0.00    +0.000 A 
ATOM      8  C   UNL     1       2.742   4.883  20.032  0.00  0.00    +0.000 A 
ATOM      9  C   UNL     1       2.615   6.177  19.445  0.00  0.00    +0.000 A 
ATOM     10  C   UNL     1       3.440   6.517  18.344  0.00  0.00    +0.000 A 
ENDROOT
BRANCH   1  13
ATOM     11  C   UNL     1       5.412   5.231  15.633  0.00  0.00    +0.000 C 
ATOM     12  O   UNL     1       4.847   4.175  15.349  0.00  0.00    +0.000 OA
ATOM     13  N   UNL     1       5.219   5.981  16.761  0.00  0.00    +0.000 N 
ATOM     14  H   UNL     1       5.672   6.891  16.798  0.00  0.00    +0.000 HD
BRANCH  11  15
ATOM     15  O   UNL     1       6.370   5.780  14.840  0.00  0.00    +0.000 OA
BRANCH  15  17
ATOM     16  C   UNL     1       7.779   5.367  12.959  0.00  0.00    +0.000 C 
ATOM     17  C   UNL     1       7.226   4.789  14.251  0.00  0.00    +0.000 C 
ENDBRANCH  15  17
ENDBRANCH  11  15
ENDBRANCH   1  13
BRANCH   9  18
ATOM     18  N   UNL     1       1.627   7.058  19.976  0.00  0.00    +0.000 NA
ATOM     19  N   UNL     1       2.025   8.230  20.128  0.00  0.00    +0.000 NA
BRANCH  19  20
ATOM     20  C   UNL     1       1.101   9.049  20.819  0.00  0.00    +0.000 A 
ATOM     21  C   UNL     1       0.451  10.042  20.076  0.00  0.00    +0.000 A 
ATOM     22  C   UNL     1      -0.465  10.913  20.675  0.00  0.00    +0.000 A 
ATOM     23  C   UNL     1      -0.756  10.788  22.031  0.00  0.00    +0.000 A 
ATOM     24  C   UNL     1      -0.131   9.796  22.785  0.00  0.00    +0.000 A 
ATOM     25  C   UNL     1       0.790   8.930  22.183  0.00  0.00    +0.000 A 
ENDBRANCH  19  20
ENDBRANCH   9  18
BRANCH  10  26
ATOM     26  O   UNL     1       3.305   7.715  17.685  0.00  0.00    +0.000 OA
ATOM     27  H   UNL     1       2.546   7.597  17.080  0.00  0.00    +0.000 HD
ENDBRANCH  10  26
TORSDOF 6
ENDMDL
MODEL 9
REMARK VINA RESULT:      -7.1      1.551      1.762
REMARK  Name = 
REMARK  7 active torsions:
REMARK  status: ('A' for Active; 'I' for Inactive)
REMARK    1  A    between atoms: C_1  and  C_2
REMARK    2  A    between atoms: C_2  and  O_3
REMARK    3  A    between atoms: O_3  and  C_4
REMARK    4  A    between atoms: N_6  and  C_7
REMARK    5  A    between atoms: C_15  and  N_16
REMARK    6  A    between atoms: N_17  and  C_18
REMARK    7  A    between atoms: C_24  and  O_25
REMARK                            x       y       z     vdW  Elec       q    Type
REMARK                         _______ _______ _______ _____ _____    ______ ____
ROOT
ATOM      1  C   UNL     1       4.408   5.481  17.767  0.00  0.00    +0.000 A 
ATOM      2  C   UNL     1       4.516   4.241  18.408  0.00  0.00    +0.000 A 
ATOM      3  C   UNL     1       3.712   3.902  19.493  0.00  0.00    +0.000 A 
ATOM      4  C   UNL     1       3.863   2.634  20.086  0.00  0.00    +0.000 A 
ATOM      5  C   UNL     1       3.078   2.268  21.175  0.00  0.00    +0.000 A 
ATOM      6  C   UNL     1       2.133   3.157  21.668  0.00  0.00    +0.000 A 
ATOM      7  C   UNL     1       1.977   4.417  21.079  0.00  0.00    +0.000 A 
ATOM      8  C   UNL     1       2.764   4.824  19.981  0.00  0.00    +0.000 A 
ATOM      9  C   UNL     1       2.645   6.103  19.359  0.00  0.00    +0.000 A 
ATOM     10  C   UNL     1       3.467   6.405  18.246  0.00  0.00    +0.000 A 
ENDROOT
BRANCH   1  13
ATOM     11  C   UNL     1       5.848   4.904  15.848  0.00  0.00    +0.000 C 
ATOM     12  O   UNL     1       5.720   3.681  15.883  0.00  0.00    +0.000 OA
ATOM     13  N   UNL     1       5.234   5.812  16.669  0.00  0.00    +0.000 N 
ATOM     14  H   UNL     1       5.346   6.796  16.441  0.00  0.00    +0.000 HD
BRANCH  11  15
ATOM     15  O   UNL     1       6.685   5.524  14.976  0.00  0.00    +0.000 OA
BRANCH  15  17
ATOM     16  C   UNL     1       7.994   5.455  12.982  0.00  0.00    +0.000 C 
ATOM     17  C   UNL     1       6.947   4.729  13.809  0.00  0.00    +0.000 C 
ENDBRANCH  15  17
ENDBRANCH  11  15
ENDBRANCH   1  13
BRANCH   9  18
ATOM     18  N   UNL     1       1.668   7.006  19.871  0.00  0.00    +0.000 NA
ATOM     19  N   UNL     1       2.098   8.162  20.058  0.00  0.00    +0.000 NA
BRANCH  19  20
ATOM     20  C   UNL     1       1.177   8.999  20.731  0.00  0.00    +0.000 A 
ATOM     21  C   UNL     1       1.033   8.808  22.110  0.00  0.00    +0.000 A 
ATOM     22  C   UNL     1       0.133   9.572  22.858  0.00  0.00    +0.000 A 
ATOM     23  C   UNL     1      -0.627  10.558  22.234  0.00  0.00    +0.000 A 
ATOM     24  C   UNL     1      -0.488  10.775  20.864  0.00  0.00    +0.000 A 
ATOM     25  C   UNL     1       0.410  10.003  20.117  0.00  0.00    +0.000 A 
ENDBRANCH  19  20
ENDBRANCH   9  18
BRANCH  10  26
ATOM     26  O   UNL     1       3.339   7.586  17.555  0.00  0.00    +0.000 OA
ATOM     27  H   UNL     1       4.227   7.773  17.190  0.00  0.00    +0.000 HD
ENDBRANCH  10  26
TORSDOF 6
ENDMDL
