MODEL 1
REMARK VINA RESULT:      -8.1      0.000      0.000
REMARK  Name = 
REMARK  4 active torsions:
REMARK  status: ('A' for Active; 'I' for Inactive)
REMARK    1  A    between atoms: C_2  and  C_13
REMARK    2  A    between atoms: N_3  and  C_4
REMARK    3  A    between atoms: C_16  and  O_17
REMARK    4  A    between atoms: O_17  and  C_18
REMARK                            x       y       z     vdW  Elec       q    Type
REMARK                         _______ _______ _______ _____ _____    ______ ____
ROOT
ATOM      1  O   UNL     1       2.048   5.648  19.247  0.00  0.00    +0.000 OA
ATOM      2  C   UNL     1       2.696   6.387  18.516  0.00  0.00    +0.000 C 
ATOM      3  N   UNL     1       2.566   7.761  18.390  0.00  0.00    +0.000 N 
ATOM      4  H   UNL     1       3.019   8.201  17.600  0.00  0.00    +0.000 HD
ENDROOT
BRANCH   3   5
ATOM      5  C   UNL     1       1.662   8.570  19.115  0.00  0.00    +0.000 A 
ATOM      6  C   UNL     1       0.892   9.577  18.507  0.00  0.00    +0.000 A 
ATOM      7  C   UNL     1       0.079  10.422  19.264  0.00  0.00    +0.000 A 
ATOM      8  C   UNL     1       0.033  10.236  20.629  0.00  0.00    +0.000 A 
ATOM      9  C   UNL     1       0.753   9.208  21.242  0.00  0.00    +0.000 A 
ATOM     10  C   UNL     1       1.561   8.359  20.498  0.00  0.00    +0.000 A 
ATOM     11  C   UNL     1       0.585   9.264  22.729  0.00  0.00    +0.000 C 
ATOM     12  C   UNL     1      -0.661  10.152  22.862  0.00  0.00    +0.000 C 
ATOM     13  C   UNL     1      -0.674  11.080  21.641  0.00  0.00    +0.000 C 
ENDBRANCH   3   5
BRANCH   2  14
ATOM     14  C   UNL     1       3.678   5.757  17.599  0.00  0.00    +0.000 A 
ATOM     15  C   UNL     1       3.701   4.361  17.508  0.00  0.00    +0.000 A 
ATOM     16  C   UNL     1       4.594   3.733  16.639  0.00  0.00    +0.000 A 
ATOM     17  C   UNL     1       5.469   4.492  15.856  0.00  0.00    +0.000 A 
ATOM     18  C   UNL     1       5.500   5.879  16.008  0.00  0.00    +0.000 A 
ATOM     19  C   UNL     1       4.594   6.515  16.865  0.00  0.00    +0.000 A 
BRANCH  17  20
ATOM     20  O   UNL     1       6.294   3.772  15.050  0.00  0.00    +0.000 OA
BRANCH  20  21
ATOM     21  C   UNL     1       6.219   3.964  13.643  0.00  0.00    +0.000 C 
ATOM     22  F   UNL     1       6.981   4.975  13.172  0.00  0.00    +0.000 F 
ATOM     23  F   UNL     1       6.589   2.823  13.024  0.00  0.00    +0.000 F 
ATOM     24  F   UNL     1       4.934   4.229  13.309  0.00  0.00    +0.000 F 
ENDBRANCH  20  21
ENDBRANCH  17  20
ENDBRANCH   2  14
TORSDOF 4
ENDMDL
MODEL 2
REMARK VINA RESULT:      -7.9      0.602      1.161
REMARK  Name = 
REMARK  4 active torsions:
REMARK  status: ('A' for Active; 'I' for Inactive)
REMARK    1  A    between atoms: C_2  and  C_13
REMARK    2  A    between atoms: N_3  and  C_4
REMARK    3  A    between atoms: C_16  and  O_17
REMARK    4  A    between atoms: O_17  and  C_18
REMARK                            x       y       z     vdW  Elec       q    Type
REMARK                         _______ _______ _______ _____ _____    ______ ____
ROOT
ATOM      1  O   UNL     1       2.017   5.823  20.038  0.00  0.00    +0.000 OA
ATOM      2  C   UNL     1       2.527   6.438  19.110  0.00  0.00    +0.000 C 
ATOM      3  N   UNL     1       2.316   7.765  18.770  0.00  0.00    +0.000 N 
ATOM      4  H   UNL     1       2.640   8.070  17.861  0.00  0.00    +0.000 HD
ENDROOT
BRANCH   3   5
ATOM      5  C   UNL     1       1.477   8.666  19.463  0.00  0.00    +0.000 A 
ATOM      6  C   UNL     1       0.892   9.784  18.845  0.00  0.00    +0.000 A 
ATOM      7  C   UNL     1       0.146  10.709  19.577  0.00  0.00    +0.000 A 
ATOM      8  C   UNL     1      -0.021  10.491  20.928  0.00  0.00    +0.000 A 
ATOM      9  C   UNL     1       0.512   9.358  21.548  0.00  0.00    +0.000 A 
ATOM     10  C   UNL     1       1.252   8.431  20.827  0.00  0.00    +0.000 A 
ATOM     11  C   UNL     1       0.248   9.393  23.022  0.00  0.00    +0.000 C 
ATOM     12  C   UNL     1      -0.877  10.436  23.105  0.00  0.00    +0.000 C 
ATOM     13  C   UNL     1      -0.681  11.392  21.923  0.00  0.00    +0.000 C 
ENDBRANCH   3   5
BRANCH   2  14
ATOM     14  C   UNL     1       3.410   5.681  18.187  0.00  0.00    +0.000 A 
ATOM     15  C   UNL     1       4.485   6.353  17.596  0.00  0.00    +0.000 A 
ATOM     16  C   UNL     1       5.350   5.670  16.741  0.00  0.00    +0.000 A 
ATOM     17  C   UNL     1       5.150   4.313  16.471  0.00  0.00    +0.000 A 
ATOM     18  C   UNL     1       4.031   3.665  16.997  0.00  0.00    +0.000 A 
ATOM     19  C   UNL     1       3.170   4.341  17.869  0.00  0.00    +0.000 A 
BRANCH  17  20
ATOM     20  O   UNL     1       6.054   3.753  15.623  0.00  0.00    +0.000 OA
BRANCH  20  21
ATOM     21  C   UNL     1       6.093   4.194  14.272  0.00  0.00    +0.000 C 
ATOM     22  F   UNL     1       6.902   5.252  14.048  0.00  0.00    +0.000 F 
ATOM     23  F   UNL     1       6.497   3.172  13.489  0.00  0.00    +0.000 F 
ATOM     24  F   UNL     1       4.842   4.547  13.894  0.00  0.00    +0.000 F 
ENDBRANCH  20  21
ENDBRANCH  17  20
ENDBRANCH   2  14
TORSDOF 4
ENDMDL
MODEL 3
REMARK VINA RESULT:      -7.8      1.199      2.302
REMARK  Name = 
REMARK  4 active torsions:
REMARK  status: ('A' for Active; 'I' for Inactive)
REMARK    1  A    between atoms: C_2  and  C_13
REMARK    2  A    between atoms: N_3  and  C_4
REMARK    3  A    between atoms: C_16  and  O_17
REMARK    4  A    between atoms: O_17  and  C_18
REMARK                            x       y       z     vdW  Elec       q    Type
REMARK                         _______ _______ _______ _____ _____    ______ ____
ROOT
ATOM      1  O   UNL     1       4.039   5.458  19.256  0.00  0.00    +0.000 OA
ATOM      2  C   UNL     1       3.929   5.972  18.150  0.00  0.00    +0.000 C 
ATOM      3  N   UNL     1       3.160   7.075  17.814  0.00  0.00    +0.000 N 
ATOM      4  H   UNL     1       3.004   7.251  16.830  0.00  0.00    +0.000 HD
ENDROOT
BRANCH   3   5
ATOM      5  C   UNL     1       2.371   7.830  18.711  0.00  0.00    +0.000 A 
ATOM      6  C   UNL     1       2.125   7.421  20.032  0.00  0.00    +0.000 A 
ATOM      7  C   UNL     1       1.265   8.138  20.864  0.00  0.00    +0.000 A 
ATOM      8  C   UNL     1       0.670   9.277  20.364  0.00  0.00    +0.000 A 
ATOM      9  C   UNL     1       0.943   9.725  19.069  0.00  0.00    +0.000 A 
ATOM     10  C   UNL     1       1.801   9.020  18.236  0.00  0.00    +0.000 A 
ATOM     11  C   UNL     1       0.123  10.936  18.749  0.00  0.00    +0.000 C 
ATOM     12  C   UNL     1      -0.307  11.392  20.152  0.00  0.00    +0.000 C 
ATOM     13  C   UNL     1      -0.359  10.135  21.028  0.00  0.00    +0.000 C 
ENDBRANCH   3   5
BRANCH   2  14
ATOM     14  C   UNL     1       4.622   5.313  17.015  0.00  0.00    +0.000 A 
ATOM     15  C   UNL     1       5.175   6.121  16.015  0.00  0.00    +0.000 A 
ATOM     16  C   UNL     1       5.854   5.541  14.944  0.00  0.00    +0.000 A 
ATOM     17  C   UNL     1       5.987   4.152  14.862  0.00  0.00    +0.000 A 
ATOM     18  C   UNL     1       5.365   3.344  15.817  0.00  0.00    +0.000 A 
ATOM     19  C   UNL     1       4.698   3.923  16.902  0.00  0.00    +0.000 A 
BRANCH  17  20
ATOM     20  O   UNL     1       6.666   3.700  13.774  0.00  0.00    +0.000 OA
BRANCH  20  21
ATOM     21  C   UNL     1       5.953   3.473  12.565  0.00  0.00    +0.000 C 
ATOM     22  F   UNL     1       5.943   2.187  12.151  0.00  0.00    +0.000 F 
ATOM     23  F   UNL     1       4.678   3.883  12.724  0.00  0.00    +0.000 F 
ATOM     24  F   UNL     1       6.517   4.215  11.584  0.00  0.00    +0.000 F 
ENDBRANCH  20  21
ENDBRANCH  17  20
ENDBRANCH   2  14
TORSDOF 4
ENDMDL
MODEL 4
REMARK VINA RESULT:      -7.8      0.942      1.589
REMARK  Name = 
REMARK  4 active torsions:
REMARK  status: ('A' for Active; 'I' for Inactive)
REMARK    1  A    between atoms: C_2  and  C_13
REMARK    2  A    between atoms: N_3  and  C_4
REMARK    3  A    between atoms: C_16  and  O_17
REMARK    4  A    between atoms: O_17  and  C_18
REMARK                            x       y       z     vdW  Elec       q    Type
REMARK                         _______ _______ _______ _____ _____    ______ ____
ROOT
ATOM      1  O   UNL     1       3.633   5.905  19.249  0.00  0.00    +0.000 OA
ATOM      2  C   UNL     1       3.642   6.355  18.110  0.00  0.00    +0.000 C 
ATOM      3  N   UNL     1       2.981   7.483  17.651  0.00  0.00    +0.000 N 
ATOM      4  H   UNL     1       2.912   7.606  16.649  0.00  0.00    +0.000 HD
ENDROOT
BRANCH   3   5
ATOM      5  C   UNL     1       2.182   8.343  18.437  0.00  0.00    +0.000 A 
ATOM      6  C   UNL     1       1.669   9.557  17.949  0.00  0.00    +0.000 A 
ATOM      7  C   UNL     1       0.964  10.430  18.779  0.00  0.00    +0.000 A 
ATOM      8  C   UNL     1       0.764  10.066  20.093  0.00  0.00    +0.000 A 
ATOM      9  C   UNL     1       1.225   8.840  20.581  0.00  0.00    +0.000 A 
ATOM     10  C   UNL     1       1.923   7.963  19.762  0.00  0.00    +0.000 A 
ATOM     11  C   UNL     1       0.941   8.717  22.046  0.00  0.00    +0.000 C 
ATOM     12  C   UNL     1      -0.127   9.806  22.241  0.00  0.00    +0.000 C 
ATOM     13  C   UNL     1       0.140  10.880  21.181  0.00  0.00    +0.000 C 
ENDBRANCH   3   5
BRANCH   2  14
ATOM     14  C   UNL     1       4.370   5.581  17.072  0.00  0.00    +0.000 A 
ATOM     15  C   UNL     1       5.071   6.287  16.088  0.00  0.00    +0.000 A 
ATOM     16  C   UNL     1       5.786   5.596  15.110  0.00  0.00    +0.000 A 
ATOM     17  C   UNL     1       5.808   4.198  15.107  0.00  0.00    +0.000 A 
ATOM     18  C   UNL     1       5.044   3.497  16.040  0.00  0.00    +0.000 A 
ATOM     19  C   UNL     1       4.339   4.185  17.034  0.00  0.00    +0.000 A 
BRANCH  17  20
ATOM     20  O   UNL     1       6.536   3.635  14.106  0.00  0.00    +0.000 OA
BRANCH  20  21
ATOM     21  C   UNL     1       5.978   3.577  12.799  0.00  0.00    +0.000 C 
ATOM     22  F   UNL     1       4.672   3.914  12.730  0.00  0.00    +0.000 F 
ATOM     23  F   UNL     1       6.677   4.398  11.987  0.00  0.00    +0.000 F 
ATOM     24  F   UNL     1       6.101   2.313  12.330  0.00  0.00    +0.000 F 
ENDBRANCH  20  21
ENDBRANCH  17  20
ENDBRANCH   2  14
TORSDOF 4
ENDMDL
MODEL 5
REMARK VINA RESULT:      -7.7      1.470      2.328
REMARK  Name = 
REMARK  4 active torsions:
REMARK  status: ('A' for Active; 'I' for Inactive)
REMARK    1  A    between atoms: C_2  and  C_13
REMARK    2  A    between atoms: N_3  and  C_4
REMARK    3  A    between atoms: C_16  and  O_17
REMARK    4  A    between atoms: O_17  and  C_18
REMARK                            x       y       z     vdW  Elec       q    Type
REMARK                         _______ _______ _______ _____ _____    ______ ____
ROOT
ATOM      1  O   UNL     1       1.279   5.716  20.812  0.00  0.00    +0.000 OA
ATOM      2  C   UNL     1       2.050   6.374  20.125  0.00  0.00    +0.000 C 
ATOM      3  N   UNL     1       2.137   7.756  20.055  0.00  0.00    +0.000 N 
ATOM      4  H   UNL     1       2.671   8.150  19.291  0.00  0.00    +0.000 HD
ENDROOT
BRANCH   3   5
ATOM      5  C   UNL     1       1.350   8.666  20.796  0.00  0.00    +0.000 A 
ATOM      6  C   UNL     1       1.273   8.633  22.199  0.00  0.00    +0.000 A 
ATOM      7  C   UNL     1       0.414   9.483  22.897  0.00  0.00    +0.000 A 
ATOM      8  C   UNL     1      -0.350  10.376  22.177  0.00  0.00    +0.000 A 
ATOM      9  C   UNL     1      -0.249  10.455  20.785  0.00  0.00    +0.000 A 
ATOM     10  C   UNL     1       0.606   9.617  20.082  0.00  0.00    +0.000 A 
ATOM     11  C   UNL     1      -1.228  11.450  20.243  0.00  0.00    +0.000 C 
ATOM     12  C   UNL     1      -1.580  12.250  21.507  0.00  0.00    +0.000 C 
ATOM     13  C   UNL     1      -1.408  11.297  22.695  0.00  0.00    +0.000 C 
ENDBRANCH   3   5
BRANCH   2  14
ATOM     14  C   UNL     1       2.946   5.636  19.200  0.00  0.00    +0.000 A 
ATOM     15  C   UNL     1       2.368   4.924  18.143  0.00  0.00    +0.000 A 
ATOM     16  C   UNL     1       3.178   4.237  17.239  0.00  0.00    +0.000 A 
ATOM     17  C   UNL     1       4.569   4.255  17.382  0.00  0.00    +0.000 A 
ATOM     18  C   UNL     1       5.138   4.898  18.482  0.00  0.00    +0.000 A 
ATOM     19  C   UNL     1       4.331   5.603  19.382  0.00  0.00    +0.000 A 
BRANCH  17  20
ATOM     20  O   UNL     1       5.255   3.549  16.443  0.00  0.00    +0.000 OA
BRANCH  20  21
ATOM     21  C   UNL     1       6.024   4.255  15.478  0.00  0.00    +0.000 C 
ATOM     22  F   UNL     1       5.556   5.486  15.177  0.00  0.00    +0.000 F 
ATOM     23  F   UNL     1       7.290   4.376  15.930  0.00  0.00    +0.000 F 
ATOM     24  F   UNL     1       6.051   3.535  14.333  0.00  0.00    +0.000 F 
ENDBRANCH  20  21
ENDBRANCH  17  20
ENDBRANCH   2  14
TORSDOF 4
ENDMDL
MODEL 6
REMARK VINA RESULT:      -7.7      1.000      1.922
REMARK  Name = 
REMARK  4 active torsions:
REMARK  status: ('A' for Active; 'I' for Inactive)
REMARK    1  A    between atoms: C_2  and  C_13
REMARK    2  A    between atoms: N_3  and  C_4
REMARK    3  A    between atoms: C_16  and  O_17
REMARK    4  A    between atoms: O_17  and  C_18
REMARK                            x       y       z     vdW  Elec       q    Type
REMARK                         _______ _______ _______ _____ _____    ______ ____
ROOT
ATOM      1  O   UNL     1       2.660   5.138  18.706  0.00  0.00    +0.000 OA
ATOM      2  C   UNL     1       3.262   5.936  17.999  0.00  0.00    +0.000 C 
ATOM      3  N   UNL     1       3.131   7.316  17.998  0.00  0.00    +0.000 N 
ATOM      4  H   UNL     1       3.534   7.821  17.219  0.00  0.00    +0.000 HD
ENDROOT
BRANCH   3   5
ATOM      5  C   UNL     1       2.279   8.060  18.844  0.00  0.00    +0.000 A 
ATOM      6  C   UNL     1       2.045   7.706  20.184  0.00  0.00    +0.000 A 
ATOM      7  C   UNL     1       1.125   8.405  20.967  0.00  0.00    +0.000 A 
ATOM      8  C   UNL     1       0.458   9.470  20.400  0.00  0.00    +0.000 A 
ATOM      9  C   UNL     1       0.716   9.865  19.085  0.00  0.00    +0.000 A 
ATOM     10  C   UNL     1       1.633   9.180  18.300  0.00  0.00    +0.000 A 
ATOM     11  C   UNL     1      -0.182  10.997  18.691  0.00  0.00    +0.000 C 
ATOM     12  C   UNL     1      -0.662  11.496  20.063  0.00  0.00    +0.000 C 
ATOM     13  C   UNL     1      -0.638  10.287  21.005  0.00  0.00    +0.000 C 
ENDBRANCH   3   5
BRANCH   2  14
ATOM     14  C   UNL     1       4.181   5.386  16.971  0.00  0.00    +0.000 A 
ATOM     15  C   UNL     1       4.334   3.998  16.892  0.00  0.00    +0.000 A 
ATOM     16  C   UNL     1       5.171   3.442  15.923  0.00  0.00    +0.000 A 
ATOM     17  C   UNL     1       5.858   4.266  15.027  0.00  0.00    +0.000 A 
ATOM     18  C   UNL     1       5.766   5.653  15.159  0.00  0.00    +0.000 A 
ATOM     19  C   UNL     1       4.915   6.215  16.118  0.00  0.00    +0.000 A 
BRANCH  17  20
ATOM     20  O   UNL     1       6.644   3.614  14.129  0.00  0.00    +0.000 OA
BRANCH  20  21
ATOM     21  C   UNL     1       6.294   3.655  12.752  0.00  0.00    +0.000 C 
ATOM     22  F   UNL     1       4.981   3.862  12.511  0.00  0.00    +0.000 F 
ATOM     23  F   UNL     1       7.000   4.635  12.149  0.00  0.00    +0.000 F 
ATOM     24  F   UNL     1       6.635   2.476  12.182  0.00  0.00    +0.000 F 
ENDBRANCH  20  21
ENDBRANCH  17  20
ENDBRANCH   2  14
TORSDOF 4
ENDMDL
MODEL 7
REMARK VINA RESULT:      -7.6      1.329      2.451
REMARK  Name = 
REMARK  4 active torsions:
REMARK  status: ('A' for Active; 'I' for Inactive)
REMARK    1  A    between atoms: C_2  and  C_13
REMARK    2  A    between atoms: N_3  and  C_4
REMARK    3  A    between atoms: C_16  and  O_17
REMARK    4  A    between atoms: O_17  and  C_18
REMARK                            x       y       z     vdW  Elec       q    Type
REMARK                         _______ _______ _______ _____ _____    ______ ____
ROOT
ATOM      1  O   UNL     1       5.071   5.832  19.095  0.00  0.00    +0.000 OA
ATOM      2  C   UNL     1       4.433   5.909  18.053  0.00  0.00    +0.000 C 
ATOM      3  N   UNL     1       3.206   6.525  17.867  0.00  0.00    +0.000 N 
ATOM      4  H   UNL     1       2.709   6.324  17.008  0.00  0.00    +0.000 HD
ENDROOT
BRANCH   3   5
ATOM      5  C   UNL     1       2.471   7.208  18.862  0.00  0.00    +0.000 A 
ATOM      6  C   UNL     1       2.124   6.615  20.088  0.00  0.00    +0.000 A 
ATOM      7  C   UNL     1       1.317   7.281  21.012  0.00  0.00    +0.000 A 
ATOM      8  C   UNL     1       0.878   8.551  20.701  0.00  0.00    +0.000 A 
ATOM      9  C   UNL     1       1.255   9.173  19.509  0.00  0.00    +0.000 A 
ATOM     10  C   UNL     1       2.061   8.521  18.586  0.00  0.00    +0.000 A 
ATOM     11  C   UNL     1       0.594  10.511  19.383  0.00  0.00    +0.000 C 
ATOM     12  C   UNL     1       0.160  10.773  20.834  0.00  0.00    +0.000 C 
ATOM     13  C   UNL     1      -0.073   9.402  21.479  0.00  0.00    +0.000 C 
ENDBRANCH   3   5
BRANCH   2  14
ATOM     14  C   UNL     1       4.974   5.205  16.863  0.00  0.00    +0.000 A 
ATOM     15  C   UNL     1       5.537   5.972  15.837  0.00  0.00    +0.000 A 
ATOM     16  C   UNL     1       6.077   5.345  14.713  0.00  0.00    +0.000 A 
ATOM     17  C   UNL     1       6.060   3.952  14.606  0.00  0.00    +0.000 A 
ATOM     18  C   UNL     1       5.426   3.194  15.591  0.00  0.00    +0.000 A 
ATOM     19  C   UNL     1       4.899   3.816  16.729  0.00  0.00    +0.000 A 
BRANCH  17  20
ATOM     20  O   UNL     1       6.613   3.454  13.467  0.00  0.00    +0.000 OA
BRANCH  20  21
ATOM     21  C   UNL     1       5.812   3.368  12.295  0.00  0.00    +0.000 C 
ATOM     22  F   UNL     1       4.539   3.794  12.451  0.00  0.00    +0.000 F 
ATOM     23  F   UNL     1       6.390   4.094  11.315  0.00  0.00    +0.000 F 
ATOM     24  F   UNL     1       5.766   2.076  11.895  0.00  0.00    +0.000 F 
ENDBRANCH  20  21
ENDBRANCH  17  20
ENDBRANCH   2  14
TORSDOF 4
ENDMDL
MODEL 8
REMARK VINA RESULT:      -7.6      1.483      2.528
REMARK  Name = 
REMARK  4 active torsions:
REMARK  status: ('A' for Active; 'I' for Inactive)
REMARK    1  A    between atoms: C_2  and  C_13
REMARK    2  A    between atoms: N_3  and  C_4
REMARK    3  A    between atoms: C_16  and  O_17
REMARK    4  A    between atoms: O_17  and  C_18
REMARK                            x       y       z     vdW  Elec       q    Type
REMARK                         _______ _______ _______ _____ _____    ______ ____
ROOT
ATOM      1  O   UNL     1       1.788   6.178  20.619  0.00  0.00    +0.000 OA
ATOM      2  C   UNL     1       2.204   6.971  19.784  0.00  0.00    +0.000 C 
ATOM      3  N   UNL     1       1.951   8.333  19.726  0.00  0.00    +0.000 N 
ATOM      4  H   UNL     1       2.186   8.813  18.867  0.00  0.00    +0.000 HD
ENDROOT
BRANCH   3   5
ATOM      5  C   UNL     1       1.174   9.064  20.652  0.00  0.00    +0.000 A 
ATOM      6  C   UNL     1       1.148   8.761  22.024  0.00  0.00    +0.000 A 
ATOM      7  C   UNL     1       0.298   9.440  22.899  0.00  0.00    +0.000 A 
ATOM      8  C   UNL     1      -0.509  10.433  22.388  0.00  0.00    +0.000 A 
ATOM      9  C   UNL     1      -0.459  10.780  21.035  0.00  0.00    +0.000 A 
ATOM     10  C   UNL     1       0.386  10.114  20.158  0.00  0.00    +0.000 A 
ATOM     11  C   UNL     1      -1.476  11.834  20.725  0.00  0.00    +0.000 C 
ATOM     12  C   UNL     1      -1.798  12.369  22.130  0.00  0.00    +0.000 C 
ATOM     13  C   UNL     1      -1.565  11.211  23.107  0.00  0.00    +0.000 C 
ENDBRANCH   3   5
BRANCH   2  14
ATOM     14  C   UNL     1       3.001   6.426  18.657  0.00  0.00    +0.000 A 
ATOM     15  C   UNL     1       3.724   7.322  17.861  0.00  0.00    +0.000 A 
ATOM     16  C   UNL     1       4.504   6.846  16.807  0.00  0.00    +0.000 A 
ATOM     17  C   UNL     1       4.569   5.476  16.539  0.00  0.00    +0.000 A 
ATOM     18  C   UNL     1       3.784   4.592  17.283  0.00  0.00    +0.000 A 
ATOM     19  C   UNL     1       3.014   5.063  18.352  0.00  0.00    +0.000 A 
BRANCH  17  20
ATOM     20  O   UNL     1       5.358   5.130  15.488  0.00  0.00    +0.000 OA
BRANCH  20  21
ATOM     21  C   UNL     1       6.492   4.305  15.722  0.00  0.00    +0.000 C 
ATOM     22  F   UNL     1       7.001   4.389  16.970  0.00  0.00    +0.000 F 
ATOM     23  F   UNL     1       6.156   3.020  15.481  0.00  0.00    +0.000 F 
ATOM     24  F   UNL     1       7.470   4.655  14.855  0.00  0.00    +0.000 F 
ENDBRANCH  20  21
ENDBRANCH  17  20
ENDBRANCH   2  14
TORSDOF 4
ENDMDL
MODEL 9
REMARK VINA RESULT:      -7.6      5.711      9.580
REMARK  Name = 
REMARK  4 active torsions:
REMARK  status: ('A' for Active; 'I' for Inactive)
REMARK    1  A    between atoms: C_2  and  C_13
REMARK    2  A    between atoms: N_3  and  C_4
REMARK    3  A    between atoms: C_16  and  O_17
REMARK    4  A    between atoms: O_17  and  C_18
REMARK                            x       y       z     vdW  Elec       q    Type
REMARK                         _______ _______ _______ _____ _____    ______ ____
ROOT
ATOM      1  O   UNL     1       1.491   9.173  18.143  0.00  0.00    +0.000 OA
ATOM      2  C   UNL     1       1.524   8.630  19.240  0.00  0.00    +0.000 C 
ATOM      3  N   UNL     1       2.065   7.391  19.543  0.00  0.00    +0.000 N 
ATOM      4  H   UNL     1       1.830   6.988  20.441  0.00  0.00    +0.000 HD
ENDROOT
BRANCH   3   5
ATOM      5  C   UNL     1       2.708   6.529  18.627  0.00  0.00    +0.000 A 
ATOM      6  C   UNL     1       2.358   5.175  18.486  0.00  0.00    +0.000 A 
ATOM      7  C   UNL     1       3.075   4.327  17.642  0.00  0.00    +0.000 A 
ATOM      8  C   UNL     1       4.131   4.853  16.928  0.00  0.00    +0.000 A 
ATOM      9  C   UNL     1       4.460   6.207  17.018  0.00  0.00    +0.000 A 
ATOM     10  C   UNL     1       3.750   7.061  17.852  0.00  0.00    +0.000 A 
ATOM     11  C   UNL     1       5.678   6.508  16.202  0.00  0.00    +0.000 C 
ATOM     12  C   UNL     1       5.741   5.277  15.284  0.00  0.00    +0.000 C 
ATOM     13  C   UNL     1       5.098   4.118  16.055  0.00  0.00    +0.000 C 
ENDBRANCH   3   5
BRANCH   2  14
ATOM     14  C   UNL     1       0.847   9.319  20.367  0.00  0.00    +0.000 A 
ATOM     15  C   UNL     1       0.782  10.716  20.349  0.00  0.00    +0.000 A 
ATOM     16  C   UNL     1       0.134  11.399  21.379  0.00  0.00    +0.000 A 
ATOM     17  C   UNL     1      -0.454  10.693  22.433  0.00  0.00    +0.000 A 
ATOM     18  C   UNL     1      -0.318   9.305  22.491  0.00  0.00    +0.000 A 
ATOM     19  C   UNL     1       0.316   8.615  21.451  0.00  0.00    +0.000 A 
BRANCH  17  20
ATOM     20  O   UNL     1      -1.054  11.463  23.379  0.00  0.00    +0.000 OA
BRANCH  20  21
ATOM     21  C   UNL     1      -2.260  12.141  23.050  0.00  0.00    +0.000 C 
ATOM     22  F   UNL     1      -2.712  11.908  21.798  0.00  0.00    +0.000 F 
ATOM     23  F   UNL     1      -3.220  11.779  23.927  0.00  0.00    +0.000 F 
ATOM     24  F   UNL     1      -2.057  13.473  23.172  0.00  0.00    +0.000 F 
ENDBRANCH  20  21
ENDBRANCH  17  20
ENDBRANCH   2  14
TORSDOF 4
ENDMDL
