MODEL 1
REMARK VINA RESULT:      -6.7      0.000      0.000
REMARK  Name = 
REMARK  4 active torsions:
REMARK  status: ('A' for Active; 'I' for Inactive)
REMARK    1  A    between atoms: C_1  and  C_2
REMARK    2  A    between atoms: C_8  and  C_10
REMARK    3  A    between atoms: C_10  and  C_11
REMARK    4  A    between atoms: C_11  and  C_12
REMARK                            x       y       z     vdW  Elec       q    Type
REMARK                         _______ _______ _______ _____ _____    ______ ____
ROOT
ATOM      1  C   UNL     1       0.572   2.440  18.934  0.00  0.00    +0.000 C 
ATOM      2  C   UNL     1       1.249   3.532  19.720  0.00  0.00    +0.000 C 
ATOM      3  O   UNL     1       1.032   3.649  20.926  0.00  0.00    +0.000 OA
ATOM      4  N   UNL     1       2.143   4.339  19.040  0.00  0.00    +0.000 N 
ATOM      5  C   UNL     1       2.945   5.319  19.785  0.00  0.00    +0.000 C 
ATOM      6  C   UNL     1       4.436   5.152  19.458  0.00  0.00    +0.000 C 
ATOM      7  N   UNL     1       4.664   5.178  18.004  0.00  0.00    +0.000 N 
ATOM      8  C   UNL     1       5.623   6.029  17.480  0.00  0.00    +0.000 C 
ATOM      9  O   UNL     1       6.279   6.787  18.197  0.00  0.00    +0.000 OA
ATOM     10  C   UNL     1       3.853   4.215  17.244  0.00  0.00    +0.000 C 
ATOM     11  C   UNL     1       2.360   4.354  17.588  0.00  0.00    +0.000 C 
ENDROOT
BRANCH   8  12
ATOM     12  C   UNL     1       5.825   6.010  15.974  0.00  0.00    +0.000 C 
BRANCH  12  13
ATOM     13  C   UNL     1       7.011   5.128  15.584  0.00  0.00    +0.000 C 
BRANCH  13  14
ATOM     14  C   UNL     1       6.882   4.596  14.184  0.00  0.00    +0.000 A 
ATOM     15  C   UNL     1       5.982   3.665  13.703  0.00  0.00    +0.000 A 
ATOM     16  C   UNL     1       6.140   3.430  12.310  0.00  0.00    +0.000 A 
ATOM     17 CL   UNL     1       5.167   2.328  11.439  0.00  0.00    +0.000 Cl
ATOM     18  C   UNL     1       7.152   4.187  11.767  0.00  0.00    +0.000 A 
ATOM     19  S   UNL     1       7.912   5.173  12.940  0.00  0.00    +0.000 S 
ENDBRANCH  13  14
ENDBRANCH  12  13
ENDBRANCH   8  12
TORSDOF 3
ENDMDL
MODEL 2
REMARK VINA RESULT:      -6.5      3.936      6.688
REMARK  Name = 
REMARK  4 active torsions:
REMARK  status: ('A' for Active; 'I' for Inactive)
REMARK    1  A    between atoms: C_1  and  C_2
REMARK    2  A    between atoms: C_8  and  C_10
REMARK    3  A    between atoms: C_10  and  C_11
REMARK    4  A    between atoms: C_11  and  C_12
REMARK                            x       y       z     vdW  Elec       q    Type
REMARK                         _______ _______ _______ _____ _____    ______ ____
ROOT
ATOM      1  C   UNL     1       8.045   6.633  18.662  0.00  0.00    +0.000 C 
ATOM      2  C   UNL     1       7.254   6.331  17.415  0.00  0.00    +0.000 C 
ATOM      3  O   UNL     1       7.706   6.630  16.311  0.00  0.00    +0.000 OA
ATOM      4  N   UNL     1       6.050   5.669  17.575  0.00  0.00    +0.000 N 
ATOM      5  C   UNL     1       5.311   5.214  16.390  0.00  0.00    +0.000 C 
ATOM      6  C   UNL     1       4.966   3.723  16.513  0.00  0.00    +0.000 C 
ATOM      7  N   UNL     1       4.283   3.441  17.785  0.00  0.00    +0.000 N 
ATOM      8  C   UNL     1       3.090   2.737  17.776  0.00  0.00    +0.000 C 
ATOM      9  O   UNL     1       2.568   2.358  16.726  0.00  0.00    +0.000 OA
ATOM     10  C   UNL     1       5.003   3.910  18.979  0.00  0.00    +0.000 C 
ATOM     11  C   UNL     1       5.379   5.396  18.853  0.00  0.00    +0.000 C 
ENDROOT
BRANCH   8  12
ATOM     12  C   UNL     1       2.429   2.466  19.118  0.00  0.00    +0.000 C 
BRANCH  12  13
ATOM     13  C   UNL     1       1.227   3.385  19.341  0.00  0.00    +0.000 C 
BRANCH  13  14
ATOM     14  C   UNL     1       1.623   4.835  19.360  0.00  0.00    +0.000 A 
ATOM     15  C   UNL     1       1.808   5.684  18.287  0.00  0.00    +0.000 A 
ATOM     16  C   UNL     1       2.151   7.003  18.694  0.00  0.00    +0.000 A 
ATOM     17 CL   UNL     1       2.442   8.270  17.585  0.00  0.00    +0.000 Cl
ATOM     18  C   UNL     1       2.216   7.123  20.063  0.00  0.00    +0.000 A 
ATOM     19  S   UNL     1       1.870   5.645  20.851  0.00  0.00    +0.000 S 
ENDBRANCH  13  14
ENDBRANCH  12  13
ENDBRANCH   8  12
TORSDOF 3
ENDMDL
MODEL 3
REMARK VINA RESULT:      -6.4      1.244      1.556
REMARK  Name = 
REMARK  4 active torsions:
REMARK  status: ('A' for Active; 'I' for Inactive)
REMARK    1  A    between atoms: C_1  and  C_2
REMARK    2  A    between atoms: C_8  and  C_10
REMARK    3  A    between atoms: C_10  and  C_11
REMARK    4  A    between atoms: C_11  and  C_12
REMARK                            x       y       z     vdW  Elec       q    Type
REMARK                         _______ _______ _______ _____ _____    ______ ____
ROOT
ATOM      1  C   UNL     1       2.779   2.636  21.381  0.00  0.00    +0.000 C 
ATOM      2  C   UNL     1       2.134   3.360  20.227  0.00  0.00    +0.000 C 
ATOM      3  O   UNL     1       0.922   3.574  20.233  0.00  0.00    +0.000 OA
ATOM      4  N   UNL     1       2.965   3.802  19.213  0.00  0.00    +0.000 N 
ATOM      5  C   UNL     1       2.416   4.643  18.142  0.00  0.00    +0.000 C 
ATOM      6  C   UNL     1       3.251   5.922  17.982  0.00  0.00    +0.000 C 
ATOM      7  N   UNL     1       4.678   5.604  17.818  0.00  0.00    +0.000 N 
ATOM      8  C   UNL     1       5.381   6.155  16.759  0.00  0.00    +0.000 C 
ATOM      9  O   UNL     1       4.837   6.889  15.931  0.00  0.00    +0.000 OA
ATOM     10  C   UNL     1       5.236   4.746  18.874  0.00  0.00    +0.000 C 
ATOM     11  C   UNL     1       4.389   3.476  19.062  0.00  0.00    +0.000 C 
ENDROOT
BRANCH   8  12
ATOM     12  C   UNL     1       6.854   5.802  16.639  0.00  0.00    +0.000 C 
BRANCH  12  13
ATOM     13  C   UNL     1       7.043   4.371  16.133  0.00  0.00    +0.000 C 
BRANCH  13  14
ATOM     14  C   UNL     1       6.752   4.250  14.663  0.00  0.00    +0.000 A 
ATOM     15  C   UNL     1       5.696   3.605  14.052  0.00  0.00    +0.000 A 
ATOM     16  C   UNL     1       5.733   3.728  12.635  0.00  0.00    +0.000 A 
ATOM     17 CL   UNL     1       4.556   3.031  11.612  0.00  0.00    +0.000 Cl
ATOM     18  C   UNL     1       6.813   4.464  12.207  0.00  0.00    +0.000 A 
ATOM     19  S   UNL     1       7.781   4.997  13.512  0.00  0.00    +0.000 S 
ENDBRANCH  13  14
ENDBRANCH  12  13
ENDBRANCH   8  12
TORSDOF 3
ENDMDL
MODEL 4
REMARK VINA RESULT:      -6.2      2.931      4.282
REMARK  Name = 
REMARK  4 active torsions:
REMARK  status: ('A' for Active; 'I' for Inactive)
REMARK    1  A    between atoms: C_1  and  C_2
REMARK    2  A    between atoms: C_8  and  C_10
REMARK    3  A    between atoms: C_10  and  C_11
REMARK    4  A    between atoms: C_11  and  C_12
REMARK                            x       y       z     vdW  Elec       q    Type
REMARK                         _______ _______ _______ _____ _____    ______ ____
ROOT
ATOM      1  C   UNL     1       1.325   9.766  17.870  0.00  0.00    +0.000 C 
ATOM      2  C   UNL     1       1.261   9.197  19.264  0.00  0.00    +0.000 C 
ATOM      3  O   UNL     1       0.601   9.766  20.133  0.00  0.00    +0.000 OA
ATOM      4  N   UNL     1       1.927   8.006  19.492  0.00  0.00    +0.000 N 
ATOM      5  C   UNL     1       1.775   7.328  20.787  0.00  0.00    +0.000 C 
ATOM      6  C   UNL     1       1.360   5.863  20.580  0.00  0.00    +0.000 C 
ATOM      7  N   UNL     1       2.277   5.180  19.653  0.00  0.00    +0.000 N 
ATOM      8  C   UNL     1       2.842   3.971  20.023  0.00  0.00    +0.000 C 
ATOM      9  O   UNL     1       2.617   3.458  21.121  0.00  0.00    +0.000 OA
ATOM     10  C   UNL     1       2.453   5.859  18.361  0.00  0.00    +0.000 C 
ATOM     11  C   UNL     1       2.840   7.335  18.557  0.00  0.00    +0.000 C 
ENDROOT
BRANCH   8  12
ATOM     12  C   UNL     1       3.774   3.302  19.027  0.00  0.00    +0.000 C 
BRANCH  12  13
ATOM     13  C   UNL     1       5.164   3.939  19.054  0.00  0.00    +0.000 C 
BRANCH  13  14
ATOM     14  C   UNL     1       5.717   4.145  17.671  0.00  0.00    +0.000 A 
ATOM     15  C   UNL     1       5.097   3.910  16.460  0.00  0.00    +0.000 A 
ATOM     16  C   UNL     1       5.924   4.253  15.355  0.00  0.00    +0.000 A 
ATOM     17 CL   UNL     1       5.424   4.069  13.731  0.00  0.00    +0.000 Cl
ATOM     18  C   UNL     1       7.146   4.741  15.752  0.00  0.00    +0.000 A 
ATOM     19  S   UNL     1       7.296   4.777  17.455  0.00  0.00    +0.000 S 
ENDBRANCH  13  14
ENDBRANCH  12  13
ENDBRANCH   8  12
TORSDOF 3
ENDMDL
MODEL 5
REMARK VINA RESULT:      -6.2      3.479      5.013
REMARK  Name = 
REMARK  4 active torsions:
REMARK  status: ('A' for Active; 'I' for Inactive)
REMARK    1  A    between atoms: C_1  and  C_2
REMARK    2  A    between atoms: C_8  and  C_10
REMARK    3  A    between atoms: C_10  and  C_11
REMARK    4  A    between atoms: C_11  and  C_12
REMARK                            x       y       z     vdW  Elec       q    Type
REMARK                         _______ _______ _______ _____ _____    ______ ____
ROOT
ATOM      1  C   UNL     1       1.428   9.700  17.812  0.00  0.00    +0.000 C 
ATOM      2  C   UNL     1       1.371   9.152  19.214  0.00  0.00    +0.000 C 
ATOM      3  O   UNL     1       0.762   9.764  20.091  0.00  0.00    +0.000 OA
ATOM      4  N   UNL     1       1.981   7.932  19.442  0.00  0.00    +0.000 N 
ATOM      5  C   UNL     1       1.827   7.278  20.748  0.00  0.00    +0.000 C 
ATOM      6  C   UNL     1       1.335   5.834  20.571  0.00  0.00    +0.000 C 
ATOM      7  N   UNL     1       2.192   5.095  19.632  0.00  0.00    +0.000 N 
ATOM      8  C   UNL     1       2.705   3.862  20.004  0.00  0.00    +0.000 C 
ATOM      9  O   UNL     1       2.482   3.375  21.114  0.00  0.00    +0.000 OA
ATOM     10  C   UNL     1       2.370   5.748  18.327  0.00  0.00    +0.000 C 
ATOM     11  C   UNL     1       2.835   7.204  18.494  0.00  0.00    +0.000 C 
ENDROOT
BRANCH   8  12
ATOM     12  C   UNL     1       3.578   3.136  18.994  0.00  0.00    +0.000 C 
BRANCH  12  13
ATOM     13  C   UNL     1       5.062   3.379  19.267  0.00  0.00    +0.000 C 
BRANCH  13  14
ATOM     14  C   UNL     1       5.642   4.417  18.348  0.00  0.00    +0.000 A 
ATOM     15  C   UNL     1       6.398   5.524  18.678  0.00  0.00    +0.000 A 
ATOM     16  C   UNL     1       6.799   6.266  17.533  0.00  0.00    +0.000 A 
ATOM     17 CL   UNL     1       7.743   7.687  17.633  0.00  0.00    +0.000 Cl
ATOM     18  C   UNL     1       6.341   5.705  16.364  0.00  0.00    +0.000 A 
ATOM     19  S   UNL     1       5.423   4.290  16.652  0.00  0.00    +0.000 S 
ENDBRANCH  13  14
ENDBRANCH  12  13
ENDBRANCH   8  12
TORSDOF 3
ENDMDL
MODEL 6
REMARK VINA RESULT:      -6.2      4.998      6.128
REMARK  Name = 
REMARK  4 active torsions:
REMARK  status: ('A' for Active; 'I' for Inactive)
REMARK    1  A    between atoms: C_1  and  C_2
REMARK    2  A    between atoms: C_8  and  C_10
REMARK    3  A    between atoms: C_10  and  C_11
REMARK    4  A    between atoms: C_11  and  C_12
REMARK                            x       y       z     vdW  Elec       q    Type
REMARK                         _______ _______ _______ _____ _____    ______ ____
ROOT
ATOM      1  C   UNL     1      -1.273  11.005  23.129  0.00  0.00    +0.000 C 
ATOM      2  C   UNL     1      -1.147  11.243  21.647  0.00  0.00    +0.000 C 
ATOM      3  O   UNL     1      -1.526  12.308  21.159  0.00  0.00    +0.000 OA
ATOM      4  N   UNL     1      -0.552  10.247  20.894  0.00  0.00    +0.000 N 
ATOM      5  C   UNL     1      -0.264  10.487  19.474  0.00  0.00    +0.000 C 
ATOM      6  C   UNL     1       1.207  10.174  19.164  0.00  0.00    +0.000 C 
ATOM      7  N   UNL     1       1.569   8.824  19.626  0.00  0.00    +0.000 N 
ATOM      8  C   UNL     1       2.191   7.949  18.750  0.00  0.00    +0.000 C 
ATOM      9  O   UNL     1       2.430   8.261  17.582  0.00  0.00    +0.000 OA
ATOM     10  C   UNL     1       1.268   8.565  21.041  0.00  0.00    +0.000 C 
ATOM     11  C   UNL     1      -0.196   8.903  21.369  0.00  0.00    +0.000 C 
ENDROOT
BRANCH   8  12
ATOM     12  C   UNL     1       2.551   6.571  19.279  0.00  0.00    +0.000 C 
BRANCH  12  13
ATOM     13  C   UNL     1       2.648   5.549  18.146  0.00  0.00    +0.000 C 
BRANCH  13  14
ATOM     14  C   UNL     1       4.073   5.209  17.813  0.00  0.00    +0.000 A 
ATOM     15  C   UNL     1       4.657   5.103  16.566  0.00  0.00    +0.000 A 
ATOM     16  C   UNL     1       6.043   4.794  16.642  0.00  0.00    +0.000 A 
ATOM     17 CL   UNL     1       7.028   4.600  15.260  0.00  0.00    +0.000 Cl
ATOM     18  C   UNL     1       6.477   4.674  17.942  0.00  0.00    +0.000 A 
ATOM     19  S   UNL     1       5.212   4.928  19.064  0.00  0.00    +0.000 S 
ENDBRANCH  13  14
ENDBRANCH  12  13
ENDBRANCH   8  12
TORSDOF 3
ENDMDL
MODEL 7
REMARK VINA RESULT:      -6.2      3.806      6.856
REMARK  Name = 
REMARK  4 active torsions:
REMARK  status: ('A' for Active; 'I' for Inactive)
REMARK    1  A    between atoms: C_1  and  C_2
REMARK    2  A    between atoms: C_8  and  C_10
REMARK    3  A    between atoms: C_10  and  C_11
REMARK    4  A    between atoms: C_11  and  C_12
REMARK                            x       y       z     vdW  Elec       q    Type
REMARK                         _______ _______ _______ _____ _____    ______ ____
ROOT
ATOM      1  C   UNL     1       6.638   4.172  12.672  0.00  0.00    +0.000 C 
ATOM      2  C   UNL     1       7.343   4.849  13.818  0.00  0.00    +0.000 C 
ATOM      3  O   UNL     1       8.249   5.652  13.597  0.00  0.00    +0.000 OA
ATOM      4  N   UNL     1       6.893   4.565  15.095  0.00  0.00    +0.000 N 
ATOM      5  C   UNL     1       7.439   5.309  16.238  0.00  0.00    +0.000 C 
ATOM      6  C   UNL     1       6.304   5.904  17.083  0.00  0.00    +0.000 C 
ATOM      7  N   UNL     1       5.326   4.869  17.458  0.00  0.00    +0.000 N 
ATOM      8  C   UNL     1       4.956   4.731  18.786  0.00  0.00    +0.000 C 
ATOM      9  O   UNL     1       5.443   5.437  19.671  0.00  0.00    +0.000 OA
ATOM     10  C   UNL     1       4.786   4.104  16.325  0.00  0.00    +0.000 C 
ATOM     11  C   UNL     1       5.917   3.528  15.454  0.00  0.00    +0.000 C 
ENDROOT
BRANCH   8  12
ATOM     12  C   UNL     1       3.938   3.654  19.118  0.00  0.00    +0.000 C 
BRANCH  12  13
ATOM     13  C   UNL     1       2.516   4.113  18.791  0.00  0.00    +0.000 C 
BRANCH  13  14
ATOM     14  C   UNL     1       2.325   5.581  19.052  0.00  0.00    +0.000 A 
ATOM     15  C   UNL     1       2.380   6.624  18.148  0.00  0.00    +0.000 A 
ATOM     16  C   UNL     1       2.115   7.881  18.757  0.00  0.00    +0.000 A 
ATOM     17 CL   UNL     1       2.116   9.351  17.887  0.00  0.00    +0.000 Cl
ATOM     18  C   UNL     1       1.865   7.764  20.104  0.00  0.00    +0.000 A 
ATOM     19  S   UNL     1       1.956   6.139  20.631  0.00  0.00    +0.000 S 
ENDBRANCH  13  14
ENDBRANCH  12  13
ENDBRANCH   8  12
TORSDOF 3
ENDMDL
MODEL 8
REMARK VINA RESULT:      -6.1      4.450      5.926
REMARK  Name = 
REMARK  4 active torsions:
REMARK  status: ('A' for Active; 'I' for Inactive)
REMARK    1  A    between atoms: C_1  and  C_2
REMARK    2  A    between atoms: C_8  and  C_10
REMARK    3  A    between atoms: C_10  and  C_11
REMARK    4  A    between atoms: C_11  and  C_12
REMARK                            x       y       z     vdW  Elec       q    Type
REMARK                         _______ _______ _______ _____ _____    ______ ____
ROOT
ATOM      1  C   UNL     1       1.263   8.630  21.552  0.00  0.00    +0.000 C 
ATOM      2  C   UNL     1       1.346   8.820  20.059  0.00  0.00    +0.000 C 
ATOM      3  O   UNL     1       0.929   9.858  19.546  0.00  0.00    +0.000 OA
ATOM      4  N   UNL     1       1.948   7.813  19.326  0.00  0.00    +0.000 N 
ATOM      5  C   UNL     1       2.194   8.011  17.891  0.00  0.00    +0.000 C 
ATOM      6  C   UNL     1       3.664   7.724  17.554  0.00  0.00    +0.000 C 
ATOM      7  N   UNL     1       4.072   6.401  18.051  0.00  0.00    +0.000 N 
ATOM      8  C   UNL     1       4.694   5.511  17.190  0.00  0.00    +0.000 C 
ATOM      9  O   UNL     1       4.895   5.788  16.006  0.00  0.00    +0.000 OA
ATOM     10  C   UNL     1       3.813   6.183  19.482  0.00  0.00    +0.000 C 
ATOM     11  C   UNL     1       2.350   6.496  19.836  0.00  0.00    +0.000 C 
ENDROOT
BRANCH   8  12
ATOM     12  C   UNL     1       5.102   4.161  17.756  0.00  0.00    +0.000 C 
BRANCH  12  13
ATOM     13  C   UNL     1       4.080   3.080  17.405  0.00  0.00    +0.000 C 
BRANCH  13  14
ATOM     14  C   UNL     1       2.972   3.002  18.418  0.00  0.00    +0.000 A 
ATOM     15  C   UNL     1       3.057   2.647  19.750  0.00  0.00    +0.000 A 
ATOM     16  C   UNL     1       1.798   2.717  20.409  0.00  0.00    +0.000 A 
ATOM     17 CL   UNL     1       1.594   2.335  22.061  0.00  0.00    +0.000 Cl
ATOM     18  C   UNL     1       0.792   3.124  19.564  0.00  0.00    +0.000 A 
ATOM     19  S   UNL     1       1.366   3.412  17.979  0.00  0.00    +0.000 S 
ENDBRANCH  13  14
ENDBRANCH  12  13
ENDBRANCH   8  12
TORSDOF 3
ENDMDL
MODEL 9
REMARK VINA RESULT:      -6.1      3.222      4.809
REMARK  Name = 
REMARK  4 active torsions:
REMARK  status: ('A' for Active; 'I' for Inactive)
REMARK    1  A    between atoms: C_1  and  C_2
REMARK    2  A    between atoms: C_8  and  C_10
REMARK    3  A    between atoms: C_10  and  C_11
REMARK    4  A    between atoms: C_11  and  C_12
REMARK                            x       y       z     vdW  Elec       q    Type
REMARK                         _______ _______ _______ _____ _____    ______ ____
ROOT
ATOM      1  C   UNL     1       1.643   9.058  17.990  0.00  0.00    +0.000 C 
ATOM      2  C   UNL     1       1.723   8.371  19.329  0.00  0.00    +0.000 C 
ATOM      3  O   UNL     1       1.484   8.998  20.360  0.00  0.00    +0.000 OA
ATOM      4  N   UNL     1       2.023   7.020  19.330  0.00  0.00    +0.000 N 
ATOM      5  C   UNL     1       1.965   6.267  20.589  0.00  0.00    +0.000 C 
ATOM      6  C   UNL     1       1.085   5.019  20.428  0.00  0.00    +0.000 C 
ATOM      7  N   UNL     1       1.513   4.215  19.272  0.00  0.00    +0.000 N 
ATOM      8  C   UNL     1       1.747   2.859  19.434  0.00  0.00    +0.000 C 
ATOM      9  O   UNL     1       1.629   2.307  20.530  0.00  0.00    +0.000 OA
ATOM     10  C   UNL     1       1.594   4.963  18.008  0.00  0.00    +0.000 C 
ATOM     11  C   UNL     1       2.450   6.231  18.167  0.00  0.00    +0.000 C 
ENDROOT
BRANCH   8  12
ATOM     12  C   UNL     1       2.179   2.074  18.207  0.00  0.00    +0.000 C 
BRANCH  12  13
ATOM     13  C   UNL     1       3.686   1.816  18.216  0.00  0.00    +0.000 C 
BRANCH  13  14
ATOM     14  C   UNL     1       4.468   3.025  17.785  0.00  0.00    +0.000 A 
ATOM     15  C   UNL     1       4.625   3.531  16.510  0.00  0.00    +0.000 A 
ATOM     16  C   UNL     1       5.413   4.715  16.492  0.00  0.00    +0.000 A 
ATOM     17 CL   UNL     1       5.778   5.564  15.055  0.00  0.00    +0.000 Cl
ATOM     18  C   UNL     1       5.833   5.078  17.750  0.00  0.00    +0.000 A 
ATOM     19  S   UNL     1       5.281   3.989  18.947  0.00  0.00    +0.000 S 
ENDBRANCH  13  14
ENDBRANCH  12  13
ENDBRANCH   8  12
TORSDOF 3
ENDMDL
