MODEL 1
REMARK VINA RESULT:      -7.5      0.000      0.000
REMARK  Name = 
REMARK  9 active torsions:
REMARK  status: ('A' for Active; 'I' for Inactive)
REMARK    1  A    between atoms: C_1  and  C_2
REMARK    2  A    between atoms: C_2  and  C_3
REMARK    3  A    between atoms: C_3  and  O_4
REMARK    4  A    between atoms: C_3  and  C_5
REMARK    5  A    between atoms: C_3  and  C_18
REMARK    6  A    between atoms: C_5  and  O_7
REMARK    7  A    between atoms: O_7  and  C_8
REMARK    8  A    between atoms: C_8  and  C_9
REMARK    9  A    between atoms: C_15  and  O_16
REMARK                            x       y       z     vdW  Elec       q    Type
REMARK                         _______ _______ _______ _____ _____    ______ ____
ROOT
ATOM      1  C   UNL     1       2.511   4.167  18.468  0.00  0.00    +0.000 C 
ATOM      2  O   UNL     1       1.651   3.878  17.642  0.00  0.00    +0.000 OA
ENDROOT
BRANCH   1   3
ATOM      3  C   UNL     1       2.270   5.021  19.754  0.00  0.00    +0.000 C 
BRANCH   3   4
ATOM      4  C   UNL     1       2.133   6.512  19.427  0.00  0.00    +0.000 A 
ATOM      5  C   UNL     1       1.589   7.433  20.338  0.00  0.00    +0.000 A 
ATOM      6  C   UNL     1       1.378   8.768  19.975  0.00  0.00    +0.000 A 
ATOM      7  C   UNL     1       1.731   9.215  18.706  0.00  0.00    +0.000 A 
ATOM      8  C   UNL     1       2.344   8.343  17.816  0.00  0.00    +0.000 A 
ATOM      9  C   UNL     1       2.566   7.016  18.183  0.00  0.00    +0.000 A 
ENDBRANCH   3   4
BRANCH   3  11
ATOM     10  C   UNL     1       1.364   3.083  21.229  0.00  0.00    +0.000 C 
ATOM     11  C   UNL     1       1.062   4.383  20.490  0.00  0.00    +0.000 C 
ENDBRANCH   3  11
BRANCH   3  12
ATOM     12  O   UNL     1       3.390   4.932  20.650  0.00  0.00    +0.000 OA
ATOM     13  H   UNL     1       3.106   5.332  21.491  0.00  0.00    +0.000 HD
ENDBRANCH   3  12
ENDBRANCH   1   3
BRANCH   1  14
ATOM     14  O   UNL     1       3.811   3.747  18.405  0.00  0.00    +0.000 OA
BRANCH  14  15
ATOM     15  C   UNL     1       4.179   3.192  17.129  0.00  0.00    +0.000 C 
BRANCH  15  16
ATOM     16  C   UNL     1       5.262   4.005  16.509  0.00  0.00    +0.000 C 
ATOM     17  C   UNL     1       5.368   4.420  15.243  0.00  0.00    +0.000 C 
ATOM     18  C   UNL     1       6.651   5.143  15.019  0.00  0.00    +0.000 C 
ATOM     19  N   UNL     1       7.323   5.183  16.338  0.00  0.00    +0.000 NA
ATOM     20  C   UNL     1       7.455   6.549  16.863  0.00  0.00    +0.000 C 
ATOM     21  C   UNL     1       7.247   6.415  18.360  0.00  0.00    +0.000 C 
ATOM     22  C   UNL     1       6.147   5.374  18.454  0.00  0.00    +0.000 C 
ATOM     23  C   UNL     1       6.460   4.426  17.288  0.00  0.00    +0.000 C 
BRANCH  22  24
ATOM     24  O   UNL     1       6.163   4.720  19.717  0.00  0.00    +0.000 OA
ATOM     25  H   UNL     1       5.948   3.783  19.566  0.00  0.00    +0.000 HD
ENDBRANCH  22  24
ENDBRANCH  15  16
ENDBRANCH  14  15
ENDBRANCH   1  14
TORSDOF 8
ENDMDL
MODEL 2
REMARK VINA RESULT:      -7.4      2.380      6.582
REMARK  Name = 
REMARK  9 active torsions:
REMARK  status: ('A' for Active; 'I' for Inactive)
REMARK    1  A    between atoms: C_1  and  C_2
REMARK    2  A    between atoms: C_2  and  C_3
REMARK    3  A    between atoms: C_3  and  O_4
REMARK    4  A    between atoms: C_3  and  C_5
REMARK    5  A    between atoms: C_3  and  C_18
REMARK    6  A    between atoms: C_5  and  O_7
REMARK    7  A    between atoms: O_7  and  C_8
REMARK    8  A    between atoms: C_8  and  C_9
REMARK    9  A    between atoms: C_15  and  O_16
REMARK                            x       y       z     vdW  Elec       q    Type
REMARK                         _______ _______ _______ _____ _____    ______ ____
ROOT
ATOM      1  C   UNL     1       5.181   6.027  16.379  0.00  0.00    +0.000 C 
ATOM      2  O   UNL     1       4.965   6.905  15.549  0.00  0.00    +0.000 OA
ENDROOT
BRANCH   1   3
ATOM      3  C   UNL     1       6.043   4.749  16.131  0.00  0.00    +0.000 C 
BRANCH   3   4
ATOM      4  C   UNL     1       6.352   4.551  14.643  0.00  0.00    +0.000 A 
ATOM      5  C   UNL     1       5.583   3.710  13.822  0.00  0.00    +0.000 A 
ATOM      6  C   UNL     1       5.949   3.466  12.494  0.00  0.00    +0.000 A 
ATOM      7  C   UNL     1       7.073   4.079  11.951  0.00  0.00    +0.000 A 
ATOM      8  C   UNL     1       7.804   4.977  12.719  0.00  0.00    +0.000 A 
ATOM      9  C   UNL     1       7.431   5.230  14.038  0.00  0.00    +0.000 A 
ENDBRANCH   3   4
BRANCH   3  11
ATOM     10  C   UNL     1       7.564   6.262  17.597  0.00  0.00    +0.000 C 
ATOM     11  C   UNL     1       7.281   4.862  17.061  0.00  0.00    +0.000 C 
ENDBRANCH   3  11
BRANCH   3  12
ATOM     12  O   UNL     1       5.337   3.563  16.532  0.00  0.00    +0.000 OA
ATOM     13  H   UNL     1       4.474   3.588  16.083  0.00  0.00    +0.000 HD
ENDBRANCH   3  12
ENDBRANCH   1   3
BRANCH   1  14
ATOM     14  O   UNL     1       4.725   6.058  17.669  0.00  0.00    +0.000 OA
BRANCH  14  15
ATOM     15  C   UNL     1       3.322   6.361  17.779  0.00  0.00    +0.000 C 
BRANCH  15  16
ATOM     16  C   UNL     1       2.735   5.651  18.950  0.00  0.00    +0.000 C 
ATOM     17  C   UNL     1       2.271   6.172  20.090  0.00  0.00    +0.000 C 
ATOM     18  C   UNL     1       1.843   5.104  21.035  0.00  0.00    +0.000 C 
ATOM     19  N   UNL     1       2.042   3.827  20.312  0.00  0.00    +0.000 NA
ATOM     20  C   UNL     1       0.779   3.125  20.046  0.00  0.00    +0.000 C 
ATOM     21  C   UNL     1       0.962   2.496  18.677  0.00  0.00    +0.000 C 
ATOM     22  C   UNL     1       1.732   3.560  17.919  0.00  0.00    +0.000 C 
ATOM     23  C   UNL     1       2.647   4.165  18.992  0.00  0.00    +0.000 C 
BRANCH  22  24
ATOM     24  O   UNL     1       2.455   2.996  16.831  0.00  0.00    +0.000 OA
ATOM     25  H   UNL     1       1.879   2.339  16.403  0.00  0.00    +0.000 HD
ENDBRANCH  22  24
ENDBRANCH  15  16
ENDBRANCH  14  15
ENDBRANCH   1  14
TORSDOF 8
ENDMDL
MODEL 3
REMARK VINA RESULT:      -7.4      2.367      6.565
REMARK  Name = 
REMARK  9 active torsions:
REMARK  status: ('A' for Active; 'I' for Inactive)
REMARK    1  A    between atoms: C_1  and  C_2
REMARK    2  A    between atoms: C_2  and  C_3
REMARK    3  A    between atoms: C_3  and  O_4
REMARK    4  A    between atoms: C_3  and  C_5
REMARK    5  A    between atoms: C_3  and  C_18
REMARK    6  A    between atoms: C_5  and  O_7
REMARK    7  A    between atoms: O_7  and  C_8
REMARK    8  A    between atoms: C_8  and  C_9
REMARK    9  A    between atoms: C_15  and  O_16
REMARK                            x       y       z     vdW  Elec       q    Type
REMARK                         _______ _______ _______ _____ _____    ______ ____
ROOT
ATOM      1  C   UNL     1       5.189   6.128  16.359  0.00  0.00    +0.000 C 
ATOM      2  O   UNL     1       4.986   6.947  15.469  0.00  0.00    +0.000 OA
ENDROOT
BRANCH   1   3
ATOM      3  C   UNL     1       6.073   4.848  16.218  0.00  0.00    +0.000 C 
BRANCH   3   4
ATOM      4  C   UNL     1       6.459   4.583  14.759  0.00  0.00    +0.000 A 
ATOM      5  C   UNL     1       7.538   5.233  14.137  0.00  0.00    +0.000 A 
ATOM      6  C   UNL     1       7.803   5.051  12.775  0.00  0.00    +0.000 A 
ATOM      7  C   UNL     1       7.014   4.196  12.015  0.00  0.00    +0.000 A 
ATOM      8  C   UNL     1       5.991   3.480  12.624  0.00  0.00    +0.000 A 
ATOM      9  C   UNL     1       5.736   3.652  13.984  0.00  0.00    +0.000 A 
ENDBRANCH   3   4
BRANCH   3  11
ATOM     10  C   UNL     1       7.581   6.460  17.591  0.00  0.00    +0.000 C 
ATOM     11  C   UNL     1       7.260   5.019  17.204  0.00  0.00    +0.000 C 
ENDBRANCH   3  11
BRANCH   3  12
ATOM     12  O   UNL     1       5.356   3.676  16.638  0.00  0.00    +0.000 OA
ATOM     13  H   UNL     1       5.962   3.168  17.207  0.00  0.00    +0.000 HD
ENDBRANCH   3  12
ENDBRANCH   1   3
BRANCH   1  14
ATOM     14  O   UNL     1       4.696   6.235  17.631  0.00  0.00    +0.000 OA
BRANCH  14  15
ATOM     15  C   UNL     1       3.267   6.397  17.686  0.00  0.00    +0.000 C 
BRANCH  15  16
ATOM     16  C   UNL     1       2.717   5.693  18.878  0.00  0.00    +0.000 C 
ATOM     17  C   UNL     1       2.267   6.221  20.020  0.00  0.00    +0.000 C 
ATOM     18  C   UNL     1       1.878   5.159  20.988  0.00  0.00    +0.000 C 
ATOM     19  N   UNL     1       2.086   3.876  20.279  0.00  0.00    +0.000 NA
ATOM     20  C   UNL     1       0.831   3.147  20.049  0.00  0.00    +0.000 C 
ATOM     21  C   UNL     1       0.997   2.502  18.685  0.00  0.00    +0.000 C 
ATOM     22  C   UNL     1       1.732   3.569  17.897  0.00  0.00    +0.000 C 
ATOM     23  C   UNL     1       2.658   4.206  18.943  0.00  0.00    +0.000 C 
BRANCH  22  24
ATOM     24  O   UNL     1       2.443   3.004  16.802  0.00  0.00    +0.000 OA
ATOM     25  H   UNL     1       3.357   2.844  17.095  0.00  0.00    +0.000 HD
ENDBRANCH  22  24
ENDBRANCH  15  16
ENDBRANCH  14  15
ENDBRANCH   1  14
TORSDOF 8
ENDMDL
MODEL 4
REMARK VINA RESULT:      -7.4      2.670      6.489
REMARK  Name = 
REMARK  9 active torsions:
REMARK  status: ('A' for Active; 'I' for Inactive)
REMARK    1  A    between atoms: C_1  and  C_2
REMARK    2  A    between atoms: C_2  and  C_3
REMARK    3  A    between atoms: C_3  and  O_4
REMARK    4  A    between atoms: C_3  and  C_5
REMARK    5  A    between atoms: C_3  and  C_18
REMARK    6  A    between atoms: C_5  and  O_7
REMARK    7  A    between atoms: O_7  and  C_8
REMARK    8  A    between atoms: C_8  and  C_9
REMARK    9  A    between atoms: C_15  and  O_16
REMARK                            x       y       z     vdW  Elec       q    Type
REMARK                         _______ _______ _______ _____ _____    ______ ____
ROOT
ATOM      1  C   UNL     1       5.289   5.047  16.920  0.00  0.00    +0.000 C 
ATOM      2  O   UNL     1       4.372   5.835  16.716  0.00  0.00    +0.000 OA
ENDROOT
BRANCH   1   3
ATOM      3  C   UNL     1       6.729   5.170  16.327  0.00  0.00    +0.000 C 
BRANCH   3   4
ATOM      4  C   UNL     1       6.758   4.833  14.832  0.00  0.00    +0.000 A 
ATOM      5  C   UNL     1       5.888   3.892  14.258  0.00  0.00    +0.000 A 
ATOM      6  C   UNL     1       6.006   3.526  12.912  0.00  0.00    +0.000 A 
ATOM      7  C   UNL     1       6.977   4.113  12.108  0.00  0.00    +0.000 A 
ATOM      8  C   UNL     1       7.797   5.104  12.632  0.00  0.00    +0.000 A 
ATOM      9  C   UNL     1       7.669   5.478  13.970  0.00  0.00    +0.000 A 
ENDBRANCH   3   4
BRANCH   3  11
ATOM     10  C   UNL     1       7.736   6.736  18.140  0.00  0.00    +0.000 C 
ATOM     11  C   UNL     1       7.243   6.586  16.703  0.00  0.00    +0.000 C 
ENDBRANCH   3  11
BRANCH   3  12
ATOM     12  O   UNL     1       7.625   4.231  16.944  0.00  0.00    +0.000 OA
ATOM     13  H   UNL     1       7.767   4.539  17.856  0.00  0.00    +0.000 HD
ENDBRANCH   3  12
ENDBRANCH   1   3
BRANCH   1  14
ATOM     14  O   UNL     1       5.198   3.953  17.737  0.00  0.00    +0.000 OA
BRANCH  14  15
ATOM     15  C   UNL     1       5.206   4.277  19.140  0.00  0.00    +0.000 C 
BRANCH  15  16
ATOM     16  C   UNL     1       3.811   4.359  19.656  0.00  0.00    +0.000 C 
ATOM     17  C   UNL     1       3.129   5.443  20.037  0.00  0.00    +0.000 C 
ATOM     18  C   UNL     1       1.787   5.076  20.566  0.00  0.00    +0.000 C 
ATOM     19  N   UNL     1       1.685   3.607  20.414  0.00  0.00    +0.000 NA
ATOM     20  C   UNL     1       0.642   3.209  19.459  0.00  0.00    +0.000 C 
ATOM     21  C   UNL     1       1.211   1.998  18.741  0.00  0.00    +0.000 C 
ATOM     22  C   UNL     1       2.675   2.360  18.581  0.00  0.00    +0.000 C 
ATOM     23  C   UNL     1       2.989   3.136  19.868  0.00  0.00    +0.000 C 
BRANCH  22  24
ATOM     24  O   UNL     1       3.480   1.198  18.426  0.00  0.00    +0.000 OA
ATOM     25  H   UNL     1       3.100   0.670  17.702  0.00  0.00    +0.000 HD
ENDBRANCH  22  24
ENDBRANCH  15  16
ENDBRANCH  14  15
ENDBRANCH   1  14
TORSDOF 8
ENDMDL
MODEL 5
REMARK VINA RESULT:      -7.3      2.543      6.291
REMARK  Name = 
REMARK  9 active torsions:
REMARK  status: ('A' for Active; 'I' for Inactive)
REMARK    1  A    between atoms: C_1  and  C_2
REMARK    2  A    between atoms: C_2  and  C_3
REMARK    3  A    between atoms: C_3  and  O_4
REMARK    4  A    between atoms: C_3  and  C_5
REMARK    5  A    between atoms: C_3  and  C_18
REMARK    6  A    between atoms: C_5  and  O_7
REMARK    7  A    between atoms: O_7  and  C_8
REMARK    8  A    between atoms: C_8  and  C_9
REMARK    9  A    between atoms: C_15  and  O_16
REMARK                            x       y       z     vdW  Elec       q    Type
REMARK                         _______ _______ _______ _____ _____    ______ ____
ROOT
ATOM      1  C   UNL     1       4.908   6.073  16.691  0.00  0.00    +0.000 C 
ATOM      2  O   UNL     1       4.534   7.004  15.986  0.00  0.00    +0.000 OA
ENDROOT
BRANCH   1   3
ATOM      3  C   UNL     1       6.203   5.231  16.456  0.00  0.00    +0.000 C 
BRANCH   3   4
ATOM      4  C   UNL     1       6.373   4.852  14.980  0.00  0.00    +0.000 A 
ATOM      5  C   UNL     1       5.486   3.985  14.321  0.00  0.00    +0.000 A 
ATOM      6  C   UNL     1       5.724   3.573  13.005  0.00  0.00    +0.000 A 
ATOM      7  C   UNL     1       6.837   4.040  12.313  0.00  0.00    +0.000 A 
ATOM      8  C   UNL     1       7.685   4.960  12.916  0.00  0.00    +0.000 A 
ATOM      9  C   UNL     1       7.439   5.381  14.223  0.00  0.00    +0.000 A 
ENDBRANCH   3   4
BRANCH   3  11
ATOM     10  C   UNL     1       7.636   5.764  18.557  0.00  0.00    +0.000 C 
ATOM     11  C   UNL     1       7.374   6.036  17.079  0.00  0.00    +0.000 C 
ENDBRANCH   3  11
BRANCH   3  12
ATOM     12  O   UNL     1       6.143   3.981  17.163  0.00  0.00    +0.000 OA
ATOM     13  H   UNL     1       6.002   3.289  16.493  0.00  0.00    +0.000 HD
ENDBRANCH   3  12
ENDBRANCH   1   3
BRANCH   1  14
ATOM     14  O   UNL     1       4.261   5.654  17.822  0.00  0.00    +0.000 OA
BRANCH  14  15
ATOM     15  C   UNL     1       2.826   5.666  17.705  0.00  0.00    +0.000 C 
BRANCH  15  16
ATOM     16  C   UNL     1       2.260   4.381  18.202  0.00  0.00    +0.000 C 
ATOM     17  C   UNL     1       2.249   3.189  17.597  0.00  0.00    +0.000 C 
ATOM     18  C   UNL     1       1.510   2.181  18.406  0.00  0.00    +0.000 C 
ATOM     19  N   UNL     1       1.102   2.884  19.644  0.00  0.00    +0.000 NA
ATOM     20  C   UNL     1       1.752   2.339  20.843  0.00  0.00    +0.000 C 
ATOM     21  C   UNL     1       2.020   3.545  21.726  0.00  0.00    +0.000 C 
ATOM     22  C   UNL     1       2.425   4.610  20.724  0.00  0.00    +0.000 C 
ATOM     23  C   UNL     1       1.545   4.300  19.505  0.00  0.00    +0.000 C 
BRANCH  22  24
ATOM     24  O   UNL     1       2.209   5.916  21.244  0.00  0.00    +0.000 OA
ATOM     25  H   UNL     1       1.787   6.445  20.545  0.00  0.00    +0.000 HD
ENDBRANCH  22  24
ENDBRANCH  15  16
ENDBRANCH  14  15
ENDBRANCH   1  14
TORSDOF 8
ENDMDL
MODEL 6
REMARK VINA RESULT:      -7.3      1.422      1.999
REMARK  Name = 
REMARK  9 active torsions:
REMARK  status: ('A' for Active; 'I' for Inactive)
REMARK    1  A    between atoms: C_1  and  C_2
REMARK    2  A    between atoms: C_2  and  C_3
REMARK    3  A    between atoms: C_3  and  O_4
REMARK    4  A    between atoms: C_3  and  C_5
REMARK    5  A    between atoms: C_3  and  C_18
REMARK    6  A    between atoms: C_5  and  O_7
REMARK    7  A    between atoms: O_7  and  C_8
REMARK    8  A    between atoms: C_8  and  C_9
REMARK    9  A    between atoms: C_15  and  O_16
REMARK                            x       y       z     vdW  Elec       q    Type
REMARK                         _______ _______ _______ _____ _____    ______ ____
ROOT
ATOM      1  C   UNL     1       3.093   3.610  20.289  0.00  0.00    +0.000 C 
ATOM      2  O   UNL     1       3.145   2.722  21.133  0.00  0.00    +0.000 OA
ENDROOT
BRANCH   1   3
ATOM      3  C   UNL     1       1.781   4.159  19.642  0.00  0.00    +0.000 C 
BRANCH   3   4
ATOM      4  C   UNL     1       1.833   5.679  19.454  0.00  0.00    +0.000 A 
ATOM      5  C   UNL     1       2.140   6.273  18.219  0.00  0.00    +0.000 A 
ATOM      6  C   UNL     1       2.284   7.660  18.101  0.00  0.00    +0.000 A 
ATOM      7  C   UNL     1       2.097   8.482  19.207  0.00  0.00    +0.000 A 
ATOM      8  C   UNL     1       1.714   7.925  20.420  0.00  0.00    +0.000 A 
ATOM      9  C   UNL     1       1.557   6.544  20.534  0.00  0.00    +0.000 A 
ENDBRANCH   3   4
BRANCH   3  11
ATOM     10  C   UNL     1       1.158   1.874  18.571  0.00  0.00    +0.000 C 
ATOM     11  C   UNL     1       1.546   3.333  18.348  0.00  0.00    +0.000 C 
ENDBRANCH   3  11
BRANCH   3  12
ATOM     12  O   UNL     1       0.647   3.921  20.492  0.00  0.00    +0.000 OA
ATOM     13  H   UNL     1       0.186   3.144  20.130  0.00  0.00    +0.000 HD
ENDBRANCH   3  12
ENDBRANCH   1   3
BRANCH   1  14
ATOM     14  O   UNL     1       4.183   4.286  19.813  0.00  0.00    +0.000 OA
BRANCH  14  15
ATOM     15  C   UNL     1       5.031   3.491  18.963  0.00  0.00    +0.000 C 
BRANCH  15  16
ATOM     16  C   UNL     1       5.631   4.342  17.897  0.00  0.00    +0.000 C 
ATOM     17  C   UNL     1       5.101   4.699  16.723  0.00  0.00    +0.000 C 
ATOM     18  C   UNL     1       6.069   5.492  15.916  0.00  0.00    +0.000 C 
ATOM     19  N   UNL     1       7.272   5.642  16.766  0.00  0.00    +0.000 NA
ATOM     20  C   UNL     1       7.522   7.038  17.150  0.00  0.00    +0.000 C 
ATOM     21  C   UNL     1       8.046   6.966  18.573  0.00  0.00    +0.000 C 
ATOM     22  C   UNL     1       7.206   5.861  19.184  0.00  0.00    +0.000 C 
ATOM     23  C   UNL     1       7.015   4.878  18.020  0.00  0.00    +0.000 C 
BRANCH  22  24
ATOM     24  O   UNL     1       7.860   5.273  20.301  0.00  0.00    +0.000 OA
ATOM     25  H   UNL     1       8.324   5.983  20.778  0.00  0.00    +0.000 HD
ENDBRANCH  22  24
ENDBRANCH  15  16
ENDBRANCH  14  15
ENDBRANCH   1  14
TORSDOF 8
ENDMDL
MODEL 7
REMARK VINA RESULT:      -7.3      2.486      6.518
REMARK  Name = 
REMARK  9 active torsions:
REMARK  status: ('A' for Active; 'I' for Inactive)
REMARK    1  A    between atoms: C_1  and  C_2
REMARK    2  A    between atoms: C_2  and  C_3
REMARK    3  A    between atoms: C_3  and  O_4
REMARK    4  A    between atoms: C_3  and  C_5
REMARK    5  A    between atoms: C_3  and  C_18
REMARK    6  A    between atoms: C_5  and  O_7
REMARK    7  A    between atoms: O_7  and  C_8
REMARK    8  A    between atoms: C_8  and  C_9
REMARK    9  A    between atoms: C_15  and  O_16
REMARK                            x       y       z     vdW  Elec       q    Type
REMARK                         _______ _______ _______ _____ _____    ______ ____
ROOT
ATOM      1  C   UNL     1       5.075   5.914  16.088  0.00  0.00    +0.000 C 
ATOM      2  O   UNL     1       5.003   6.976  15.478  0.00  0.00    +0.000 OA
ENDROOT
BRANCH   1   3
ATOM      3  C   UNL     1       6.228   4.871  15.942  0.00  0.00    +0.000 C 
BRANCH   3   4
ATOM      4  C   UNL     1       6.541   4.573  14.471  0.00  0.00    +0.000 A 
ATOM      5  C   UNL     1       7.563   5.235  13.772  0.00  0.00    +0.000 A 
ATOM      6  C   UNL     1       7.758   5.020  12.403  0.00  0.00    +0.000 A 
ATOM      7  C   UNL     1       6.955   4.119  11.713  0.00  0.00    +0.000 A 
ATOM      8  C   UNL     1       5.990   3.393  12.398  0.00  0.00    +0.000 A 
ATOM      9  C   UNL     1       5.805   3.598  13.765  0.00  0.00    +0.000 A 
ENDBRANCH   3   4
BRANCH   3  11
ATOM     10  C   UNL     1       7.754   4.581  18.025  0.00  0.00    +0.000 C 
ATOM     11  C   UNL     1       7.418   5.403  16.784  0.00  0.00    +0.000 C 
ENDBRANCH   3  11
BRANCH   3  12
ATOM     12  O   UNL     1       5.855   3.605  16.513  0.00  0.00    +0.000 OA
ATOM     13  H   UNL     1       4.890   3.627  16.632  0.00  0.00    +0.000 HD
ENDBRANCH   3  12
ENDBRANCH   1   3
BRANCH   1  14
ATOM     14  O   UNL     1       4.167   5.501  17.025  0.00  0.00    +0.000 OA
BRANCH  14  15
ATOM     15  C   UNL     1       4.446   5.983  18.353  0.00  0.00    +0.000 C 
BRANCH  15  16
ATOM     16  C   UNL     1       3.347   5.597  19.280  0.00  0.00    +0.000 C 
ATOM     17  C   UNL     1       2.335   6.348  19.727  0.00  0.00    +0.000 C 
ATOM     18  C   UNL     1       1.500   5.598  20.705  0.00  0.00    +0.000 C 
ATOM     19  N   UNL     1       2.086   4.240  20.774  0.00  0.00    +0.000 NA
ATOM     20  C   UNL     1       1.176   3.205  20.265  0.00  0.00    +0.000 C 
ATOM     21  C   UNL     1       2.073   2.210  19.553  0.00  0.00    +0.000 C 
ATOM     22  C   UNL     1       3.100   3.103  18.883  0.00  0.00    +0.000 C 
ATOM     23  C   UNL     1       3.289   4.242  19.895  0.00  0.00    +0.000 C 
BRANCH  22  24
ATOM     24  O   UNL     1       4.305   2.395  18.618  0.00  0.00    +0.000 OA
ATOM     25  H   UNL     1       5.031   2.874  19.053  0.00  0.00    +0.000 HD
ENDBRANCH  22  24
ENDBRANCH  15  16
ENDBRANCH  14  15
ENDBRANCH   1  14
TORSDOF 8
ENDMDL
MODEL 8
REMARK VINA RESULT:      -7.3      2.666      6.517
REMARK  Name = 
REMARK  9 active torsions:
REMARK  status: ('A' for Active; 'I' for Inactive)
REMARK    1  A    between atoms: C_1  and  C_2
REMARK    2  A    between atoms: C_2  and  C_3
REMARK    3  A    between atoms: C_3  and  O_4
REMARK    4  A    between atoms: C_3  and  C_5
REMARK    5  A    between atoms: C_3  and  C_18
REMARK    6  A    between atoms: C_5  and  O_7
REMARK    7  A    between atoms: O_7  and  C_8
REMARK    8  A    between atoms: C_8  and  C_9
REMARK    9  A    between atoms: C_15  and  O_16
REMARK                            x       y       z     vdW  Elec       q    Type
REMARK                         _______ _______ _______ _____ _____    ______ ____
ROOT
ATOM      1  C   UNL     1       5.323   5.088  16.874  0.00  0.00    +0.000 C 
ATOM      2  O   UNL     1       4.442   5.918  16.672  0.00  0.00    +0.000 OA
ENDROOT
BRANCH   1   3
ATOM      3  C   UNL     1       6.789   5.188  16.346  0.00  0.00    +0.000 C 
BRANCH   3   4
ATOM      4  C   UNL     1       6.885   4.815  14.862  0.00  0.00    +0.000 A 
ATOM      5  C   UNL     1       7.790   5.439  13.988  0.00  0.00    +0.000 A 
ATOM      6  C   UNL     1       7.783   5.154  12.618  0.00  0.00    +0.000 A 
ATOM      7  C   UNL     1       6.892   4.221  12.099  0.00  0.00    +0.000 A 
ATOM      8  C   UNL     1       6.043   3.532  12.955  0.00  0.00    +0.000 A 
ATOM      9  C   UNL     1       6.059   3.806  14.322  0.00  0.00    +0.000 A 
ENDBRANCH   3   4
BRANCH   3  11
ATOM     10  C   UNL     1       7.724   6.790  18.166  0.00  0.00    +0.000 C 
ATOM     11  C   UNL     1       7.297   6.608  16.712  0.00  0.00    +0.000 C 
ENDBRANCH   3  11
BRANCH   3  12
ATOM     12  O   UNL     1       7.648   4.257  17.025  0.00  0.00    +0.000 OA
ATOM     13  H   UNL     1       8.122   3.760  16.335  0.00  0.00    +0.000 HD
ENDBRANCH   3  12
ENDBRANCH   1   3
BRANCH   1  14
ATOM     14  O   UNL     1       5.160   3.960  17.632  0.00  0.00    +0.000 OA
BRANCH  14  15
ATOM     15  C   UNL     1       5.214   4.204  19.050  0.00  0.00    +0.000 C 
BRANCH  15  16
ATOM     16  C   UNL     1       3.836   4.346  19.598  0.00  0.00    +0.000 C 
ATOM     17  C   UNL     1       3.199   5.462  19.964  0.00  0.00    +0.000 C 
ATOM     18  C   UNL     1       1.860   5.154  20.538  0.00  0.00    +0.000 C 
ATOM     19  N   UNL     1       1.708   3.685  20.432  0.00  0.00    +0.000 NA
ATOM     20  C   UNL     1       0.628   3.294  19.516  0.00  0.00    +0.000 C 
ATOM     21  C   UNL     1       1.139   2.045  18.819  0.00  0.00    +0.000 C 
ATOM     22  C   UNL     1       2.609   2.355  18.612  0.00  0.00    +0.000 C 
ATOM     23  C   UNL     1       2.981   3.156  19.867  0.00  0.00    +0.000 C 
BRANCH  22  24
ATOM     24  O   UNL     1       3.372   1.163  18.471  0.00  0.00    +0.000 OA
ATOM     25  H   UNL     1       3.674   1.114  17.547  0.00  0.00    +0.000 HD
ENDBRANCH  22  24
ENDBRANCH  15  16
ENDBRANCH  14  15
ENDBRANCH   1  14
TORSDOF 8
ENDMDL
MODEL 9
REMARK VINA RESULT:      -7.1      0.728      1.261
REMARK  Name = 
REMARK  9 active torsions:
REMARK  status: ('A' for Active; 'I' for Inactive)
REMARK    1  A    between atoms: C_1  and  C_2
REMARK    2  A    between atoms: C_2  and  C_3
REMARK    3  A    between atoms: C_3  and  O_4
REMARK    4  A    between atoms: C_3  and  C_5
REMARK    5  A    between atoms: C_3  and  C_18
REMARK    6  A    between atoms: C_5  and  O_7
REMARK    7  A    between atoms: O_7  and  C_8
REMARK    8  A    between atoms: C_8  and  C_9
REMARK    9  A    between atoms: C_15  and  O_16
REMARK                            x       y       z     vdW  Elec       q    Type
REMARK                         _______ _______ _______ _____ _____    ______ ____
ROOT
ATOM      1  C   UNL     1       2.103   3.353  18.230  0.00  0.00    +0.000 C 
ATOM      2  O   UNL     1       1.362   2.406  17.984  0.00  0.00    +0.000 OA
ENDROOT
BRANCH   1   3
ATOM      3  C   UNL     1       2.181   4.100  19.599  0.00  0.00    +0.000 C 
BRANCH   3   4
ATOM      4  C   UNL     1       2.077   5.619  19.424  0.00  0.00    +0.000 A 
ATOM      5  C   UNL     1       2.383   6.258  18.210  0.00  0.00    +0.000 A 
ATOM      6  C   UNL     1       2.381   7.653  18.109  0.00  0.00    +0.000 A 
ATOM      7  C   UNL     1       2.048   8.437  19.208  0.00  0.00    +0.000 A 
ATOM      8  C   UNL     1       1.665   7.828  20.396  0.00  0.00    +0.000 A 
ATOM      9  C   UNL     1       1.654   6.437  20.493  0.00  0.00    +0.000 A 
ENDBRANCH   3   4
BRANCH   3  11
ATOM     10  C   UNL     1       1.654   2.661  21.697  0.00  0.00    +0.000 C 
ATOM     11  C   UNL     1       1.107   3.458  20.517  0.00  0.00    +0.000 C 
ENDBRANCH   3  11
BRANCH   3  12
ATOM     12  O   UNL     1       3.451   3.879  20.236  0.00  0.00    +0.000 OA
ATOM     13  H   UNL     1       3.287   3.894  21.196  0.00  0.00    +0.000 HD
ENDBRANCH   3  12
ENDBRANCH   1   3
BRANCH   1  14
ATOM     14  O   UNL     1       3.006   3.874  17.344  0.00  0.00    +0.000 OA
BRANCH  14  15
ATOM     15  C   UNL     1       4.241   3.138  17.277  0.00  0.00    +0.000 C 
BRANCH  15  16
ATOM     16  C   UNL     1       5.291   3.956  16.608  0.00  0.00    +0.000 C 
ATOM     17  C   UNL     1       5.361   4.328  15.326  0.00  0.00    +0.000 C 
ATOM     18  C   UNL     1       6.620   5.075  15.051  0.00  0.00    +0.000 C 
ATOM     19  N   UNL     1       7.315   5.180  16.354  0.00  0.00    +0.000 NA
ATOM     20  C   UNL     1       7.421   6.567  16.828  0.00  0.00    +0.000 C 
ATOM     21  C   UNL     1       7.245   6.482  18.333  0.00  0.00    +0.000 C 
ATOM     22  C   UNL     1       6.176   5.417  18.485  0.00  0.00    +0.000 C 
ATOM     23  C   UNL     1       6.491   4.435  17.347  0.00  0.00    +0.000 C 
BRANCH  22  24
ATOM     24  O   UNL     1       6.232   4.809  19.770  0.00  0.00    +0.000 OA
ATOM     25  H   UNL     1       7.167   4.778  20.040  0.00  0.00    +0.000 HD
ENDBRANCH  22  24
ENDBRANCH  15  16
ENDBRANCH  14  15
ENDBRANCH   1  14
TORSDOF 8
ENDMDL
