MODEL 1
REMARK VINA RESULT:      -9.6      0.000      0.000
REMARK  Name = 
REMARK  10 active torsions:
REMARK  status: ('A' for Active; 'I' for Inactive)
REMARK    1  A    between atoms: C_1  and  C_2
REMARK    2  A    between atoms: C_2  and  O_3
REMARK    3  A    between atoms: C_2  and  C_4
REMARK    4  A    between atoms: C_2  and  C_29
REMARK    5  A    between atoms: C_7  and  N_8
REMARK    6  A    between atoms: N_11  and  C_12
REMARK    7  A    between atoms: C_15  and  C_16
REMARK    8  A    between atoms: C_15  and  O_17
REMARK    9  A    between atoms: C_19  and  C_20
REMARK   10  A    between atoms: C_23  and  C_24
REMARK                            x       y       z     vdW  Elec       q    Type
REMARK                         _______ _______ _______ _____ _____    ______ ____
ROOT
ATOM      1  N   UNL     1       2.160   6.095  20.981  0.00  0.00    +0.000 N 
ATOM      2  C   UNL     1       2.858   5.151  20.311  0.00  0.00    +0.000 A 
ATOM      3  N   UNL     1       3.798   5.436  19.397  0.00  0.00    +0.000 NA
ATOM      4  N   UNL     1       4.199   4.261  18.926  0.00  0.00    +0.000 N 
ATOM      5  C   UNL     1       3.586   3.214  19.526  0.00  0.00    +0.000 A 
ATOM      6  C   UNL     1       2.692   3.740  20.442  0.00  0.00    +0.000 A 
ATOM      7  H   UNL     1       1.610   5.829  21.795  0.00  0.00    +0.000 HD
ENDROOT
BRANCH   4   8
ATOM      8  C   UNL     1       5.181   4.215  17.838  0.00  0.00    +0.000 C 
ATOM      9  C   UNL     1       4.471   4.039  16.479  0.00  0.00    +0.000 C 
ATOM     10  C   UNL     1       5.436   4.104  15.290  0.00  0.00    +0.000 C 
ATOM     11  C   UNL     1       6.281   5.382  15.316  0.00  0.00    +0.000 C 
ATOM     12  C   UNL     1       7.277   5.445  14.160  0.00  0.00    +0.000 C 
ATOM     13  C   UNL     1       7.041   5.470  16.639  0.00  0.00    +0.000 C 
ATOM     14  C   UNL     1       6.099   5.455  17.852  0.00  0.00    +0.000 C 
BRANCH  11  15
ATOM     15  O   UNL     1       5.420   6.513  15.229  0.00  0.00    +0.000 OA
ATOM     16  H   UNL     1       5.861   7.275  15.644  0.00  0.00    +0.000 HD
ENDBRANCH  11  15
BRANCH  14  17
ATOM     17  C   UNL     1       6.923   5.475  19.067  0.00  0.00    +0.000 C 
ATOM     18  N   UNL     1       7.519   5.459  20.069  0.00  0.00    +0.000 NA
ENDBRANCH  14  17
ENDBRANCH   4   8
BRANCH   1  22
ATOM     19  C   UNL     1       1.069   9.899  19.400  0.00  0.00    +0.000 A 
ATOM     20  C   UNL     1       1.705   8.942  18.600  0.00  0.00    +0.000 A 
ATOM     21  C   UNL     1       2.042   7.690  19.118  0.00  0.00    +0.000 A 
ATOM     22  C   UNL     1       1.764   7.347  20.449  0.00  0.00    +0.000 A 
ATOM     23  C   UNL     1       1.140   8.299  21.254  0.00  0.00    +0.000 A 
ATOM     24  C   UNL     1       0.804   9.555  20.742  0.00  0.00    +0.000 A 
BRANCH  19  26
ATOM     25  C   UNL     1      -0.318  12.020  19.829  0.00  0.00    +0.000 C 
ATOM     26  C   UNL     1       0.603  11.253  18.869  0.00  0.00    +0.000 C 
BRANCH  26  27
ATOM     27  C   UNL     1       1.831  12.168  18.523  0.00  0.00    +0.000 C 
ATOM     28  F   UNL     1       2.742  11.546  17.739  0.00  0.00    +0.000 F 
ATOM     29  F   UNL     1       1.480  13.307  17.878  0.00  0.00    +0.000 F 
ATOM     30  F   UNL     1       2.473  12.556  19.656  0.00  0.00    +0.000 F 
ENDBRANCH  26  27
BRANCH  26  31
ATOM     31  O   UNL     1      -0.231  10.981  17.712  0.00  0.00    +0.000 OA
ATOM     32  H   UNL     1      -0.781  10.204  17.916  0.00  0.00    +0.000 HD
ENDBRANCH  26  31
ENDBRANCH  19  26
ENDBRANCH   1  22
BRANCH   6  33
ATOM     33  C   UNL     1       1.774   2.970  21.259  0.00  0.00    +0.000 C 
ATOM     34  N   UNL     1       0.512   2.822  20.749  0.00  0.00    +0.000 N 
ATOM     35  O   UNL     1       2.075   2.453  22.330  0.00  0.00    +0.000 OA
ATOM     36  H   UNL     1       0.318   2.978  19.768  0.00  0.00    +0.000 HD
ATOM     37  H   UNL     1      -0.110   2.205  21.247  0.00  0.00    +0.000 HD
ENDBRANCH   6  33
TORSDOF 8
ENDMDL
MODEL 2
REMARK VINA RESULT:      -9.4      1.224      1.708
REMARK  Name = 
REMARK  10 active torsions:
REMARK  status: ('A' for Active; 'I' for Inactive)
REMARK    1  A    between atoms: C_1  and  C_2
REMARK    2  A    between atoms: C_2  and  O_3
REMARK    3  A    between atoms: C_2  and  C_4
REMARK    4  A    between atoms: C_2  and  C_29
REMARK    5  A    between atoms: C_7  and  N_8
REMARK    6  A    between atoms: N_11  and  C_12
REMARK    7  A    between atoms: C_15  and  C_16
REMARK    8  A    between atoms: C_15  and  O_17
REMARK    9  A    between atoms: C_19  and  C_20
REMARK   10  A    between atoms: C_23  and  C_24
REMARK                            x       y       z     vdW  Elec       q    Type
REMARK                         _______ _______ _______ _____ _____    ______ ____
ROOT
ATOM      1  N   UNL     1       2.160   6.016  21.002  0.00  0.00    +0.000 N 
ATOM      2  C   UNL     1       2.827   5.077  20.293  0.00  0.00    +0.000 A 
ATOM      3  N   UNL     1       3.812   5.365  19.430  0.00  0.00    +0.000 NA
ATOM      4  N   UNL     1       4.163   4.202  18.895  0.00  0.00    +0.000 N 
ATOM      5  C   UNL     1       3.472   3.156  19.405  0.00  0.00    +0.000 A 
ATOM      6  C   UNL     1       2.577   3.673  20.326  0.00  0.00    +0.000 A 
ATOM      7  H   UNL     1       1.567   5.730  21.779  0.00  0.00    +0.000 HD
ENDROOT
BRANCH   4   8
ATOM      8  C   UNL     1       5.179   4.169  17.838  0.00  0.00    +0.000 C 
ATOM      9  C   UNL     1       4.515   3.960  16.461  0.00  0.00    +0.000 C 
ATOM     10  C   UNL     1       5.513   4.036  15.300  0.00  0.00    +0.000 C 
ATOM     11  C   UNL     1       6.326   5.336  15.336  0.00  0.00    +0.000 C 
ATOM     12  C   UNL     1       7.354   5.411  14.210  0.00  0.00    +0.000 C 
ATOM     13  C   UNL     1       7.043   5.458  16.681  0.00  0.00    +0.000 C 
ATOM     14  C   UNL     1       6.065   5.431  17.865  0.00  0.00    +0.000 C 
BRANCH  11  15
ATOM     15  O   UNL     1       5.439   6.444  15.211  0.00  0.00    +0.000 OA
ATOM     16  H   UNL     1       5.151   6.716  16.100  0.00  0.00    +0.000 HD
ENDBRANCH  11  15
BRANCH  14  17
ATOM     17  C   UNL     1       6.851   5.486  19.104  0.00  0.00    +0.000 C 
ATOM     18  N   UNL     1       7.504   5.462  20.069  0.00  0.00    +0.000 NA
ENDBRANCH  14  17
ENDBRANCH   4   8
BRANCH   1  22
ATOM     19  C   UNL     1       1.135   9.903  19.591  0.00  0.00    +0.000 A 
ATOM     20  C   UNL     1       0.847   9.516  20.905  0.00  0.00    +0.000 A 
ATOM     21  C   UNL     1       1.204   8.248  21.368  0.00  0.00    +0.000 A 
ATOM     22  C   UNL     1       1.853   7.320  20.541  0.00  0.00    +0.000 A 
ATOM     23  C   UNL     1       2.133   7.696  19.228  0.00  0.00    +0.000 A 
ATOM     24  C   UNL     1       1.774   8.962  18.758  0.00  0.00    +0.000 A 
BRANCH  19  26
ATOM     25  C   UNL     1       1.826  11.776  17.971  0.00  0.00    +0.000 C 
ATOM     26  C   UNL     1       0.844  11.303  19.052  0.00  0.00    +0.000 C 
BRANCH  26  27
ATOM     27  C   UNL     1      -0.612  11.383  18.468  0.00  0.00    +0.000 C 
ATOM     28  F   UNL     1      -0.836  12.524  17.777  0.00  0.00    +0.000 F 
ATOM     29  F   UNL     1      -0.904  10.360  17.629  0.00  0.00    +0.000 F 
ATOM     30  F   UNL     1      -1.532  11.330  19.466  0.00  0.00    +0.000 F 
ENDBRANCH  26  27
BRANCH  26  31
ATOM     31  O   UNL     1       1.052  12.225  20.154  0.00  0.00    +0.000 OA
ATOM     32  H   UNL     1       1.512  11.742  20.864  0.00  0.00    +0.000 HD
ENDBRANCH  26  31
ENDBRANCH  19  26
ENDBRANCH   1  22
BRANCH   6  33
ATOM     33  C   UNL     1       1.590   2.907  21.060  0.00  0.00    +0.000 C 
ATOM     34  N   UNL     1       0.395   2.715  20.420  0.00  0.00    +0.000 N 
ATOM     35  O   UNL     1       1.781   2.429  22.175  0.00  0.00    +0.000 OA
ATOM     36  H   UNL     1       0.308   2.837  19.420  0.00  0.00    +0.000 HD
ATOM     37  H   UNL     1      -0.266   2.099  20.866  0.00  0.00    +0.000 HD
ENDBRANCH   6  33
TORSDOF 8
ENDMDL
MODEL 3
REMARK VINA RESULT:      -9.3      0.850      1.324
REMARK  Name = 
REMARK  10 active torsions:
REMARK  status: ('A' for Active; 'I' for Inactive)
REMARK    1  A    between atoms: C_1  and  C_2
REMARK    2  A    between atoms: C_2  and  O_3
REMARK    3  A    between atoms: C_2  and  C_4
REMARK    4  A    between atoms: C_2  and  C_29
REMARK    5  A    between atoms: C_7  and  N_8
REMARK    6  A    between atoms: N_11  and  C_12
REMARK    7  A    between atoms: C_15  and  C_16
REMARK    8  A    between atoms: C_15  and  O_17
REMARK    9  A    between atoms: C_19  and  C_20
REMARK   10  A    between atoms: C_23  and  C_24
REMARK                            x       y       z     vdW  Elec       q    Type
REMARK                         _______ _______ _______ _____ _____    ______ ____
ROOT
ATOM      1  N   UNL     1       2.185   6.040  20.974  0.00  0.00    +0.000 N 
ATOM      2  C   UNL     1       2.860   5.092  20.285  0.00  0.00    +0.000 A 
ATOM      3  N   UNL     1       3.826   5.370  19.398  0.00  0.00    +0.000 NA
ATOM      4  N   UNL     1       4.192   4.197  18.895  0.00  0.00    +0.000 N 
ATOM      5  C   UNL     1       3.530   3.156  19.450  0.00  0.00    +0.000 A 
ATOM      6  C   UNL     1       2.639   3.685  20.367  0.00  0.00    +0.000 A 
ATOM      7  H   UNL     1       1.610   5.768  21.769  0.00  0.00    +0.000 HD
ENDROOT
BRANCH   4   8
ATOM      8  C   UNL     1       5.191   4.150  17.824  0.00  0.00    +0.000 C 
ATOM      9  C   UNL     1       4.504   3.958  16.455  0.00  0.00    +0.000 C 
ATOM     10  C   UNL     1       5.488   4.020  15.281  0.00  0.00    +0.000 C 
ATOM     11  C   UNL     1       6.325   5.304  15.310  0.00  0.00    +0.000 C 
ATOM     12  C   UNL     1       7.338   5.364  14.170  0.00  0.00    +0.000 C 
ATOM     13  C   UNL     1       7.063   5.408  16.645  0.00  0.00    +0.000 C 
ATOM     14  C   UNL     1       6.101   5.395  17.843  0.00  0.00    +0.000 C 
BRANCH  11  15
ATOM     15  O   UNL     1       5.457   6.429  15.201  0.00  0.00    +0.000 OA
ATOM     16  H   UNL     1       4.966   6.365  14.364  0.00  0.00    +0.000 HD
ENDBRANCH  11  15
BRANCH  14  17
ATOM     17  C   UNL     1       6.905   5.430  19.071  0.00  0.00    +0.000 C 
ATOM     18  N   UNL     1       7.481   5.480  20.083  0.00  0.00    +0.000 NA
ENDBRANCH  14  17
ENDBRANCH   4   8
BRANCH   1  22
ATOM     19  C   UNL     1       1.064   9.856  19.445  0.00  0.00    +0.000 A 
ATOM     20  C   UNL     1       0.718   9.473  20.746  0.00  0.00    +0.000 A 
ATOM     21  C   UNL     1       1.106   8.229  21.248  0.00  0.00    +0.000 A 
ATOM     22  C   UNL     1       1.845   7.322  20.475  0.00  0.00    +0.000 A 
ATOM     23  C   UNL     1       2.183   7.694  19.175  0.00  0.00    +0.000 A 
ATOM     24  C   UNL     1       1.794   8.935  18.665  0.00  0.00    +0.000 A 
BRANCH  19  26
ATOM     25  C   UNL     1      -0.638  11.322  18.197  0.00  0.00    +0.000 C 
ATOM     26  C   UNL     1       0.739  11.233  18.868  0.00  0.00    +0.000 C 
BRANCH  26  27
ATOM     27  C   UNL     1       0.820  12.337  19.983  0.00  0.00    +0.000 C 
ATOM     28  F   UNL     1       1.875  12.166  20.812  0.00  0.00    +0.000 F 
ATOM     29  F   UNL     1       0.922  13.591  19.481  0.00  0.00    +0.000 F 
ATOM     30  F   UNL     1      -0.301  12.325  20.751  0.00  0.00    +0.000 F 
ENDBRANCH  26  27
BRANCH  26  31
ATOM     31  O   UNL     1       1.681  11.464  17.788  0.00  0.00    +0.000 OA
ATOM     32  H   UNL     1       1.928  10.598  17.417  0.00  0.00    +0.000 HD
ENDBRANCH  26  31
ENDBRANCH  19  26
ENDBRANCH   1  22
BRANCH   6  33
ATOM     33  C   UNL     1       1.678   2.924  21.142  0.00  0.00    +0.000 C 
ATOM     34  N   UNL     1       0.451   2.754  20.559  0.00  0.00    +0.000 N 
ATOM     35  O   UNL     1       1.917   2.433  22.242  0.00  0.00    +0.000 OA
ATOM     36  H   UNL     1       0.317   2.887  19.565  0.00  0.00    +0.000 HD
ATOM     37  H   UNL     1      -0.196   2.142  21.031  0.00  0.00    +0.000 HD
ENDBRANCH   6  33
TORSDOF 8
ENDMDL
MODEL 4
REMARK VINA RESULT:      -9.2      0.854      1.172
REMARK  Name = 
REMARK  10 active torsions:
REMARK  status: ('A' for Active; 'I' for Inactive)
REMARK    1  A    between atoms: C_1  and  C_2
REMARK    2  A    between atoms: C_2  and  O_3
REMARK    3  A    between atoms: C_2  and  C_4
REMARK    4  A    between atoms: C_2  and  C_29
REMARK    5  A    between atoms: C_7  and  N_8
REMARK    6  A    between atoms: N_11  and  C_12
REMARK    7  A    between atoms: C_15  and  C_16
REMARK    8  A    between atoms: C_15  and  O_17
REMARK    9  A    between atoms: C_19  and  C_20
REMARK   10  A    between atoms: C_23  and  C_24
REMARK                            x       y       z     vdW  Elec       q    Type
REMARK                         _______ _______ _______ _____ _____    ______ ____
ROOT
ATOM      1  N   UNL     1       2.137   6.045  20.943  0.00  0.00    +0.000 N 
ATOM      2  C   UNL     1       2.825   5.097  20.267  0.00  0.00    +0.000 A 
ATOM      3  N   UNL     1       3.792   5.377  19.381  0.00  0.00    +0.000 NA
ATOM      4  N   UNL     1       4.173   4.202  18.893  0.00  0.00    +0.000 N 
ATOM      5  C   UNL     1       3.520   3.160  19.455  0.00  0.00    +0.000 A 
ATOM      6  C   UNL     1       2.619   3.689  20.363  0.00  0.00    +0.000 A 
ATOM      7  H   UNL     1       1.561   5.776  21.739  0.00  0.00    +0.000 HD
ENDROOT
BRANCH   4   8
ATOM      8  C   UNL     1       5.178   4.154  17.826  0.00  0.00    +0.000 C 
ATOM      9  C   UNL     1       4.497   3.974  16.453  0.00  0.00    +0.000 C 
ATOM     10  C   UNL     1       5.487   4.036  15.285  0.00  0.00    +0.000 C 
ATOM     11  C   UNL     1       6.332   5.315  15.325  0.00  0.00    +0.000 C 
ATOM     12  C   UNL     1       7.352   5.375  14.191  0.00  0.00    +0.000 C 
ATOM     13  C   UNL     1       7.063   5.407  16.664  0.00  0.00    +0.000 C 
ATOM     14  C   UNL     1       6.095   5.394  17.857  0.00  0.00    +0.000 C 
BRANCH  11  15
ATOM     15  O   UNL     1       5.472   6.446  15.218  0.00  0.00    +0.000 OA
ATOM     16  H   UNL     1       5.241   6.749  16.113  0.00  0.00    +0.000 HD
ENDBRANCH  11  15
BRANCH  14  17
ATOM     17  C   UNL     1       6.893   5.417  19.089  0.00  0.00    +0.000 C 
ATOM     18  N   UNL     1       7.518   5.512  20.069  0.00  0.00    +0.000 NA
ENDBRANCH  14  17
ENDBRANCH   4   8
BRANCH   1  22
ATOM     19  C   UNL     1       1.179   9.912  19.431  0.00  0.00    +0.000 A 
ATOM     20  C   UNL     1       1.884   8.989  18.651  0.00  0.00    +0.000 A 
ATOM     21  C   UNL     1       2.178   7.716  19.144  0.00  0.00    +0.000 A 
ATOM     22  C   UNL     1       1.786   7.318  20.430  0.00  0.00    +0.000 A 
ATOM     23  C   UNL     1       1.092   8.237  21.217  0.00  0.00    +0.000 A 
ATOM     24  C   UNL     1       0.800   9.514  20.730  0.00  0.00    +0.000 A 
BRANCH  19  26
ATOM     25  C   UNL     1      -0.645  11.322  18.295  0.00  0.00    +0.000 C 
ATOM     26  C   UNL     1       0.758  11.288  18.918  0.00  0.00    +0.000 C 
BRANCH  26  27
ATOM     27  C   UNL     1       0.815  12.354  20.070  0.00  0.00    +0.000 C 
ATOM     28  F   UNL     1      -0.201  12.225  20.952  0.00  0.00    +0.000 F 
ATOM     29  F   UNL     1       1.962  12.295  20.790  0.00  0.00    +0.000 F 
ATOM     30  F   UNL     1       0.751  13.612  19.562  0.00  0.00    +0.000 F 
ENDBRANCH  26  27
BRANCH  26  31
ATOM     31  O   UNL     1       1.648  11.610  17.817  0.00  0.00    +0.000 OA
ATOM     32  H   UNL     1       1.478  10.974  17.099  0.00  0.00    +0.000 HD
ENDBRANCH  26  31
ENDBRANCH  19  26
ENDBRANCH   1  22
BRANCH   6  33
ATOM     33  C   UNL     1       1.662   2.926  21.142  0.00  0.00    +0.000 C 
ATOM     34  N   UNL     1       0.444   2.729  20.551  0.00  0.00    +0.000 N 
ATOM     35  O   UNL     1       1.899   2.455  22.250  0.00  0.00    +0.000 OA
ATOM     36  H   UNL     1       0.316   2.845  19.554  0.00  0.00    +0.000 HD
ATOM     37  H   UNL     1      -0.198   2.114  21.027  0.00  0.00    +0.000 HD
ENDBRANCH   6  33
TORSDOF 8
ENDMDL
MODEL 5
REMARK VINA RESULT:      -8.2      4.648      9.741
REMARK  Name = 
REMARK  10 active torsions:
REMARK  status: ('A' for Active; 'I' for Inactive)
REMARK    1  A    between atoms: C_1  and  C_2
REMARK    2  A    between atoms: C_2  and  O_3
REMARK    3  A    between atoms: C_2  and  C_4
REMARK    4  A    between atoms: C_2  and  C_29
REMARK    5  A    between atoms: C_7  and  N_8
REMARK    6  A    between atoms: N_11  and  C_12
REMARK    7  A    between atoms: C_15  and  C_16
REMARK    8  A    between atoms: C_15  and  O_17
REMARK    9  A    between atoms: C_19  and  C_20
REMARK   10  A    between atoms: C_23  and  C_24
REMARK                            x       y       z     vdW  Elec       q    Type
REMARK                         _______ _______ _______ _____ _____    ______ ____
ROOT
ATOM      1  N   UNL     1       1.441  10.585  19.607  0.00  0.00    +0.000 N 
ATOM      2  C   UNL     1       0.311  11.251  19.278  0.00  0.00    +0.000 A 
ATOM      3  N   UNL     1      -0.919  10.735  19.417  0.00  0.00    +0.000 NA
ATOM      4  N   UNL     1      -1.744  11.655  18.933  0.00  0.00    +0.000 N 
ATOM      5  C   UNL     1      -1.104  12.773  18.518  0.00  0.00    +0.000 A 
ATOM      6  C   UNL     1       0.249  12.562  18.718  0.00  0.00    +0.000 A 
ATOM      7  H   UNL     1       2.322  11.091  19.668  0.00  0.00    +0.000 HD
ENDROOT
BRANCH   4   8
ATOM      8  C   UNL     1      -3.181  11.372  18.863  0.00  0.00    +0.000 C 
ATOM      9  C   UNL     1      -3.950  12.236  19.885  0.00  0.00    +0.000 C 
ATOM     10  C   UNL     1      -5.471  12.073  19.777  0.00  0.00    +0.000 C 
ATOM     11  C   UNL     1      -5.968  12.323  18.348  0.00  0.00    +0.000 C 
ATOM     12  C   UNL     1      -7.476  12.126  18.214  0.00  0.00    +0.000 C 
ATOM     13  C   UNL     1      -5.250  11.382  17.381  0.00  0.00    +0.000 C 
ATOM     14  C   UNL     1      -3.724  11.553  17.430  0.00  0.00    +0.000 C 
BRANCH  11  15
ATOM     15  O   UNL     1      -5.654  13.660  17.972  0.00  0.00    +0.000 OA
ATOM     16  H   UNL     1      -5.846  13.772  17.025  0.00  0.00    +0.000 HD
ENDBRANCH  11  15
BRANCH  14  17
ATOM     17  C   UNL     1      -3.127  10.565  16.522  0.00  0.00    +0.000 C 
ATOM     18  N   UNL     1      -2.635   9.839  15.755  0.00  0.00    +0.000 NA
ENDBRANCH  14  17
ENDBRANCH   4   8
BRANCH   1  22
ATOM     19  C   UNL     1       2.112   6.393  19.246  0.00  0.00    +0.000 A 
ATOM     20  C   UNL     1       1.705   6.954  20.462  0.00  0.00    +0.000 A 
ATOM     21  C   UNL     1       1.466   8.326  20.568  0.00  0.00    +0.000 A 
ATOM     22  C   UNL     1       1.630   9.187  19.475  0.00  0.00    +0.000 A 
ATOM     23  C   UNL     1       2.046   8.636  18.264  0.00  0.00    +0.000 A 
ATOM     24  C   UNL     1       2.290   7.265  18.152  0.00  0.00    +0.000 A 
BRANCH  19  26
ATOM     25  C   UNL     1       1.649   4.336  17.775  0.00  0.00    +0.000 C 
ATOM     26  C   UNL     1       2.309   4.891  19.046  0.00  0.00    +0.000 C 
BRANCH  26  27
ATOM     27  C   UNL     1       3.837   4.530  19.009  0.00  0.00    +0.000 C 
ATOM     28  F   UNL     1       4.094   3.296  19.501  0.00  0.00    +0.000 F 
ATOM     29  F   UNL     1       4.361   4.565  17.761  0.00  0.00    +0.000 F 
ATOM     30  F   UNL     1       4.556   5.415  19.748  0.00  0.00    +0.000 F 
ENDBRANCH  26  27
BRANCH  26  31
ATOM     31  O   UNL     1       1.608   4.231  20.132  0.00  0.00    +0.000 OA
ATOM     32  H   UNL     1       0.702   4.039  19.829  0.00  0.00    +0.000 HD
ENDBRANCH  26  31
ENDBRANCH  19  26
ENDBRANCH   1  22
BRANCH   6  33
ATOM     33  C   UNL     1       1.307  13.481  18.346  0.00  0.00    +0.000 C 
ATOM     34  N   UNL     1       2.238  12.987  17.472  0.00  0.00    +0.000 N 
ATOM     35  O   UNL     1       1.387  14.637  18.750  0.00  0.00    +0.000 OA
ATOM     36  H   UNL     1       2.050  12.168  16.909  0.00  0.00    +0.000 HD
ATOM     37  H   UNL     1       2.921  13.639  17.119  0.00  0.00    +0.000 HD
ENDBRANCH   6  33
TORSDOF 8
ENDMDL
MODEL 6
REMARK VINA RESULT:      -8.1      4.644      9.687
REMARK  Name = 
REMARK  10 active torsions:
REMARK  status: ('A' for Active; 'I' for Inactive)
REMARK    1  A    between atoms: C_1  and  C_2
REMARK    2  A    between atoms: C_2  and  O_3
REMARK    3  A    between atoms: C_2  and  C_4
REMARK    4  A    between atoms: C_2  and  C_29
REMARK    5  A    between atoms: C_7  and  N_8
REMARK    6  A    between atoms: N_11  and  C_12
REMARK    7  A    between atoms: C_15  and  C_16
REMARK    8  A    between atoms: C_15  and  O_17
REMARK    9  A    between atoms: C_19  and  C_20
REMARK   10  A    between atoms: C_23  and  C_24
REMARK                            x       y       z     vdW  Elec       q    Type
REMARK                         _______ _______ _______ _____ _____    ______ ____
ROOT
ATOM      1  N   UNL     1       1.465  10.540  19.690  0.00  0.00    +0.000 N 
ATOM      2  C   UNL     1       0.345  11.197  19.314  0.00  0.00    +0.000 A 
ATOM      3  N   UNL     1      -0.889  10.690  19.446  0.00  0.00    +0.000 NA
ATOM      4  N   UNL     1      -1.701  11.595  18.912  0.00  0.00    +0.000 N 
ATOM      5  C   UNL     1      -1.049  12.695  18.472  0.00  0.00    +0.000 A 
ATOM      6  C   UNL     1       0.299  12.488  18.707  0.00  0.00    +0.000 A 
ATOM      7  H   UNL     1       2.347  11.045  19.751  0.00  0.00    +0.000 HD
ENDROOT
BRANCH   4   8
ATOM      8  C   UNL     1      -3.137  11.313  18.822  0.00  0.00    +0.000 C 
ATOM      9  C   UNL     1      -3.915  12.147  19.861  0.00  0.00    +0.000 C 
ATOM     10  C   UNL     1      -5.435  11.987  19.736  0.00  0.00    +0.000 C 
ATOM     11  C   UNL     1      -5.920  12.277  18.312  0.00  0.00    +0.000 C 
ATOM     12  C   UNL     1      -7.427  12.084  18.159  0.00  0.00    +0.000 C 
ATOM     13  C   UNL     1      -5.194  11.365  17.324  0.00  0.00    +0.000 C 
ATOM     14  C   UNL     1      -3.668  11.535  17.391  0.00  0.00    +0.000 C 
BRANCH  11  15
ATOM     15  O   UNL     1      -5.604  13.625  17.977  0.00  0.00    +0.000 OA
ATOM     16  H   UNL     1      -4.892  13.935  18.564  0.00  0.00    +0.000 HD
ENDBRANCH  11  15
BRANCH  14  17
ATOM     17  C   UNL     1      -3.063  10.574  16.460  0.00  0.00    +0.000 C 
ATOM     18  N   UNL     1      -2.574   9.764  15.780  0.00  0.00    +0.000 NA
ENDBRANCH  14  17
ENDBRANCH   4   8
BRANCH   1  22
ATOM     19  C   UNL     1       1.926   6.313  19.409  0.00  0.00    +0.000 A 
ATOM     20  C   UNL     1       2.209   7.142  18.317  0.00  0.00    +0.000 A 
ATOM     21  C   UNL     1       2.075   8.528  18.421  0.00  0.00    +0.000 A 
ATOM     22  C   UNL     1       1.652   9.138  19.611  0.00  0.00    +0.000 A 
ATOM     23  C   UNL     1       1.359   8.317  20.699  0.00  0.00    +0.000 A 
ATOM     24  C   UNL     1       1.486   6.929  20.599  0.00  0.00    +0.000 A 
BRANCH  19  26
ATOM     25  C   UNL     1       1.163   4.020  20.282  0.00  0.00    +0.000 C 
ATOM     26  C   UNL     1       2.131   4.799  19.381  0.00  0.00    +0.000 C 
BRANCH  26  27
ATOM     27  C   UNL     1       2.001   4.247  17.917  0.00  0.00    +0.000 C 
ATOM     28  F   UNL     1       0.930   4.751  17.261  0.00  0.00    +0.000 F 
ATOM     29  F   UNL     1       3.085   4.515  17.150  0.00  0.00    +0.000 F 
ATOM     30  F   UNL     1       1.868   2.894  17.925  0.00  0.00    +0.000 F 
ENDBRANCH  26  27
BRANCH  26  31
ATOM     31  O   UNL     1       3.439   4.546  19.957  0.00  0.00    +0.000 OA
ATOM     32  H   UNL     1       4.094   4.581  19.237  0.00  0.00    +0.000 HD
ENDBRANCH  26  31
ENDBRANCH  19  26
ENDBRANCH   1  22
BRANCH   6  33
ATOM     33  C   UNL     1       1.368  13.390  18.325  0.00  0.00    +0.000 C 
ATOM     34  N   UNL     1       2.287  12.879  17.448  0.00  0.00    +0.000 N 
ATOM     35  O   UNL     1       1.467  14.547  18.725  0.00  0.00    +0.000 OA
ATOM     36  H   UNL     1       2.084  12.061  16.890  0.00  0.00    +0.000 HD
ATOM     37  H   UNL     1       2.977  13.520  17.089  0.00  0.00    +0.000 HD
ENDBRANCH   6  33
TORSDOF 8
ENDMDL
MODEL 7
REMARK VINA RESULT:      -8.1      4.650      9.726
REMARK  Name = 
REMARK  10 active torsions:
REMARK  status: ('A' for Active; 'I' for Inactive)
REMARK    1  A    between atoms: C_1  and  C_2
REMARK    2  A    between atoms: C_2  and  O_3
REMARK    3  A    between atoms: C_2  and  C_4
REMARK    4  A    between atoms: C_2  and  C_29
REMARK    5  A    between atoms: C_7  and  N_8
REMARK    6  A    between atoms: N_11  and  C_12
REMARK    7  A    between atoms: C_15  and  C_16
REMARK    8  A    between atoms: C_15  and  O_17
REMARK    9  A    between atoms: C_19  and  C_20
REMARK   10  A    between atoms: C_23  and  C_24
REMARK                            x       y       z     vdW  Elec       q    Type
REMARK                         _______ _______ _______ _____ _____    ______ ____
ROOT
ATOM      1  N   UNL     1       1.419  10.508  19.687  0.00  0.00    +0.000 N 
ATOM      2  C   UNL     1       0.304  11.172  19.309  0.00  0.00    +0.000 A 
ATOM      3  N   UNL     1      -0.935  10.677  19.449  0.00  0.00    +0.000 NA
ATOM      4  N   UNL     1      -1.740  11.584  18.910  0.00  0.00    +0.000 N 
ATOM      5  C   UNL     1      -1.079  12.675  18.457  0.00  0.00    +0.000 A 
ATOM      6  C   UNL     1       0.268  12.457  18.690  0.00  0.00    +0.000 A 
ATOM      7  H   UNL     1       2.306  11.007  19.742  0.00  0.00    +0.000 HD
ENDROOT
BRANCH   4   8
ATOM      8  C   UNL     1      -3.179  11.315  18.826  0.00  0.00    +0.000 C 
ATOM      9  C   UNL     1      -3.946  12.160  19.865  0.00  0.00    +0.000 C 
ATOM     10  C   UNL     1      -5.467  12.013  19.746  0.00  0.00    +0.000 C 
ATOM     11  C   UNL     1      -5.956  12.301  18.322  0.00  0.00    +0.000 C 
ATOM     12  C   UNL     1      -7.464  12.120  18.177  0.00  0.00    +0.000 C 
ATOM     13  C   UNL     1      -5.241  11.378  17.336  0.00  0.00    +0.000 C 
ATOM     14  C   UNL     1      -3.714  11.534  17.396  0.00  0.00    +0.000 C 
BRANCH  11  15
ATOM     15  O   UNL     1      -5.629  13.644  17.980  0.00  0.00    +0.000 OA
ATOM     16  H   UNL     1      -5.679  13.742  17.013  0.00  0.00    +0.000 HD
ENDBRANCH  11  15
BRANCH  14  17
ATOM     17  C   UNL     1      -3.121  10.564  16.467  0.00  0.00    +0.000 C 
ATOM     18  N   UNL     1      -2.629   9.753  15.790  0.00  0.00    +0.000 NA
ENDBRANCH  14  17
ENDBRANCH   4   8
BRANCH   1  22
ATOM     19  C   UNL     1       2.040   6.296  19.535  0.00  0.00    +0.000 A 
ATOM     20  C   UNL     1       1.485   6.900  20.669  0.00  0.00    +0.000 A 
ATOM     21  C   UNL     1       1.265   8.279  20.705  0.00  0.00    +0.000 A 
ATOM     22  C   UNL     1       1.593   9.104  19.620  0.00  0.00    +0.000 A 
ATOM     23  C   UNL     1       2.157   8.509  18.492  0.00  0.00    +0.000 A 
ATOM     24  C   UNL     1       2.383   7.130  18.452  0.00  0.00    +0.000 A 
BRANCH  19  26
ATOM     25  C   UNL     1       1.496   3.967  20.478  0.00  0.00    +0.000 C 
ATOM     26  C   UNL     1       2.229   4.785  19.405  0.00  0.00    +0.000 C 
BRANCH  26  27
ATOM     27  C   UNL     1       1.758   4.285  17.993  0.00  0.00    +0.000 C 
ATOM     28  F   UNL     1       1.099   3.105  18.049  0.00  0.00    +0.000 F 
ATOM     29  F   UNL     1       0.932   5.159  17.368  0.00  0.00    +0.000 F 
ATOM     30  F   UNL     1       2.823   4.112  17.166  0.00  0.00    +0.000 F 
ENDBRANCH  26  27
BRANCH  26  31
ATOM     31  O   UNL     1       3.635   4.519  19.649  0.00  0.00    +0.000 OA
ATOM     32  H   UNL     1       4.031   4.215  18.813  0.00  0.00    +0.000 HD
ENDBRANCH  26  31
ENDBRANCH  19  26
ENDBRANCH   1  22
BRANCH   6  33
ATOM     33  C   UNL     1       1.344  13.347  18.297  0.00  0.00    +0.000 C 
ATOM     34  N   UNL     1       2.289  12.801  17.472  0.00  0.00    +0.000 N 
ATOM     35  O   UNL     1       1.426  14.521  18.644  0.00  0.00    +0.000 OA
ATOM     36  H   UNL     1       2.106  11.955  16.947  0.00  0.00    +0.000 HD
ATOM     37  H   UNL     1       2.987  13.427  17.102  0.00  0.00    +0.000 HD
ENDBRANCH   6  33
TORSDOF 8
ENDMDL
MODEL 8
REMARK VINA RESULT:      -8.0      4.818      9.798
REMARK  Name = 
REMARK  10 active torsions:
REMARK  status: ('A' for Active; 'I' for Inactive)
REMARK    1  A    between atoms: C_1  and  C_2
REMARK    2  A    between atoms: C_2  and  O_3
REMARK    3  A    between atoms: C_2  and  C_4
REMARK    4  A    between atoms: C_2  and  C_29
REMARK    5  A    between atoms: C_7  and  N_8
REMARK    6  A    between atoms: N_11  and  C_12
REMARK    7  A    between atoms: C_15  and  C_16
REMARK    8  A    between atoms: C_15  and  O_17
REMARK    9  A    between atoms: C_19  and  C_20
REMARK   10  A    between atoms: C_23  and  C_24
REMARK                            x       y       z     vdW  Elec       q    Type
REMARK                         _______ _______ _______ _____ _____    ______ ____
ROOT
ATOM      1  N   UNL     1       1.448  10.567  19.598  0.00  0.00    +0.000 N 
ATOM      2  C   UNL     1       0.319  11.233  19.263  0.00  0.00    +0.000 A 
ATOM      3  N   UNL     1      -0.912  10.719  19.404  0.00  0.00    +0.000 NA
ATOM      4  N   UNL     1      -1.736  11.637  18.914  0.00  0.00    +0.000 N 
ATOM      5  C   UNL     1      -1.094  12.752  18.493  0.00  0.00    +0.000 A 
ATOM      6  C   UNL     1       0.259  12.540  18.696  0.00  0.00    +0.000 A 
ATOM      7  H   UNL     1       2.329  11.073  19.657  0.00  0.00    +0.000 HD
ENDROOT
BRANCH   4   8
ATOM      8  C   UNL     1      -3.173  11.355  18.843  0.00  0.00    +0.000 C 
ATOM      9  C   UNL     1      -3.940  12.207  19.875  0.00  0.00    +0.000 C 
ATOM     10  C   UNL     1      -5.460  12.046  19.769  0.00  0.00    +0.000 C 
ATOM     11  C   UNL     1      -5.960  12.312  18.344  0.00  0.00    +0.000 C 
ATOM     12  C   UNL     1      -7.468  12.116  18.211  0.00  0.00    +0.000 C 
ATOM     13  C   UNL     1      -5.244  11.382  17.365  0.00  0.00    +0.000 C 
ATOM     14  C   UNL     1      -3.718  11.551  17.413  0.00  0.00    +0.000 C 
BRANCH  11  15
ATOM     15  O   UNL     1      -5.646  13.653  17.982  0.00  0.00    +0.000 OA
ATOM     16  H   UNL     1      -4.694  13.800  18.120  0.00  0.00    +0.000 HD
ENDBRANCH  11  15
BRANCH  14  17
ATOM     17  C   UNL     1      -3.123  10.574  16.493  0.00  0.00    +0.000 C 
ATOM     18  N   UNL     1      -2.587   9.804  15.803  0.00  0.00    +0.000 NA
ENDBRANCH  14  17
ENDBRANCH   4   8
BRANCH   1  22
ATOM     19  C   UNL     1       2.116   6.373  19.257  0.00  0.00    +0.000 A 
ATOM     20  C   UNL     1       1.743   6.945  20.479  0.00  0.00    +0.000 A 
ATOM     21  C   UNL     1       1.505   8.317  20.579  0.00  0.00    +0.000 A 
ATOM     22  C   UNL     1       1.635   9.168  19.473  0.00  0.00    +0.000 A 
ATOM     23  C   UNL     1       2.018   8.606  18.256  0.00  0.00    +0.000 A 
ATOM     24  C   UNL     1       2.261   7.235  18.150  0.00  0.00    +0.000 A 
BRANCH  19  26
ATOM     25  C   UNL     1       3.778   4.439  18.938  0.00  0.00    +0.000 C 
ATOM     26  C   UNL     1       2.310   4.869  19.065  0.00  0.00    +0.000 C 
BRANCH  26  27
ATOM     27  C   UNL     1       1.660   4.069  20.249  0.00  0.00    +0.000 C 
ATOM     28  F   UNL     1       2.291   4.272  21.428  0.00  0.00    +0.000 F 
ATOM     29  F   UNL     1       0.357   4.384  20.450  0.00  0.00    +0.000 F 
ATOM     30  F   UNL     1       1.692   2.734  20.000  0.00  0.00    +0.000 F 
ENDBRANCH  26  27
BRANCH  26  31
ATOM     31  O   UNL     1       1.725   4.535  17.780  0.00  0.00    +0.000 OA
ATOM     32  H   UNL     1       0.758   4.618  17.861  0.00  0.00    +0.000 HD
ENDBRANCH  26  31
ENDBRANCH  19  26
ENDBRANCH   1  22
BRANCH   6  33
ATOM     33  C   UNL     1       1.319  13.456  18.320  0.00  0.00    +0.000 C 
ATOM     34  N   UNL     1       2.271  12.945  17.480  0.00  0.00    +0.000 N 
ATOM     35  O   UNL     1       1.382  14.624  18.694  0.00  0.00    +0.000 OA
ATOM     36  H   UNL     1       2.100  12.109  16.937  0.00  0.00    +0.000 HD
ATOM     37  H   UNL     1       2.957  13.592  17.124  0.00  0.00    +0.000 HD
ENDBRANCH   6  33
TORSDOF 8
ENDMDL
MODEL 9
REMARK VINA RESULT:      -8.0      4.640      9.709
REMARK  Name = 
REMARK  10 active torsions:
REMARK  status: ('A' for Active; 'I' for Inactive)
REMARK    1  A    between atoms: C_1  and  C_2
REMARK    2  A    between atoms: C_2  and  O_3
REMARK    3  A    between atoms: C_2  and  C_4
REMARK    4  A    between atoms: C_2  and  C_29
REMARK    5  A    between atoms: C_7  and  N_8
REMARK    6  A    between atoms: N_11  and  C_12
REMARK    7  A    between atoms: C_15  and  C_16
REMARK    8  A    between atoms: C_15  and  O_17
REMARK    9  A    between atoms: C_19  and  C_20
REMARK   10  A    between atoms: C_23  and  C_24
REMARK                            x       y       z     vdW  Elec       q    Type
REMARK                         _______ _______ _______ _____ _____    ______ ____
ROOT
ATOM      1  N   UNL     1       1.486  10.631  19.605  0.00  0.00    +0.000 N 
ATOM      2  C   UNL     1       0.351  11.284  19.268  0.00  0.00    +0.000 A 
ATOM      3  N   UNL     1      -0.874  10.754  19.397  0.00  0.00    +0.000 NA
ATOM      4  N   UNL     1      -1.706  11.664  18.907  0.00  0.00    +0.000 N 
ATOM      5  C   UNL     1      -1.077  12.790  18.498  0.00  0.00    +0.000 A 
ATOM      6  C   UNL     1       0.278  12.595  18.708  0.00  0.00    +0.000 A 
ATOM      7  H   UNL     1       2.361  11.148  19.673  0.00  0.00    +0.000 HD
ENDROOT
BRANCH   4   8
ATOM      8  C   UNL     1      -3.139  11.364  18.826  0.00  0.00    +0.000 C 
ATOM      9  C   UNL     1      -3.922  12.192  19.866  0.00  0.00    +0.000 C 
ATOM     10  C   UNL     1      -5.440  12.012  19.750  0.00  0.00    +0.000 C 
ATOM     11  C   UNL     1      -5.937  12.290  18.326  0.00  0.00    +0.000 C 
ATOM     12  C   UNL     1      -7.442  12.077  18.183  0.00  0.00    +0.000 C 
ATOM     13  C   UNL     1      -5.204  11.383  17.339  0.00  0.00    +0.000 C 
ATOM     14  C   UNL     1      -3.680  11.572  17.397  0.00  0.00    +0.000 C 
BRANCH  11  15
ATOM     15  O   UNL     1      -5.639  13.640  17.984  0.00  0.00    +0.000 OA
ATOM     16  H   UNL     1      -5.918  14.218  18.716  0.00  0.00    +0.000 HD
ENDBRANCH  11  15
BRANCH  14  17
ATOM     17  C   UNL     1      -3.068  10.615  16.466  0.00  0.00    +0.000 C 
ATOM     18  N   UNL     1      -2.612   9.799  15.770  0.00  0.00    +0.000 NA
ENDBRANCH  14  17
ENDBRANCH   4   8
BRANCH   1  22
ATOM     19  C   UNL     1       2.005   6.424  19.171  0.00  0.00    +0.000 A 
ATOM     20  C   UNL     1       2.211   7.290  18.090  0.00  0.00    +0.000 A 
ATOM     21  C   UNL     1       2.059   8.669  18.244  0.00  0.00    +0.000 A 
ATOM     22  C   UNL     1       1.693   9.236  19.473  0.00  0.00    +0.000 A 
ATOM     23  C   UNL     1       1.476   8.378  20.551  0.00  0.00    +0.000 A 
ATOM     24  C   UNL     1       1.622   6.997  20.402  0.00  0.00    +0.000 A 
BRANCH  19  26
ATOM     25  C   UNL     1       1.688   4.271  17.804  0.00  0.00    +0.000 C 
ATOM     26  C   UNL     1       2.234   4.916  19.086  0.00  0.00    +0.000 C 
BRANCH  26  27
ATOM     27  C   UNL     1       3.764   4.578  19.200  0.00  0.00    +0.000 C 
ATOM     28  F   UNL     1       4.484   5.590  19.736  0.00  0.00    +0.000 F 
ATOM     29  F   UNL     1       4.010   3.484  19.959  0.00  0.00    +0.000 F 
ATOM     30  F   UNL     1       4.288   4.316  17.974  0.00  0.00    +0.000 F 
ENDBRANCH  26  27
BRANCH  26  31
ATOM     31  O   UNL     1       1.451   4.316  20.151  0.00  0.00    +0.000 OA
ATOM     32  H   UNL     1       1.087   5.036  20.697  0.00  0.00    +0.000 HD
ENDBRANCH  26  31
ENDBRANCH  19  26
ENDBRANCH   1  22
BRANCH   6  33
ATOM     33  C   UNL     1       1.328  13.526  18.345  0.00  0.00    +0.000 C 
ATOM     34  N   UNL     1       2.280  13.039  17.490  0.00  0.00    +0.000 N 
ATOM     35  O   UNL     1       1.384  14.687  18.740  0.00  0.00    +0.000 OA
ATOM     36  H   UNL     1       2.113  12.212  16.932  0.00  0.00    +0.000 HD
ATOM     37  H   UNL     1       2.959  13.698  17.142  0.00  0.00    +0.000 HD
ENDBRANCH   6  33
TORSDOF 8
ENDMDL
