MODEL 1
REMARK VINA RESULT:      -7.7      0.000      0.000
REMARK  Name = 
REMARK  2 active torsions:
REMARK  status: ('A' for Active; 'I' for Inactive)
REMARK    1  A    between atoms: C_2  and  C_17
REMARK    2  A    between atoms: N_3  and  C_4
REMARK                            x       y       z     vdW  Elec       q    Type
REMARK                         _______ _______ _______ _____ _____    ______ ____
ROOT
ATOM      1  C   UNL     1       1.343   9.543  19.652  0.00  0.00    +0.000 A 
ATOM      2  C   UNL     1       1.644   9.532  18.296  0.00  0.00    +0.000 A 
ATOM      3  C   UNL     1       2.144   8.371  17.744  0.00  0.00    +0.000 A 
ATOM      4  N   UNL     1       2.364   7.245  18.446  0.00  0.00    +0.000 NA
ATOM      5  C   UNL     1       2.073   7.245  19.763  0.00  0.00    +0.000 A 
ATOM      6  N   UNL     1       2.268   6.075  20.524  0.00  0.00    +0.000 N 
ATOM      7  C   UNL     1       2.999   4.959  20.086  0.00  0.00    +0.000 A 
ATOM      8  C   UNL     1       4.247   5.112  19.485  0.00  0.00    +0.000 A 
ATOM      9  C   UNL     1       4.951   3.992  19.058  0.00  0.00    +0.000 A 
ATOM     10  C   UNL     1       4.392   2.742  19.254  0.00  0.00    +0.000 A 
ATOM     11  C   UNL     1       3.159   2.666  19.880  0.00  0.00    +0.000 A 
ATOM     12  N   UNL     1       2.462   3.740  20.317  0.00  0.00    +0.000 NA
ATOM     13  C   UNL     1       1.573   8.382  20.398  0.00  0.00    +0.000 A 
ATOM     14  H   UNL     1       1.389   5.727  20.888  0.00  0.00    +0.000 HD
ENDROOT
BRANCH   1  17
ATOM     15  O   UNL     1      -1.374  10.673  19.532  0.00  0.00    +0.000 OA
ATOM     16  C   UNL     1      -0.478  11.159  20.211  0.00  0.00    +0.000 C 
ATOM     17  N   UNL     1       0.816  10.673  20.324  0.00  0.00    +0.000 N 
ATOM     18  H   UNL     1       1.456  11.171  20.931  0.00  0.00    +0.000 HD
BRANCH  16  19
ATOM     19  C   UNL     1      -0.799  12.377  20.998  0.00  0.00    +0.000 A 
ATOM     20  C   UNL     1      -0.667  13.644  20.400  0.00  0.00    +0.000 A 
ATOM     21 CL   UNL     1      -0.385  13.873  18.707  0.00  0.00    +0.000 Cl
ATOM     22  C   UNL     1      -0.815  14.810  21.164  0.00  0.00    +0.000 A 
ATOM     23  C   UNL     1      -1.115  14.729  22.520  0.00  0.00    +0.000 A 
ATOM     24  C   UNL     1      -1.281  13.481  23.115  0.00  0.00    +0.000 A 
ATOM     25  C   UNL     1      -1.118  12.308  22.364  0.00  0.00    +0.000 A 
ATOM     26 CL   UNL     1      -1.307  10.818  23.225  0.00  0.00    +0.000 Cl
ENDBRANCH  16  19
ENDBRANCH   1  17
TORSDOF 2
ENDMDL
MODEL 2
REMARK VINA RESULT:      -7.7      4.004      9.138
REMARK  Name = 
REMARK  2 active torsions:
REMARK  status: ('A' for Active; 'I' for Inactive)
REMARK    1  A    between atoms: C_2  and  C_17
REMARK    2  A    between atoms: N_3  and  C_4
REMARK                            x       y       z     vdW  Elec       q    Type
REMARK                         _______ _______ _______ _____ _____    ______ ____
ROOT
ATOM      1  C   UNL     1       2.573   7.400  18.796  0.00  0.00    +0.000 A 
ATOM      2  C   UNL     1       2.215   6.949  20.060  0.00  0.00    +0.000 A 
ATOM      3  C   UNL     1       1.378   7.734  20.825  0.00  0.00    +0.000 A 
ATOM      4  N   UNL     1       0.889   8.919  20.419  0.00  0.00    +0.000 NA
ATOM      5  C   UNL     1       1.228   9.365  19.193  0.00  0.00    +0.000 A 
ATOM      6  N   UNL     1       0.714  10.591  18.725  0.00  0.00    +0.000 N 
ATOM      7  C   UNL     1       0.073  11.541  19.537  0.00  0.00    +0.000 A 
ATOM      8  C   UNL     1       0.617  11.916  20.765  0.00  0.00    +0.000 A 
ATOM      9  C   UNL     1      -0.036  12.858  21.551  0.00  0.00    +0.000 A 
ATOM     10  C   UNL     1      -1.215  13.411  21.084  0.00  0.00    +0.000 A 
ATOM     11  C   UNL     1      -1.682  13.008  19.843  0.00  0.00    +0.000 A 
ATOM     12  N   UNL     1      -1.056  12.105  19.054  0.00  0.00    +0.000 NA
ATOM     13  C   UNL     1       2.078   8.634  18.362  0.00  0.00    +0.000 A 
ATOM     14  H   UNL     1       0.124  10.453  17.913  0.00  0.00    +0.000 HD
ENDROOT
BRANCH   1  17
ATOM     15  O   UNL     1       4.842   5.637  19.440  0.00  0.00    +0.000 OA
ATOM     16  C   UNL     1       4.480   5.867  18.293  0.00  0.00    +0.000 C 
ATOM     17  N   UNL     1       3.416   6.674  17.920  0.00  0.00    +0.000 N 
ATOM     18  H   UNL     1       3.221   6.770  16.930  0.00  0.00    +0.000 HD
BRANCH  16  19
ATOM     19  C   UNL     1       5.239   5.220  17.193  0.00  0.00    +0.000 A 
ATOM     20  C   UNL     1       6.398   5.840  16.691  0.00  0.00    +0.000 A 
ATOM     21 CL   UNL     1       7.149   7.206  17.444  0.00  0.00    +0.000 Cl
ATOM     22  C   UNL     1       7.042   5.330  15.555  0.00  0.00    +0.000 A 
ATOM     23  C   UNL     1       6.556   4.191  14.922  0.00  0.00    +0.000 A 
ATOM     24  C   UNL     1       5.428   3.550  15.430  0.00  0.00    +0.000 A 
ATOM     25  C   UNL     1       4.766   4.061  16.555  0.00  0.00    +0.000 A 
ATOM     26 CL   UNL     1       3.352   3.202  17.065  0.00  0.00    +0.000 Cl
ENDBRANCH  16  19
ENDBRANCH   1  17
TORSDOF 2
ENDMDL
MODEL 3
REMARK VINA RESULT:      -7.7      3.891      9.188
REMARK  Name = 
REMARK  2 active torsions:
REMARK  status: ('A' for Active; 'I' for Inactive)
REMARK    1  A    between atoms: C_2  and  C_17
REMARK    2  A    between atoms: N_3  and  C_4
REMARK                            x       y       z     vdW  Elec       q    Type
REMARK                         _______ _______ _______ _____ _____    ______ ____
ROOT
ATOM      1  C   UNL     1       2.428   7.591  18.874  0.00  0.00    +0.000 A 
ATOM      2  C   UNL     1       2.106   7.112  20.137  0.00  0.00    +0.000 A 
ATOM      3  C   UNL     1       1.274   7.871  20.935  0.00  0.00    +0.000 A 
ATOM      4  N   UNL     1       0.758   9.056  20.560  0.00  0.00    +0.000 NA
ATOM      5  C   UNL     1       1.063   9.527  19.334  0.00  0.00    +0.000 A 
ATOM      6  N   UNL     1       0.520  10.754  18.899  0.00  0.00    +0.000 N 
ATOM      7  C   UNL     1      -0.116  11.680  19.742  0.00  0.00    +0.000 A 
ATOM      8  C   UNL     1       0.449  12.042  20.964  0.00  0.00    +0.000 A 
ATOM      9  C   UNL     1      -0.201  12.960  21.780  0.00  0.00    +0.000 A 
ATOM     10  C   UNL     1      -1.398  13.502  21.349  0.00  0.00    +0.000 A 
ATOM     11  C   UNL     1      -1.886  13.113  20.112  0.00  0.00    +0.000 A 
ATOM     12  N   UNL     1      -1.265  12.234  19.294  0.00  0.00    +0.000 NA
ATOM     13  C   UNL     1       1.905   8.824  18.472  0.00  0.00    +0.000 A 
ATOM     14  H   UNL     1      -0.085  10.620  18.099  0.00  0.00    +0.000 HD
ENDROOT
BRANCH   1  17
ATOM     15  O   UNL     1       4.592   5.675  19.440  0.00  0.00    +0.000 OA
ATOM     16  C   UNL     1       4.276   6.009  18.305  0.00  0.00    +0.000 C 
ATOM     17  N   UNL     1       3.263   6.893  17.967  0.00  0.00    +0.000 N 
ATOM     18  H   UNL     1       3.103   7.074  16.983  0.00  0.00    +0.000 HD
BRANCH  16  19
ATOM     19  C   UNL     1       5.036   5.411  17.178  0.00  0.00    +0.000 A 
ATOM     20  C   UNL     1       4.602   4.195  16.616  0.00  0.00    +0.000 A 
ATOM     21 CL   UNL     1       3.080   3.462  16.993  0.00  0.00    +0.000 Cl
ATOM     22  C   UNL     1       5.385   3.535  15.659  0.00  0.00    +0.000 A 
ATOM     23  C   UNL     1       6.592   4.084  15.237  0.00  0.00    +0.000 A 
ATOM     24  C   UNL     1       7.015   5.302  15.762  0.00  0.00    +0.000 A 
ATOM     25  C   UNL     1       6.248   5.963  16.732  0.00  0.00    +0.000 A 
ATOM     26 CL   UNL     1       6.899   7.447  17.340  0.00  0.00    +0.000 Cl
ENDBRANCH  16  19
ENDBRANCH   1  17
TORSDOF 2
ENDMDL
MODEL 4
REMARK VINA RESULT:      -7.6      0.216      1.888
REMARK  Name = 
REMARK  2 active torsions:
REMARK  status: ('A' for Active; 'I' for Inactive)
REMARK    1  A    between atoms: C_2  and  C_17
REMARK    2  A    between atoms: N_3  and  C_4
REMARK                            x       y       z     vdW  Elec       q    Type
REMARK                         _______ _______ _______ _____ _____    ______ ____
ROOT
ATOM      1  C   UNL     1       1.342   9.560  19.622  0.00  0.00    +0.000 A 
ATOM      2  C   UNL     1       1.662   9.551  18.270  0.00  0.00    +0.000 A 
ATOM      3  C   UNL     1       2.178   8.394  17.726  0.00  0.00    +0.000 A 
ATOM      4  N   UNL     1       2.395   7.269  18.431  0.00  0.00    +0.000 NA
ATOM      5  C   UNL     1       2.084   7.267  19.743  0.00  0.00    +0.000 A 
ATOM      6  N   UNL     1       2.275   6.098  20.508  0.00  0.00    +0.000 N 
ATOM      7  C   UNL     1       3.020   4.987  20.080  0.00  0.00    +0.000 A 
ATOM      8  C   UNL     1       4.276   5.148  19.498  0.00  0.00    +0.000 A 
ATOM      9  C   UNL     1       4.994   4.032  19.082  0.00  0.00    +0.000 A 
ATOM     10  C   UNL     1       4.439   2.779  19.269  0.00  0.00    +0.000 A 
ATOM     11  C   UNL     1       3.198   2.695  19.877  0.00  0.00    +0.000 A 
ATOM     12  N   UNL     1       2.488   3.764  20.303  0.00  0.00    +0.000 NA
ATOM     13  C   UNL     1       1.568   8.401  20.371  0.00  0.00    +0.000 A 
ATOM     14  H   UNL     1       1.394   5.744  20.858  0.00  0.00    +0.000 HD
ENDROOT
BRANCH   1  17
ATOM     15  O   UNL     1      -1.394  10.644  19.500  0.00  0.00    +0.000 OA
ATOM     16  C   UNL     1      -0.505  11.150  20.172  0.00  0.00    +0.000 C 
ATOM     17  N   UNL     1       0.797  10.687  20.285  0.00  0.00    +0.000 N 
ATOM     18  H   UNL     1       1.430  11.201  20.886  0.00  0.00    +0.000 HD
BRANCH  16  19
ATOM     19  C   UNL     1      -0.845  12.369  20.950  0.00  0.00    +0.000 A 
ATOM     20  C   UNL     1      -1.261  12.245  22.289  0.00  0.00    +0.000 A 
ATOM     21 CL   UNL     1      -1.171  10.763  23.180  0.00  0.00    +0.000 Cl
ATOM     22  C   UNL     1      -1.732  13.361  22.993  0.00  0.00    +0.000 A 
ATOM     23  C   UNL     1      -1.774  14.611  22.384  0.00  0.00    +0.000 A 
ATOM     24  C   UNL     1      -1.333  14.752  21.071  0.00  0.00    +0.000 A 
ATOM     25  C   UNL     1      -0.876  13.639  20.351  0.00  0.00    +0.000 A 
ATOM     26 CL   UNL     1      -0.396  13.933  18.714  0.00  0.00    +0.000 Cl
ENDBRANCH  16  19
ENDBRANCH   1  17
TORSDOF 2
ENDMDL
MODEL 5
REMARK VINA RESULT:      -7.4      1.118      2.175
REMARK  Name = 
REMARK  2 active torsions:
REMARK  status: ('A' for Active; 'I' for Inactive)
REMARK    1  A    between atoms: C_2  and  C_17
REMARK    2  A    between atoms: N_3  and  C_4
REMARK                            x       y       z     vdW  Elec       q    Type
REMARK                         _______ _______ _______ _____ _____    ______ ____
ROOT
ATOM      1  C   UNL     1       0.907   9.610  19.501  0.00  0.00    +0.000 A 
ATOM      2  C   UNL     1       1.399   9.808  18.217  0.00  0.00    +0.000 A 
ATOM      3  C   UNL     1       2.176   8.818  17.651  0.00  0.00    +0.000 A 
ATOM      4  N   UNL     1       2.490   7.669  18.275  0.00  0.00    +0.000 NA
ATOM      5  C   UNL     1       2.015   7.467  19.521  0.00  0.00    +0.000 A 
ATOM      6  N   UNL     1       2.305   6.263  20.195  0.00  0.00    +0.000 N 
ATOM      7  C   UNL     1       3.281   5.341  19.784  0.00  0.00    +0.000 A 
ATOM      8  C   UNL     1       4.556   5.767  19.412  0.00  0.00    +0.000 A 
ATOM      9  C   UNL     1       5.504   4.835  19.007  0.00  0.00    +0.000 A 
ATOM     10  C   UNL     1       5.157   3.496  18.994  0.00  0.00    +0.000 A 
ATOM     11  C   UNL     1       3.880   3.145  19.400  0.00  0.00    +0.000 A 
ATOM     12  N   UNL     1       2.945   4.032  19.812  0.00  0.00    +0.000 NA
ATOM     13  C   UNL     1       1.231   8.423  20.166  0.00  0.00    +0.000 A 
ATOM     14  H   UNL     1       1.460   5.735  20.377  0.00  0.00    +0.000 HD
ENDROOT
BRANCH   1  17
ATOM     15  O   UNL     1       1.707  11.861  21.224  0.00  0.00    +0.000 OA
ATOM     16  C   UNL     1       0.538  11.586  20.984  0.00  0.00    +0.000 C 
ATOM     17  N   UNL     1       0.092  10.552  20.176  0.00  0.00    +0.000 N 
ATOM     18  H   UNL     1      -0.908  10.443  20.057  0.00  0.00    +0.000 HD
BRANCH  16  19
ATOM     19  C   UNL     1      -0.508  12.438  21.607  0.00  0.00    +0.000 A 
ATOM     20  C   UNL     1      -1.325  11.903  22.621  0.00  0.00    +0.000 A 
ATOM     21 CL   UNL     1      -1.029  10.373  23.374  0.00  0.00    +0.000 Cl
ATOM     22  C   UNL     1      -2.414  12.634  23.115  0.00  0.00    +0.000 A 
ATOM     23  C   UNL     1      -2.689  13.906  22.623  0.00  0.00    +0.000 A 
ATOM     24  C   UNL     1      -1.868  14.458  21.644  0.00  0.00    +0.000 A 
ATOM     25  C   UNL     1      -0.785  13.729  21.130  0.00  0.00    +0.000 A 
ATOM     26 CL   UNL     1       0.135  14.504  19.886  0.00  0.00    +0.000 Cl
ENDBRANCH  16  19
ENDBRANCH   1  17
TORSDOF 2
ENDMDL
MODEL 6
REMARK VINA RESULT:      -7.4      3.305      8.797
REMARK  Name = 
REMARK  2 active torsions:
REMARK  status: ('A' for Active; 'I' for Inactive)
REMARK    1  A    between atoms: C_2  and  C_17
REMARK    2  A    between atoms: N_3  and  C_4
REMARK                            x       y       z     vdW  Elec       q    Type
REMARK                         _______ _______ _______ _____ _____    ______ ____
ROOT
ATOM      1  C   UNL     1       2.187   7.721  18.904  0.00  0.00    +0.000 A 
ATOM      2  C   UNL     1       2.423   8.581  17.839  0.00  0.00    +0.000 A 
ATOM      3  C   UNL     1       1.959   9.877  17.926  0.00  0.00    +0.000 A 
ATOM      4  N   UNL     1       1.283  10.358  18.985  0.00  0.00    +0.000 NA
ATOM      5  C   UNL     1       1.051   9.531  20.025  0.00  0.00    +0.000 A 
ATOM      6  N   UNL     1       0.368  10.008  21.162  0.00  0.00    +0.000 N 
ATOM      7  C   UNL     1      -0.341  11.220  21.207  0.00  0.00    +0.000 A 
ATOM      8  C   UNL     1      -1.218  11.575  20.184  0.00  0.00    +0.000 A 
ATOM      9  C   UNL     1      -1.907  12.780  20.252  0.00  0.00    +0.000 A 
ATOM     10  C   UNL     1      -1.709  13.598  21.350  0.00  0.00    +0.000 A 
ATOM     11  C   UNL     1      -0.840  13.169  22.339  0.00  0.00    +0.000 A 
ATOM     12  N   UNL     1      -0.170  11.994  22.303  0.00  0.00    +0.000 NA
ATOM     13  C   UNL     1       1.480   8.204  20.009  0.00  0.00    +0.000 A 
ATOM     14  H   UNL     1       0.963   9.984  21.981  0.00  0.00    +0.000 HD
ENDROOT
BRANCH   1  17
ATOM     15  O   UNL     1       1.137   5.397  17.430  0.00  0.00    +0.000 OA
ATOM     16  C   UNL     1       2.076   5.323  18.213  0.00  0.00    +0.000 C 
ATOM     17  N   UNL     1       2.627   6.375  18.929  0.00  0.00    +0.000 N 
ATOM     18  H   UNL     1       3.411   6.172  19.538  0.00  0.00    +0.000 HD
BRANCH  16  19
ATOM     19  C   UNL     1       2.693   3.987  18.417  0.00  0.00    +0.000 A 
ATOM     20  C   UNL     1       3.749   3.576  17.581  0.00  0.00    +0.000 A 
ATOM     21 CL   UNL     1       4.551   4.635  16.470  0.00  0.00    +0.000 Cl
ATOM     22  C   UNL     1       4.243   2.267  17.653  0.00  0.00    +0.000 A 
ATOM     23  C   UNL     1       3.711   1.363  18.566  0.00  0.00    +0.000 A 
ATOM     24  C   UNL     1       2.689   1.768  19.420  0.00  0.00    +0.000 A 
ATOM     25  C   UNL     1       2.175   3.071  19.346  0.00  0.00    +0.000 A 
ATOM     26 CL   UNL     1       0.878   3.443  20.430  0.00  0.00    +0.000 Cl
ENDBRANCH  16  19
ENDBRANCH   1  17
TORSDOF 2
ENDMDL
MODEL 7
REMARK VINA RESULT:      -7.4      1.058      1.064
REMARK  Name = 
REMARK  2 active torsions:
REMARK  status: ('A' for Active; 'I' for Inactive)
REMARK    1  A    between atoms: C_2  and  C_17
REMARK    2  A    between atoms: N_3  and  C_4
REMARK                            x       y       z     vdW  Elec       q    Type
REMARK                         _______ _______ _______ _____ _____    ______ ____
ROOT
ATOM      1  C   UNL     1       0.950   9.678  19.512  0.00  0.00    +0.000 A 
ATOM      2  C   UNL     1       1.402   9.797  18.204  0.00  0.00    +0.000 A 
ATOM      3  C   UNL     1       2.114   8.750  17.657  0.00  0.00    +0.000 A 
ATOM      4  N   UNL     1       2.403   7.617  18.321  0.00  0.00    +0.000 NA
ATOM      5  C   UNL     1       1.966   7.491  19.591  0.00  0.00    +0.000 A 
ATOM      6  N   UNL     1       2.230   6.306  20.309  0.00  0.00    +0.000 N 
ATOM      7  C   UNL     1       3.150   5.325  19.905  0.00  0.00    +0.000 A 
ATOM      8  C   UNL     1       4.427   5.677  19.469  0.00  0.00    +0.000 A 
ATOM      9  C   UNL     1       5.319   4.688  19.074  0.00  0.00    +0.000 A 
ATOM     10  C   UNL     1       4.915   3.366  19.135  0.00  0.00    +0.000 A 
ATOM     11  C   UNL     1       3.641   3.090  19.601  0.00  0.00    +0.000 A 
ATOM     12  N   UNL     1       2.760   4.034  20.005  0.00  0.00    +0.000 NA
ATOM     13  C   UNL     1       1.248   8.508  20.219  0.00  0.00    +0.000 A 
ATOM     14  H   UNL     1       1.370   5.824  20.544  0.00  0.00    +0.000 HD
ENDROOT
BRANCH   1  17
ATOM     15  O   UNL     1       1.904  11.916  21.172  0.00  0.00    +0.000 OA
ATOM     16  C   UNL     1       0.718  11.707  20.951  0.00  0.00    +0.000 C 
ATOM     17  N   UNL     1       0.201  10.683  20.172  0.00  0.00    +0.000 N 
ATOM     18  H   UNL     1      -0.805  10.632  20.066  0.00  0.00    +0.000 HD
BRANCH  16  19
ATOM     19  C   UNL     1      -0.267  12.636  21.563  0.00  0.00    +0.000 A 
ATOM     20  C   UNL     1      -0.311  13.978  21.140  0.00  0.00    +0.000 A 
ATOM     21 CL   UNL     1       0.553  14.570  19.762  0.00  0.00    +0.000 Cl
ATOM     22  C   UNL     1      -1.122  14.906  21.807  0.00  0.00    +0.000 A 
ATOM     23  C   UNL     1      -1.910  14.509  22.881  0.00  0.00    +0.000 A 
ATOM     24  C   UNL     1      -1.899  13.177  23.287  0.00  0.00    +0.000 A 
ATOM     25  C   UNL     1      -1.079  12.242  22.639  0.00  0.00    +0.000 A 
ATOM     26 CL   UNL     1      -1.120  10.628  23.261  0.00  0.00    +0.000 Cl
ENDBRANCH  16  19
ENDBRANCH   1  17
TORSDOF 2
ENDMDL
MODEL 8
REMARK VINA RESULT:      -7.4      3.123      4.454
REMARK  Name = 
REMARK  2 active torsions:
REMARK  status: ('A' for Active; 'I' for Inactive)
REMARK    1  A    between atoms: C_2  and  C_17
REMARK    2  A    between atoms: N_3  and  C_4
REMARK                            x       y       z     vdW  Elec       q    Type
REMARK                         _______ _______ _______ _____ _____    ______ ____
ROOT
ATOM      1  C   UNL     1       2.600   7.130  19.017  0.00  0.00    +0.000 A 
ATOM      2  C   UNL     1       2.232   5.808  19.234  0.00  0.00    +0.000 A 
ATOM      3  C   UNL     1       2.867   4.822  18.507  0.00  0.00    +0.000 A 
ATOM      4  N   UNL     1       3.824   5.067  17.594  0.00  0.00    +0.000 NA
ATOM      5  C   UNL     1       4.190   6.347  17.379  0.00  0.00    +0.000 A 
ATOM      6  N   UNL     1       5.207   6.639  16.447  0.00  0.00    +0.000 N 
ATOM      7  C   UNL     1       5.706   5.721  15.508  0.00  0.00    +0.000 A 
ATOM      8  C   UNL     1       4.842   4.937  14.744  0.00  0.00    +0.000 A 
ATOM      9  C   UNL     1       5.360   4.035  13.822  0.00  0.00    +0.000 A 
ATOM     10  C   UNL     1       6.734   3.946  13.680  0.00  0.00    +0.000 A 
ATOM     11  C   UNL     1       7.528   4.774  14.456  0.00  0.00    +0.000 A 
ATOM     12  N   UNL     1       7.047   5.669  15.348  0.00  0.00    +0.000 NA
ATOM     13  C   UNL     1       3.589   7.402  18.066  0.00  0.00    +0.000 A 
ATOM     14  H   UNL     1       6.008   7.059  16.901  0.00  0.00    +0.000 HD
ENDROOT
BRANCH   1  17
ATOM     15  O   UNL     1       0.820   9.246  18.003  0.00  0.00    +0.000 OA
ATOM     16  C   UNL     1       1.199   9.193  19.166  0.00  0.00    +0.000 C 
ATOM     17  N   UNL     1       2.025   8.222  19.712  0.00  0.00    +0.000 N 
ATOM     18  H   UNL     1       2.253   8.296  20.696  0.00  0.00    +0.000 HD
BRANCH  16  19
ATOM     19  C   UNL     1       0.731  10.259  20.088  0.00  0.00    +0.000 A 
ATOM     20  C   UNL     1      -0.135   9.929  21.148  0.00  0.00    +0.000 A 
ATOM     21 CL   UNL     1      -0.502   8.299  21.604  0.00  0.00    +0.000 Cl
ATOM     22  C   UNL     1      -0.710  10.935  21.936  0.00  0.00    +0.000 A 
ATOM     23  C   UNL     1      -0.418  12.273  21.693  0.00  0.00    +0.000 A 
ATOM     24  C   UNL     1       0.463  12.609  20.667  0.00  0.00    +0.000 A 
ATOM     25  C   UNL     1       1.031  11.612  19.862  0.00  0.00    +0.000 A 
ATOM     26 CL   UNL     1       2.075  12.158  18.594  0.00  0.00    +0.000 Cl
ENDBRANCH  16  19
ENDBRANCH   1  17
TORSDOF 2
ENDMDL
MODEL 9
REMARK VINA RESULT:      -7.3      3.112      8.749
REMARK  Name = 
REMARK  2 active torsions:
REMARK  status: ('A' for Active; 'I' for Inactive)
REMARK    1  A    between atoms: C_2  and  C_17
REMARK    2  A    between atoms: N_3  and  C_4
REMARK                            x       y       z     vdW  Elec       q    Type
REMARK                         _______ _______ _______ _____ _____    ______ ____
ROOT
ATOM      1  C   UNL     1       1.743   8.301  19.963  0.00  0.00    +0.000 A 
ATOM      2  C   UNL     1       1.753   9.037  18.785  0.00  0.00    +0.000 A 
ATOM      3  C   UNL     1       1.159  10.282  18.784  0.00  0.00    +0.000 A 
ATOM      4  N   UNL     1       0.562  10.825  19.861  0.00  0.00    +0.000 NA
ATOM      5  C   UNL     1       0.550  10.119  21.009  0.00  0.00    +0.000 A 
ATOM      6  N   UNL     1      -0.045  10.667  22.164  0.00  0.00    +0.000 N 
ATOM      7  C   UNL     1      -0.875  11.800  22.163  0.00  0.00    +0.000 A 
ATOM      8  C   UNL     1      -1.901  11.935  21.229  0.00  0.00    +0.000 A 
ATOM      9  C   UNL     1      -2.709  13.066  21.249  0.00  0.00    +0.000 A 
ATOM     10  C   UNL     1      -2.476  14.032  22.211  0.00  0.00    +0.000 A 
ATOM     11  C   UNL     1      -1.454  13.818  23.121  0.00  0.00    +0.000 A 
ATOM     12  N   UNL     1      -0.665  12.720  23.131  0.00  0.00    +0.000 NA
ATOM     13  C   UNL     1       1.121   8.848  21.089  0.00  0.00    +0.000 A 
ATOM     14  H   UNL     1       0.641  10.806  22.896  0.00  0.00    +0.000 HD
ENDROOT
BRANCH   1  17
ATOM     15  O   UNL     1       2.174   6.253  17.890  0.00  0.00    +0.000 OA
ATOM     16  C   UNL     1       2.493   6.095  19.062  0.00  0.00    +0.000 C 
ATOM     17  N   UNL     1       2.331   7.018  20.083  0.00  0.00    +0.000 N 
ATOM     18  H   UNL     1       2.649   6.757  21.010  0.00  0.00    +0.000 HD
BRANCH  16  19
ATOM     19  C   UNL     1       3.121   4.800  19.432  0.00  0.00    +0.000 A 
ATOM     20  C   UNL     1       4.468   4.562  19.101  0.00  0.00    +0.000 A 
ATOM     21 CL   UNL     1       5.531   5.789  18.500  0.00  0.00    +0.000 Cl
ATOM     22  C   UNL     1       5.036   3.297  19.302  0.00  0.00    +0.000 A 
ATOM     23  C   UNL     1       4.281   2.265  19.849  0.00  0.00    +0.000 A 
ATOM     24  C   UNL     1       2.956   2.498  20.210  0.00  0.00    +0.000 A 
ATOM     25  C   UNL     1       2.372   3.755  19.999  0.00  0.00    +0.000 A 
ATOM     26 CL   UNL     1       0.708   3.910  20.448  0.00  0.00    +0.000 Cl
ENDBRANCH  16  19
ENDBRANCH   1  17
TORSDOF 2
ENDMDL
