MODEL 1
REMARK VINA RESULT:      -5.4      0.000      0.000
REMARK  Name = 
REMARK  5 active torsions:
REMARK  status: ('A' for Active; 'I' for Inactive)
REMARK    1  A    between atoms: C_1  and  C_2
REMARK    2  A    between atoms: C_2  and  C_3
REMARK    3  A    between atoms: C_2  and  N_4
REMARK    4  A    between atoms: N_4  and  C_5
REMARK    5  A    between atoms: C_5  and  C_6
REMARK                            x       y       z     vdW  Elec       q    Type
REMARK                         _______ _______ _______ _____ _____    ______ ____
ROOT
ATOM      1  C   UNL     1       3.706   4.198  17.237  0.00  0.00    +0.000 A 
ATOM      2  C   UNL     1       3.570   5.451  17.856  0.00  0.00    +0.000 A 
ATOM      3  C   UNL     1       4.647   6.342  17.902  0.00  0.00    +0.000 A 
ATOM      4  C   UNL     1       5.867   5.980  17.341  0.00  0.00    +0.000 A 
ATOM      5 BR   UNL     1       7.324   7.180  17.409  0.00  0.00    +0.000 Br
ATOM      6  C   UNL     1       6.023   4.738  16.728  0.00  0.00    +0.000 A 
ATOM      7  C   UNL     1       4.944   3.851  16.676  0.00  0.00    +0.000 A 
ENDROOT
BRANCH   1   8
ATOM      8  C   UNL     1       2.542   3.230  17.184  0.00  0.00    +0.000 C 
BRANCH   8   9
ATOM      9  N   UNL     1       1.342   3.807  17.793  0.00  0.00    +0.000 NA
ATOM     10  H   UNL     1       1.533   4.781  18.026  0.00  0.00    +0.000 HD
BRANCH   9  12
ATOM     11  C   UNL     1       1.810   1.887  19.193  0.00  0.00    +0.000 C 
ATOM     12  C   UNL     1       0.902   3.106  19.004  0.00  0.00    +0.000 C 
ATOM     13  C   UNL     1       0.970   3.993  20.249  0.00  0.00    +0.000 C 
ENDBRANCH   9  12
ENDBRANCH   8   9
ENDBRANCH   1   8
TORSDOF 3
ENDMDL
MODEL 2
REMARK VINA RESULT:      -5.4      3.136      5.303
REMARK  Name = 
REMARK  5 active torsions:
REMARK  status: ('A' for Active; 'I' for Inactive)
REMARK    1  A    between atoms: C_1  and  C_2
REMARK    2  A    between atoms: C_2  and  C_3
REMARK    3  A    between atoms: C_2  and  N_4
REMARK    4  A    between atoms: N_4  and  C_5
REMARK    5  A    between atoms: C_5  and  C_6
REMARK                            x       y       z     vdW  Elec       q    Type
REMARK                         _______ _______ _______ _____ _____    ______ ____
ROOT
ATOM      1  C   UNL     1       4.383   5.600  16.917  0.00  0.00    +0.000 A 
ATOM      2  C   UNL     1       4.358   4.203  17.052  0.00  0.00    +0.000 A 
ATOM      3  C   UNL     1       3.450   3.589  17.919  0.00  0.00    +0.000 A 
ATOM      4  C   UNL     1       2.571   4.369  18.663  0.00  0.00    +0.000 A 
ATOM      5 BR   UNL     1       1.347   3.540  19.840  0.00  0.00    +0.000 Br
ATOM      6  C   UNL     1       2.583   5.757  18.547  0.00  0.00    +0.000 A 
ATOM      7  C   UNL     1       3.487   6.370  17.674  0.00  0.00    +0.000 A 
ENDROOT
BRANCH   1   8
ATOM      8  C   UNL     1       5.365   6.270  15.977  0.00  0.00    +0.000 C 
BRANCH   8   9
ATOM      9  N   UNL     1       6.741   6.130  16.458  0.00  0.00    +0.000 NA
ATOM     10  H   UNL     1       6.956   5.137  16.541  0.00  0.00    +0.000 HD
BRANCH   9  12
ATOM     11  C   UNL     1       7.693   5.768  18.655  0.00  0.00    +0.000 C 
ATOM     12  C   UNL     1       6.980   6.779  17.752  0.00  0.00    +0.000 C 
ATOM     13  C   UNL     1       7.836   8.041  17.623  0.00  0.00    +0.000 C 
ENDBRANCH   9  12
ENDBRANCH   8   9
ENDBRANCH   1   8
TORSDOF 3
ENDMDL
MODEL 3
REMARK VINA RESULT:      -5.3      3.122      5.196
REMARK  Name = 
REMARK  5 active torsions:
REMARK  status: ('A' for Active; 'I' for Inactive)
REMARK    1  A    between atoms: C_1  and  C_2
REMARK    2  A    between atoms: C_2  and  C_3
REMARK    3  A    between atoms: C_2  and  N_4
REMARK    4  A    between atoms: N_4  and  C_5
REMARK    5  A    between atoms: C_5  and  C_6
REMARK                            x       y       z     vdW  Elec       q    Type
REMARK                         _______ _______ _______ _____ _____    ______ ____
ROOT
ATOM      1  C   UNL     1       3.863   3.836  17.549  0.00  0.00    +0.000 A 
ATOM      2  C   UNL     1       2.479   4.060  17.615  0.00  0.00    +0.000 A 
ATOM      3  C   UNL     1       1.766   3.761  18.780  0.00  0.00    +0.000 A 
ATOM      4  C   UNL     1       2.431   3.228  19.879  0.00  0.00    +0.000 A 
ATOM      5 BR   UNL     1       1.467   2.818  21.451  0.00  0.00    +0.000 Br
ATOM      6  C   UNL     1       3.804   2.993  19.831  0.00  0.00    +0.000 A 
ATOM      7  C   UNL     1       4.517   3.299  18.668  0.00  0.00    +0.000 A 
ENDROOT
BRANCH   1   8
ATOM      8  C   UNL     1       4.641   4.160  16.289  0.00  0.00    +0.000 C 
BRANCH   8   9
ATOM      9  N   UNL     1       5.992   3.597  16.339  0.00  0.00    +0.000 NA
ATOM     10  H   UNL     1       6.172   3.269  17.287  0.00  0.00    +0.000 HD
BRANCH   9  12
ATOM     11  C   UNL     1       6.875   4.854  14.467  0.00  0.00    +0.000 C 
ATOM     12  C   UNL     1       7.041   4.550  15.959  0.00  0.00    +0.000 C 
ATOM     13  C   UNL     1       6.964   5.852  16.758  0.00  0.00    +0.000 C 
ENDBRANCH   9  12
ENDBRANCH   8   9
ENDBRANCH   1   8
TORSDOF 3
ENDMDL
MODEL 4
REMARK VINA RESULT:      -5.3      3.150      5.200
REMARK  Name = 
REMARK  5 active torsions:
REMARK  status: ('A' for Active; 'I' for Inactive)
REMARK    1  A    between atoms: C_1  and  C_2
REMARK    2  A    between atoms: C_2  and  C_3
REMARK    3  A    between atoms: C_2  and  N_4
REMARK    4  A    between atoms: N_4  and  C_5
REMARK    5  A    between atoms: C_5  and  C_6
REMARK                            x       y       z     vdW  Elec       q    Type
REMARK                         _______ _______ _______ _____ _____    ______ ____
ROOT
ATOM      1  C   UNL     1       4.220   5.940  17.144  0.00  0.00    +0.000 A 
ATOM      2  C   UNL     1       3.382   6.706  17.970  0.00  0.00    +0.000 A 
ATOM      3  C   UNL     1       2.486   6.085  18.845  0.00  0.00    +0.000 A 
ATOM      4  C   UNL     1       2.415   4.697  18.891  0.00  0.00    +0.000 A 
ATOM      5 BR   UNL     1       1.200   3.857  20.069  0.00  0.00    +0.000 Br
ATOM      6  C   UNL     1       3.235   3.919  18.075  0.00  0.00    +0.000 A 
ATOM      7  C   UNL     1       4.136   4.540  17.205  0.00  0.00    +0.000 A 
ENDROOT
BRANCH   1   8
ATOM      8  C   UNL     1       5.194   6.608  16.194  0.00  0.00    +0.000 C 
BRANCH   8   9
ATOM      9  N   UNL     1       6.580   6.320  16.566  0.00  0.00    +0.000 NA
ATOM     10  H   UNL     1       6.695   5.310  16.633  0.00  0.00    +0.000 HD
BRANCH   9  12
ATOM     11  C   UNL     1       7.698   5.855  18.664  0.00  0.00    +0.000 C 
ATOM     12  C   UNL     1       6.988   6.931  17.837  0.00  0.00    +0.000 C 
ATOM     13  C   UNL     1       7.924   8.124  17.638  0.00  0.00    +0.000 C 
ENDBRANCH   9  12
ENDBRANCH   8   9
ENDBRANCH   1   8
TORSDOF 3
ENDMDL
MODEL 5
REMARK VINA RESULT:      -5.3      3.173      5.347
REMARK  Name = 
REMARK  5 active torsions:
REMARK  status: ('A' for Active; 'I' for Inactive)
REMARK    1  A    between atoms: C_1  and  C_2
REMARK    2  A    between atoms: C_2  and  C_3
REMARK    3  A    between atoms: C_2  and  N_4
REMARK    4  A    between atoms: N_4  and  C_5
REMARK    5  A    between atoms: C_5  and  C_6
REMARK                            x       y       z     vdW  Elec       q    Type
REMARK                         _______ _______ _______ _____ _____    ______ ____
ROOT
ATOM      1  C   UNL     1       4.200   5.356  17.281  0.00  0.00    +0.000 A 
ATOM      2  C   UNL     1       3.483   6.093  18.237  0.00  0.00    +0.000 A 
ATOM      3  C   UNL     1       2.500   5.477  19.017  0.00  0.00    +0.000 A 
ATOM      4  C   UNL     1       2.222   4.126  18.838  0.00  0.00    +0.000 A 
ATOM      5 BR   UNL     1       0.889   3.295  19.889  0.00  0.00    +0.000 Br
ATOM      6  C   UNL     1       2.919   3.379  17.891  0.00  0.00    +0.000 A 
ATOM      7  C   UNL     1       3.907   3.993  17.116  0.00  0.00    +0.000 A 
ENDROOT
BRANCH   1   8
ATOM      8  C   UNL     1       5.268   6.018  16.433  0.00  0.00    +0.000 C 
BRANCH   8   9
ATOM      9  N   UNL     1       5.903   7.126  17.150  0.00  0.00    +0.000 NA
ATOM     10  H   UNL     1       5.771   7.981  16.610  0.00  0.00    +0.000 HD
BRANCH   9  12
ATOM     11  C   UNL     1       7.949   8.296  17.708  0.00  0.00    +0.000 C 
ATOM     12  C   UNL     1       7.338   6.929  17.384  0.00  0.00    +0.000 C 
ATOM     13  C   UNL     1       7.614   5.960  18.535  0.00  0.00    +0.000 C 
ENDBRANCH   9  12
ENDBRANCH   8   9
ENDBRANCH   1   8
TORSDOF 3
ENDMDL
MODEL 6
REMARK VINA RESULT:      -5.3      1.418      1.749
REMARK  Name = 
REMARK  5 active torsions:
REMARK  status: ('A' for Active; 'I' for Inactive)
REMARK    1  A    between atoms: C_1  and  C_2
REMARK    2  A    between atoms: C_2  and  C_3
REMARK    3  A    between atoms: C_2  and  N_4
REMARK    4  A    between atoms: N_4  and  C_5
REMARK    5  A    between atoms: C_5  and  C_6
REMARK                            x       y       z     vdW  Elec       q    Type
REMARK                         _______ _______ _______ _____ _____    ______ ____
ROOT
ATOM      1  C   UNL     1       3.636   3.237  18.486  0.00  0.00    +0.000 A 
ATOM      2  C   UNL     1       4.684   3.643  19.327  0.00  0.00    +0.000 A 
ATOM      3  C   UNL     1       5.688   4.492  18.852  0.00  0.00    +0.000 A 
ATOM      4  C   UNL     1       5.655   4.929  17.532  0.00  0.00    +0.000 A 
ATOM      5 BR   UNL     1       7.015   6.072  16.888  0.00  0.00    +0.000 Br
ATOM      6  C   UNL     1       4.626   4.533  16.680  0.00  0.00    +0.000 A 
ATOM      7  C   UNL     1       3.619   3.689  17.158  0.00  0.00    +0.000 A 
ENDROOT
BRANCH   1   8
ATOM      8  C   UNL     1       2.545   2.317  18.997  0.00  0.00    +0.000 C 
BRANCH   8   9
ATOM      9  N   UNL     1       1.256   3.008  19.063  0.00  0.00    +0.000 NA
ATOM     10  H   UNL     1       1.267   3.780  18.398  0.00  0.00    +0.000 HD
BRANCH   9  12
ATOM     11  C   UNL     1       1.593   2.610  21.429  0.00  0.00    +0.000 C 
ATOM     12  C   UNL     1       0.938   3.534  20.396  0.00  0.00    +0.000 C 
ATOM     13  C   UNL     1       1.444   4.963  20.596  0.00  0.00    +0.000 C 
ENDBRANCH   9  12
ENDBRANCH   8   9
ENDBRANCH   1   8
TORSDOF 3
ENDMDL
MODEL 7
REMARK VINA RESULT:      -5.3      3.083      5.193
REMARK  Name = 
REMARK  5 active torsions:
REMARK  status: ('A' for Active; 'I' for Inactive)
REMARK    1  A    between atoms: C_1  and  C_2
REMARK    2  A    between atoms: C_2  and  C_3
REMARK    3  A    between atoms: C_2  and  N_4
REMARK    4  A    between atoms: N_4  and  C_5
REMARK    5  A    between atoms: C_5  and  C_6
REMARK                            x       y       z     vdW  Elec       q    Type
REMARK                         _______ _______ _______ _____ _____    ______ ____
ROOT
ATOM      1  C   UNL     1       3.803   3.868  17.542  0.00  0.00    +0.000 A 
ATOM      2  C   UNL     1       4.335   2.985  18.494  0.00  0.00    +0.000 A 
ATOM      3  C   UNL     1       3.622   2.680  19.657  0.00  0.00    +0.000 A 
ATOM      4  C   UNL     1       2.380   3.265  19.879  0.00  0.00    +0.000 A 
ATOM      5 BR   UNL     1       1.418   2.858  21.453  0.00  0.00    +0.000 Br
ATOM      6  C   UNL     1       1.837   4.149  18.948  0.00  0.00    +0.000 A 
ATOM      7  C   UNL     1       2.548   4.448  17.782  0.00  0.00    +0.000 A 
ENDROOT
BRANCH   1   8
ATOM      8  C   UNL     1       4.572   4.201  16.279  0.00  0.00    +0.000 C 
BRANCH   8   9
ATOM      9  N   UNL     1       5.921   3.633  16.313  0.00  0.00    +0.000 NA
ATOM     10  H   UNL     1       5.985   2.995  17.106  0.00  0.00    +0.000 HD
BRANCH   9  12
ATOM     11  C   UNL     1       6.351   6.012  16.169  0.00  0.00    +0.000 C 
ATOM     12  C   UNL     1       6.982   4.640  16.427  0.00  0.00    +0.000 C 
ATOM     13  C   UNL     1       7.648   4.634  17.803  0.00  0.00    +0.000 C 
ENDBRANCH   9  12
ENDBRANCH   8   9
ENDBRANCH   1   8
TORSDOF 3
ENDMDL
MODEL 8
REMARK VINA RESULT:      -5.3      1.398      1.809
REMARK  Name = 
REMARK  5 active torsions:
REMARK  status: ('A' for Active; 'I' for Inactive)
REMARK    1  A    between atoms: C_1  and  C_2
REMARK    2  A    between atoms: C_2  and  C_3
REMARK    3  A    between atoms: C_2  and  N_4
REMARK    4  A    between atoms: N_4  and  C_5
REMARK    5  A    between atoms: C_5  and  C_6
REMARK                            x       y       z     vdW  Elec       q    Type
REMARK                         _______ _______ _______ _____ _____    ______ ____
ROOT
ATOM      1  C   UNL     1       3.735   3.289  18.498  0.00  0.00    +0.000 A 
ATOM      2  C   UNL     1       3.775   3.709  17.159  0.00  0.00    +0.000 A 
ATOM      3  C   UNL     1       4.768   4.589  16.720  0.00  0.00    +0.000 A 
ATOM      4  C   UNL     1       5.719   5.061  17.618  0.00  0.00    +0.000 A 
ATOM      5 BR   UNL     1       7.058   6.256  17.026  0.00  0.00    +0.000 Br
ATOM      6  C   UNL     1       5.693   4.660  18.953  0.00  0.00    +0.000 A 
ATOM      7  C   UNL     1       4.704   3.774  19.390  0.00  0.00    +0.000 A 
ENDROOT
BRANCH   1   8
ATOM      8  C   UNL     1       2.661   2.333  18.979  0.00  0.00    +0.000 C 
BRANCH   8   9
ATOM      9  N   UNL     1       1.344   2.973  18.980  0.00  0.00    +0.000 NA
ATOM     10  H   UNL     1       1.358   3.746  18.317  0.00  0.00    +0.000 HD
BRANCH   9  12
ATOM     11  C   UNL     1       1.589   2.593  21.360  0.00  0.00    +0.000 C 
ATOM     12  C   UNL     1       0.938   3.482  20.295  0.00  0.00    +0.000 C 
ATOM     13  C   UNL     1       1.360   4.935  20.515  0.00  0.00    +0.000 C 
ENDBRANCH   9  12
ENDBRANCH   8   9
ENDBRANCH   1   8
TORSDOF 3
ENDMDL
MODEL 9
REMARK VINA RESULT:      -5.3      1.447      1.679
REMARK  Name = 
REMARK  5 active torsions:
REMARK  status: ('A' for Active; 'I' for Inactive)
REMARK    1  A    between atoms: C_1  and  C_2
REMARK    2  A    between atoms: C_2  and  C_3
REMARK    3  A    between atoms: C_2  and  N_4
REMARK    4  A    between atoms: N_4  and  C_5
REMARK    5  A    between atoms: C_5  and  C_6
REMARK                            x       y       z     vdW  Elec       q    Type
REMARK                         _______ _______ _______ _____ _____    ______ ____
ROOT
ATOM      1  C   UNL     1       4.464   3.875  17.924  0.00  0.00    +0.000 A 
ATOM      2  C   UNL     1       4.633   4.537  16.698  0.00  0.00    +0.000 A 
ATOM      3  C   UNL     1       5.538   5.597  16.582  0.00  0.00    +0.000 A 
ATOM      4  C   UNL     1       6.268   6.007  17.692  0.00  0.00    +0.000 A 
ATOM      5 BR   UNL     1       7.485   7.443  17.537  0.00  0.00    +0.000 Br
ATOM      6  C   UNL     1       6.110   5.366  18.920  0.00  0.00    +0.000 A 
ATOM      7  C   UNL     1       5.211   4.301  19.033  0.00  0.00    +0.000 A 
ENDROOT
BRANCH   1   8
ATOM      8  C   UNL     1       3.486   2.725  18.055  0.00  0.00    +0.000 C 
BRANCH   8   9
ATOM      9  N   UNL     1       3.095   2.516  19.451  0.00  0.00    +0.000 NA
ATOM     10  H   UNL     1       3.093   1.515  19.641  0.00  0.00    +0.000 HD
BRANCH   9  12
ATOM     11  C   UNL     1       0.754   2.423  18.837  0.00  0.00    +0.000 C 
ATOM     12  C   UNL     1       1.775   3.066  19.781  0.00  0.00    +0.000 C 
ATOM     13  C   UNL     1       1.374   2.792  21.231  0.00  0.00    +0.000 C 
ENDBRANCH   9  12
ENDBRANCH   8   9
ENDBRANCH   1   8
TORSDOF 3
ENDMDL
