MODEL 1
REMARK VINA RESULT:      -7.2      0.000      0.000
REMARK  Name = 
REMARK  6 active torsions:
REMARK  status: ('A' for Active; 'I' for Inactive)
REMARK    1  A    between atoms: C_1  and  O_2
REMARK    2  A    between atoms: O_2  and  C_3
REMARK    3  A    between atoms: C_6  and  N_7
REMARK    4  A    between atoms: C_11  and  N_12
REMARK    5  A    between atoms: C_13  and  C_15
REMARK    6  A    between atoms: C_18  and  C_19
REMARK                            x       y       z     vdW  Elec       q    Type
REMARK                         _______ _______ _______ _____ _____    ______ ____
ROOT
ATOM      1  C   UNL     1       2.785   6.498  18.585  0.00  0.00    +0.000 A 
ATOM      2  C   UNL     1       2.150   6.685  19.827  0.00  0.00    +0.000 A 
ATOM      3  C   UNL     1       1.866   5.600  20.656  0.00  0.00    +0.000 A 
ATOM      4  C   UNL     1       2.210   4.317  20.238  0.00  0.00    +0.000 A 
ATOM      5  C   UNL     1       2.889   4.121  19.030  0.00  0.00    +0.000 A 
ATOM      6  C   UNL     1       3.230   5.209  18.212  0.00  0.00    +0.000 A 
ENDROOT
BRANCH   6   7
ATOM      7  N   UNL     1       4.009   5.034  17.031  0.00  0.00    +0.000 N 
ATOM      8  C   UNL     1       5.344   4.629  16.993  0.00  0.00    +0.000 C 
ATOM      9  O   UNL     1       6.017   4.384  17.990  0.00  0.00    +0.000 OA
ATOM     10  H   UNL     1       3.602   5.364  16.160  0.00  0.00    +0.000 HD
BRANCH   8  11
ATOM     11  C   UNL     1       5.959   4.549  15.679  0.00  0.00    +0.000 A 
ATOM     12  C   UNL     1       7.129   5.140  15.233  0.00  0.00    +0.000 A 
ATOM     13  C   UNL     1       7.285   4.777  13.879  0.00  0.00    +0.000 A 
ATOM     14  C   UNL     1       6.205   3.980  13.573  0.00  0.00    +0.000 A 
ATOM     15  C   UNL     1       5.791   3.294  12.333  0.00  0.00    +0.000 C 
ATOM     16  O   UNL     1       5.389   3.833  14.660  0.00  0.00    +0.000 OA
ENDBRANCH   8  11
ENDBRANCH   6   7
BRANCH   4  17
ATOM     17  N   UNL     1       1.859   3.163  21.074  0.00  0.00    +0.000 N 
ATOM     18  O   UNL     1       2.146   3.222  22.278  0.00  0.00    +0.000 OA
ATOM     19  O   UNL     1       1.287   2.206  20.535  0.00  0.00    +0.000 OA
ENDBRANCH   4  17
BRANCH   1  21
ATOM     20  C   UNL     1       2.277   8.731  17.976  0.00  0.00    +0.000 C 
ATOM     21  O   UNL     1       3.028   7.543  17.716  0.00  0.00    +0.000 OA
ENDBRANCH   1  21
TORSDOF 4
ENDMDL
MODEL 2
REMARK VINA RESULT:      -7.2      2.718      7.071
REMARK  Name = 
REMARK  6 active torsions:
REMARK  status: ('A' for Active; 'I' for Inactive)
REMARK    1  A    between atoms: C_1  and  O_2
REMARK    2  A    between atoms: O_2  and  C_3
REMARK    3  A    between atoms: C_6  and  N_7
REMARK    4  A    between atoms: C_11  and  N_12
REMARK    5  A    between atoms: C_13  and  C_15
REMARK    6  A    between atoms: C_18  and  C_19
REMARK                            x       y       z     vdW  Elec       q    Type
REMARK                         _______ _______ _______ _____ _____    ______ ____
ROOT
ATOM      1  C   UNL     1       3.028   4.575  17.635  0.00  0.00    +0.000 A 
ATOM      2  C   UNL     1       3.815   3.662  16.908  0.00  0.00    +0.000 A 
ATOM      3  C   UNL     1       5.168   3.908  16.677  0.00  0.00    +0.000 A 
ATOM      4  C   UNL     1       5.739   5.079  17.169  0.00  0.00    +0.000 A 
ATOM      5  C   UNL     1       4.983   5.971  17.938  0.00  0.00    +0.000 A 
ATOM      6  C   UNL     1       3.634   5.708  18.225  0.00  0.00    +0.000 A 
ENDROOT
BRANCH   6   7
ATOM      7  N   UNL     1       2.881   6.554  19.090  0.00  0.00    +0.000 N 
ATOM      8  C   UNL     1       2.301   7.772  18.731  0.00  0.00    +0.000 C 
ATOM      9  O   UNL     1       2.384   8.268  17.612  0.00  0.00    +0.000 OA
ATOM     10  H   UNL     1       2.886   6.320  20.079  0.00  0.00    +0.000 HD
BRANCH   8  11
ATOM     11  C   UNL     1       1.605   8.492  19.783  0.00  0.00    +0.000 A 
ATOM     12  C   UNL     1       1.380   8.105  21.094  0.00  0.00    +0.000 A 
ATOM     13  C   UNL     1       0.642   9.139  21.708  0.00  0.00    +0.000 A 
ATOM     14  C   UNL     1       0.461  10.103  20.740  0.00  0.00    +0.000 A 
ATOM     15  C   UNL     1      -0.223  11.411  20.752  0.00  0.00    +0.000 C 
ATOM     16  O   UNL     1       1.043   9.721  19.564  0.00  0.00    +0.000 OA
ENDBRANCH   8  11
ENDBRANCH   6   7
BRANCH   4  17
ATOM     17  N   UNL     1       7.146   5.379  16.877  0.00  0.00    +0.000 N 
ATOM     18  O   UNL     1       7.958   4.446  16.964  0.00  0.00    +0.000 OA
ATOM     19  O   UNL     1       7.440   6.535  16.550  0.00  0.00    +0.000 OA
ENDBRANCH   4  17
BRANCH   1  21
ATOM     20  C   UNL     1       1.315   3.128  18.400  0.00  0.00    +0.000 C 
ATOM     21  O   UNL     1       1.675   4.389  17.831  0.00  0.00    +0.000 OA
ENDBRANCH   1  21
TORSDOF 4
ENDMDL
MODEL 3
REMARK VINA RESULT:      -7.1      2.762      7.112
REMARK  Name = 
REMARK  6 active torsions:
REMARK  status: ('A' for Active; 'I' for Inactive)
REMARK    1  A    between atoms: C_1  and  O_2
REMARK    2  A    between atoms: O_2  and  C_3
REMARK    3  A    between atoms: C_6  and  N_7
REMARK    4  A    between atoms: C_11  and  N_12
REMARK    5  A    between atoms: C_13  and  C_15
REMARK    6  A    between atoms: C_18  and  C_19
REMARK                            x       y       z     vdW  Elec       q    Type
REMARK                         _______ _______ _______ _____ _____    ______ ____
ROOT
ATOM      1  C   UNL     1       2.882   4.759  17.697  0.00  0.00    +0.000 A 
ATOM      2  C   UNL     1       3.701   3.802  17.069  0.00  0.00    +0.000 A 
ATOM      3  C   UNL     1       5.018   4.101  16.725  0.00  0.00    +0.000 A 
ATOM      4  C   UNL     1       5.521   5.369  17.002  0.00  0.00    +0.000 A 
ATOM      5  C   UNL     1       4.738   6.314  17.673  0.00  0.00    +0.000 A 
ATOM      6  C   UNL     1       3.428   6.008  18.074  0.00  0.00    +0.000 A 
ENDROOT
BRANCH   6   7
ATOM      7  N   UNL     1       2.655   6.923  18.847  0.00  0.00    +0.000 N 
ATOM      8  C   UNL     1       2.185   8.161  18.405  0.00  0.00    +0.000 C 
ATOM      9  O   UNL     1       2.396   8.617  17.286  0.00  0.00    +0.000 OA
ATOM     10  H   UNL     1       2.559   6.720  19.838  0.00  0.00    +0.000 HD
BRANCH   8  11
ATOM     11  C   UNL     1       1.444   8.954  19.372  0.00  0.00    +0.000 A 
ATOM     12  C   UNL     1       0.763  10.143  19.176  0.00  0.00    +0.000 A 
ATOM     13  C   UNL     1       0.227  10.523  20.424  0.00  0.00    +0.000 A 
ATOM     14  C   UNL     1       0.606   9.542  21.314  0.00  0.00    +0.000 A 
ATOM     15  C   UNL     1       0.367   9.361  22.759  0.00  0.00    +0.000 C 
ATOM     16  O   UNL     1       1.347   8.581  20.686  0.00  0.00    +0.000 OA
ENDBRANCH   8  11
ENDBRANCH   6   7
BRANCH   4  17
ATOM     17  N   UNL     1       6.886   5.715  16.587  0.00  0.00    +0.000 N 
ATOM     18  O   UNL     1       7.227   6.903  16.679  0.00  0.00    +0.000 OA
ATOM     19  O   UNL     1       7.622   4.805  16.185  0.00  0.00    +0.000 OA
ENDBRANCH   4  17
BRANCH   1  21
ATOM     20  C   UNL     1       1.298   3.237  18.584  0.00  0.00    +0.000 C 
ATOM     21  O   UNL     1       1.558   4.514  17.998  0.00  0.00    +0.000 OA
ENDBRANCH   1  21
TORSDOF 4
ENDMDL
MODEL 4
REMARK VINA RESULT:      -7.1      2.282      6.987
REMARK  Name = 
REMARK  6 active torsions:
REMARK  status: ('A' for Active; 'I' for Inactive)
REMARK    1  A    between atoms: C_1  and  O_2
REMARK    2  A    between atoms: O_2  and  C_3
REMARK    3  A    between atoms: C_6  and  N_7
REMARK    4  A    between atoms: C_11  and  N_12
REMARK    5  A    between atoms: C_13  and  C_15
REMARK    6  A    between atoms: C_18  and  C_19
REMARK                            x       y       z     vdW  Elec       q    Type
REMARK                         _______ _______ _______ _____ _____    ______ ____
ROOT
ATOM      1  C   UNL     1       6.632   4.431  16.817  0.00  0.00    +0.000 A 
ATOM      2  C   UNL     1       7.590   4.962  15.933  0.00  0.00    +0.000 A 
ATOM      3  C   UNL     1       7.459   4.805  14.554  0.00  0.00    +0.000 A 
ATOM      4  C   UNL     1       6.365   4.103  14.052  0.00  0.00    +0.000 A 
ATOM      5  C   UNL     1       5.377   3.614  14.914  0.00  0.00    +0.000 A 
ATOM      6  C   UNL     1       5.469   3.814  16.300  0.00  0.00    +0.000 A 
ENDROOT
BRANCH   6   7
ATOM      7  N   UNL     1       4.421   3.412  17.179  0.00  0.00    +0.000 N 
ATOM      8  C   UNL     1       3.440   4.251  17.708  0.00  0.00    +0.000 C 
ATOM      9  O   UNL     1       3.372   5.456  17.484  0.00  0.00    +0.000 OA
ATOM     10  H   UNL     1       4.476   2.471  17.558  0.00  0.00    +0.000 HD
BRANCH   8  11
ATOM     11  C   UNL     1       2.484   3.638  18.615  0.00  0.00    +0.000 A 
ATOM     12  C   UNL     1       1.209   3.171  18.342  0.00  0.00    +0.000 A 
ATOM     13  C   UNL     1       0.680   2.685  19.556  0.00  0.00    +0.000 A 
ATOM     14  C   UNL     1       1.662   2.877  20.502  0.00  0.00    +0.000 A 
ATOM     15  C   UNL     1       1.724   2.584  21.948  0.00  0.00    +0.000 C 
ATOM     16  O   UNL     1       2.766   3.456  19.943  0.00  0.00    +0.000 OA
ENDBRANCH   8  11
ENDBRANCH   6   7
BRANCH   4  17
ATOM     17  N   UNL     1       6.250   3.877  12.606  0.00  0.00    +0.000 N 
ATOM     18  O   UNL     1       7.215   4.199  11.899  0.00  0.00    +0.000 OA
ATOM     19  O   UNL     1       5.207   3.367  12.178  0.00  0.00    +0.000 OA
ENDBRANCH   4  17
BRANCH   1  21
ATOM     20  C   UNL     1       7.076   5.823  18.681  0.00  0.00    +0.000 C 
ATOM     21  O   UNL     1       6.763   4.519  18.187  0.00  0.00    +0.000 OA
ENDBRANCH   1  21
TORSDOF 4
ENDMDL
MODEL 5
REMARK VINA RESULT:      -7.1      0.730      1.170
REMARK  Name = 
REMARK  6 active torsions:
REMARK  status: ('A' for Active; 'I' for Inactive)
REMARK    1  A    between atoms: C_1  and  O_2
REMARK    2  A    between atoms: O_2  and  C_3
REMARK    3  A    between atoms: C_6  and  N_7
REMARK    4  A    between atoms: C_11  and  N_12
REMARK    5  A    between atoms: C_13  and  C_15
REMARK    6  A    between atoms: C_18  and  C_19
REMARK                            x       y       z     vdW  Elec       q    Type
REMARK                         _______ _______ _______ _____ _____    ______ ____
ROOT
ATOM      1  C   UNL     1       2.966   6.420  18.538  0.00  0.00    +0.000 A 
ATOM      2  C   UNL     1       2.401   6.644  19.808  0.00  0.00    +0.000 A 
ATOM      3  C   UNL     1       2.108   5.580  20.660  0.00  0.00    +0.000 A 
ATOM      4  C   UNL     1       2.373   4.280  20.238  0.00  0.00    +0.000 A 
ATOM      5  C   UNL     1       2.983   4.043  19.001  0.00  0.00    +0.000 A 
ATOM      6  C   UNL     1       3.333   5.109  18.157  0.00  0.00    +0.000 A 
ENDROOT
BRANCH   6   7
ATOM      7  N   UNL     1       4.046   4.889  16.942  0.00  0.00    +0.000 N 
ATOM      8  C   UNL     1       5.435   4.893  16.804  0.00  0.00    +0.000 C 
ATOM      9  O   UNL     1       6.216   5.100  17.728  0.00  0.00    +0.000 OA
ATOM     10  H   UNL     1       3.498   4.868  16.086  0.00  0.00    +0.000 HD
BRANCH   8  11
ATOM     11  C   UNL     1       5.952   4.682  15.463  0.00  0.00    +0.000 A 
ATOM     12  C   UNL     1       5.564   3.742  14.523  0.00  0.00    +0.000 A 
ATOM     13  C   UNL     1       6.380   3.930  13.389  0.00  0.00    +0.000 A 
ATOM     14  C   UNL     1       7.219   4.979  13.695  0.00  0.00    +0.000 A 
ATOM     15  C   UNL     1       8.293   5.650  12.938  0.00  0.00    +0.000 C 
ATOM     16  O   UNL     1       6.969   5.445  14.955  0.00  0.00    +0.000 OA
ENDBRANCH   8  11
ENDBRANCH   6   7
BRANCH   4  17
ATOM     17  N   UNL     1       2.011   3.148  21.101  0.00  0.00    +0.000 N 
ATOM     18  O   UNL     1       2.362   3.201  22.288  0.00  0.00    +0.000 OA
ATOM     19  O   UNL     1       1.367   2.217  20.601  0.00  0.00    +0.000 OA
ENDBRANCH   4  17
BRANCH   1  21
ATOM     20  C   UNL     1       2.317   8.555  17.743  0.00  0.00    +0.000 C 
ATOM     21  O   UNL     1       3.213   7.446  17.650  0.00  0.00    +0.000 OA
ENDBRANCH   1  21
TORSDOF 4
ENDMDL
MODEL 6
REMARK VINA RESULT:      -6.9      2.740      6.924
REMARK  Name = 
REMARK  6 active torsions:
REMARK  status: ('A' for Active; 'I' for Inactive)
REMARK    1  A    between atoms: C_1  and  O_2
REMARK    2  A    between atoms: O_2  and  C_3
REMARK    3  A    between atoms: C_6  and  N_7
REMARK    4  A    between atoms: C_11  and  N_12
REMARK    5  A    between atoms: C_13  and  C_15
REMARK    6  A    between atoms: C_18  and  C_19
REMARK                            x       y       z     vdW  Elec       q    Type
REMARK                         _______ _______ _______ _____ _____    ______ ____
ROOT
ATOM      1  C   UNL     1       3.027   4.747  17.500  0.00  0.00    +0.000 A 
ATOM      2  C   UNL     1       3.846   3.701  17.035  0.00  0.00    +0.000 A 
ATOM      3  C   UNL     1       5.202   3.910  16.789  0.00  0.00    +0.000 A 
ATOM      4  C   UNL     1       5.745   5.175  17.001  0.00  0.00    +0.000 A 
ATOM      5  C   UNL     1       4.955   6.210  17.512  0.00  0.00    +0.000 A 
ATOM      6  C   UNL     1       3.601   5.999  17.816  0.00  0.00    +0.000 A 
ENDROOT
BRANCH   6   7
ATOM      7  N   UNL     1       2.812   7.014  18.432  0.00  0.00    +0.000 N 
ATOM      8  C   UNL     1       2.346   6.993  19.748  0.00  0.00    +0.000 C 
ATOM      9  O   UNL     1       2.556   6.076  20.536  0.00  0.00    +0.000 OA
ATOM     10  H   UNL     1       2.445   7.742  17.825  0.00  0.00    +0.000 HD
BRANCH   8  11
ATOM     11  C   UNL     1       1.525   8.118  20.162  0.00  0.00    +0.000 A 
ATOM     12  C   UNL     1       0.928   8.348  21.390  0.00  0.00    +0.000 A 
ATOM     13  C   UNL     1       0.223   9.565  21.284  0.00  0.00    +0.000 A 
ATOM     14  C   UNL     1       0.433  10.015  19.999  0.00  0.00    +0.000 A 
ATOM     15  C   UNL     1      -0.031  11.215  19.275  0.00  0.00    +0.000 C 
ATOM     16  O   UNL     1       1.224   9.143  19.305  0.00  0.00    +0.000 OA
ENDBRANCH   8  11
ENDBRANCH   6   7
BRANCH   4  17
ATOM     17  N   UNL     1       7.157   5.421  16.685  0.00  0.00    +0.000 N 
ATOM     18  O   UNL     1       7.512   6.600  16.542  0.00  0.00    +0.000 OA
ATOM     19  O   UNL     1       7.913   4.446  16.594  0.00  0.00    +0.000 OA
ENDBRANCH   4  17
BRANCH   1  21
ATOM     20  C   UNL     1       1.301   3.436  18.457  0.00  0.00    +0.000 C 
ATOM     21  O   UNL     1       1.670   4.589  17.697  0.00  0.00    +0.000 OA
ENDBRANCH   1  21
TORSDOF 4
ENDMDL
MODEL 7
REMARK VINA RESULT:      -6.9      2.675      7.169
REMARK  Name = 
REMARK  6 active torsions:
REMARK  status: ('A' for Active; 'I' for Inactive)
REMARK    1  A    between atoms: C_1  and  O_2
REMARK    2  A    between atoms: O_2  and  C_3
REMARK    3  A    between atoms: C_6  and  N_7
REMARK    4  A    between atoms: C_11  and  N_12
REMARK    5  A    between atoms: C_13  and  C_15
REMARK    6  A    between atoms: C_18  and  C_19
REMARK                            x       y       z     vdW  Elec       q    Type
REMARK                         _______ _______ _______ _____ _____    ______ ____
ROOT
ATOM      1  C   UNL     1       2.984   4.720  17.528  0.00  0.00    +0.000 A 
ATOM      2  C   UNL     1       3.795   3.700  16.994  0.00  0.00    +0.000 A 
ATOM      3  C   UNL     1       5.110   3.959  16.608  0.00  0.00    +0.000 A 
ATOM      4  C   UNL     1       5.617   5.248  16.748  0.00  0.00    +0.000 A 
ATOM      5  C   UNL     1       4.841   6.259  17.325  0.00  0.00    +0.000 A 
ATOM      6  C   UNL     1       3.535   5.999  17.769  0.00  0.00    +0.000 A 
ENDROOT
BRANCH   6   7
ATOM      7  N   UNL     1       2.771   6.991  18.449  0.00  0.00    +0.000 N 
ATOM      8  C   UNL     1       2.386   6.940  19.790  0.00  0.00    +0.000 C 
ATOM      9  O   UNL     1       2.654   6.012  20.547  0.00  0.00    +0.000 OA
ATOM     10  H   UNL     1       2.359   7.724  17.879  0.00  0.00    +0.000 HD
BRANCH   8  11
ATOM     11  C   UNL     1       1.576   8.045  20.273  0.00  0.00    +0.000 A 
ATOM     12  C   UNL     1       1.179   9.187  19.598  0.00  0.00    +0.000 A 
ATOM     13  C   UNL     1       0.426   9.962  20.504  0.00  0.00    +0.000 A 
ATOM     14  C   UNL     1       0.400   9.248  21.682  0.00  0.00    +0.000 A 
ATOM     15  C   UNL     1      -0.217   9.517  22.997  0.00  0.00    +0.000 C 
ATOM     16  O   UNL     1       1.096   8.080  21.555  0.00  0.00    +0.000 OA
ENDBRANCH   8  11
ENDBRANCH   6   7
BRANCH   4  17
ATOM     17  N   UNL     1       6.979   5.546  16.287  0.00  0.00    +0.000 N 
ATOM     18  O   UNL     1       7.527   4.713  15.552  0.00  0.00    +0.000 OA
ATOM     19  O   UNL     1       7.494   6.613  16.644  0.00  0.00    +0.000 OA
ENDBRANCH   4  17
BRANCH   1  21
ATOM     20  C   UNL     1       1.378   3.224  18.420  0.00  0.00    +0.000 C 
ATOM     21  O   UNL     1       1.663   4.510  17.865  0.00  0.00    +0.000 OA
ENDBRANCH   1  21
TORSDOF 4
ENDMDL
MODEL 8
REMARK VINA RESULT:      -6.9      1.904      3.306
REMARK  Name = 
REMARK  6 active torsions:
REMARK  status: ('A' for Active; 'I' for Inactive)
REMARK    1  A    between atoms: C_1  and  O_2
REMARK    2  A    between atoms: O_2  and  C_3
REMARK    3  A    between atoms: C_6  and  N_7
REMARK    4  A    between atoms: C_11  and  N_12
REMARK    5  A    between atoms: C_13  and  C_15
REMARK    6  A    between atoms: C_18  and  C_19
REMARK                            x       y       z     vdW  Elec       q    Type
REMARK                         _______ _______ _______ _____ _____    ______ ____
ROOT
ATOM      1  C   UNL     1       3.437   3.955  19.239  0.00  0.00    +0.000 A 
ATOM      2  C   UNL     1       2.650   4.151  20.389  0.00  0.00    +0.000 A 
ATOM      3  C   UNL     1       2.082   5.393  20.667  0.00  0.00    +0.000 A 
ATOM      4  C   UNL     1       2.309   6.453  19.793  0.00  0.00    +0.000 A 
ATOM      5  C   UNL     1       3.045   6.262  18.618  0.00  0.00    +0.000 A 
ATOM      6  C   UNL     1       3.576   5.002  18.300  0.00  0.00    +0.000 A 
ENDROOT
BRANCH   6   7
ATOM      7  N   UNL     1       4.239   4.769  17.060  0.00  0.00    +0.000 N 
ATOM      8  C   UNL     1       5.553   5.135  16.762  0.00  0.00    +0.000 C 
ATOM      9  O   UNL     1       6.297   5.720  17.543  0.00  0.00    +0.000 OA
ATOM     10  H   UNL     1       3.667   4.437  16.288  0.00  0.00    +0.000 HD
BRANCH   8  11
ATOM     11  C   UNL     1       6.020   4.831  15.420  0.00  0.00    +0.000 A 
ATOM     12  C   UNL     1       5.578   3.848  14.551  0.00  0.00    +0.000 A 
ATOM     13  C   UNL     1       6.361   3.948  13.382  0.00  0.00    +0.000 A 
ATOM     14  C   UNL     1       7.235   4.991  13.598  0.00  0.00    +0.000 A 
ATOM     15  C   UNL     1       8.299   5.588  12.768  0.00  0.00    +0.000 C 
ATOM     16  O   UNL     1       7.038   5.537  14.835  0.00  0.00    +0.000 OA
ENDBRANCH   8  11
ENDBRANCH   6   7
BRANCH   4  17
ATOM     17  N   UNL     1       1.768   7.782  20.107  0.00  0.00    +0.000 N 
ATOM     18  O   UNL     1       1.377   7.979  21.266  0.00  0.00    +0.000 OA
ATOM     19  O   UNL     1       1.747   8.630  19.206  0.00  0.00    +0.000 OA
ENDBRANCH   4  17
BRANCH   1  21
ATOM     20  C   UNL     1       3.186   1.699  18.563  0.00  0.00    +0.000 C 
ATOM     21  O   UNL     1       4.060   2.755  18.967  0.00  0.00    +0.000 OA
ENDBRANCH   1  21
TORSDOF 4
ENDMDL
MODEL 9
REMARK VINA RESULT:      -6.8      2.416      6.932
REMARK  Name = 
REMARK  6 active torsions:
REMARK  status: ('A' for Active; 'I' for Inactive)
REMARK    1  A    between atoms: C_1  and  O_2
REMARK    2  A    between atoms: O_2  and  C_3
REMARK    3  A    between atoms: C_6  and  N_7
REMARK    4  A    between atoms: C_11  and  N_12
REMARK    5  A    between atoms: C_13  and  C_15
REMARK    6  A    between atoms: C_18  and  C_19
REMARK                            x       y       z     vdW  Elec       q    Type
REMARK                         _______ _______ _______ _____ _____    ______ ____
ROOT
ATOM      1  C   UNL     1       6.534   4.914  16.592  0.00  0.00    +0.000 A 
ATOM      2  C   UNL     1       7.486   5.127  15.578  0.00  0.00    +0.000 A 
ATOM      3  C   UNL     1       7.245   4.709  14.270  0.00  0.00    +0.000 A 
ATOM      4  C   UNL     1       6.047   4.065  13.973  0.00  0.00    +0.000 A 
ATOM      5  C   UNL     1       5.069   3.892  14.958  0.00  0.00    +0.000 A 
ATOM      6  C   UNL     1       5.276   4.358  16.266  0.00  0.00    +0.000 A 
ENDROOT
BRANCH   6   7
ATOM      7  N   UNL     1       4.250   4.280  17.253  0.00  0.00    +0.000 N 
ATOM      8  C   UNL     1       3.762   3.104  17.824  0.00  0.00    +0.000 C 
ATOM      9  O   UNL     1       4.159   1.980  17.530  0.00  0.00    +0.000 OA
ATOM     10  H   UNL     1       3.739   5.136  17.452  0.00  0.00    +0.000 HD
BRANCH   8  11
ATOM     11  C   UNL     1       2.685   3.252  18.789  0.00  0.00    +0.000 A 
ATOM     12  C   UNL     1       1.502   3.960  18.663  0.00  0.00    +0.000 A 
ATOM     13  C   UNL     1       0.801   3.811  19.878  0.00  0.00    +0.000 A 
ATOM     14  C   UNL     1       1.591   3.016  20.677  0.00  0.00    +0.000 A 
ATOM     15  C   UNL     1       1.422   2.502  22.051  0.00  0.00    +0.000 C 
ATOM     16  O   UNL     1       2.741   2.668  20.026  0.00  0.00    +0.000 OA
ENDBRANCH   8  11
ENDBRANCH   6   7
BRANCH   4  17
ATOM     17  N   UNL     1       5.809   3.564  12.613  0.00  0.00    +0.000 N 
ATOM     18  O   UNL     1       4.634   3.505  12.225  0.00  0.00    +0.000 OA
ATOM     19  O   UNL     1       6.790   3.245  11.930  0.00  0.00    +0.000 OA
ENDBRANCH   4  17
BRANCH   1  21
ATOM     20  C   UNL     1       7.472   6.492  18.089  0.00  0.00    +0.000 C 
ATOM     21  O   UNL     1       6.767   5.263  17.907  0.00  0.00    +0.000 OA
ENDBRANCH   1  21
TORSDOF 4
ENDMDL
