MODEL 1
REMARK VINA RESULT:      -7.7      0.000      0.000
REMARK  Name = 
REMARK  8 active torsions:
REMARK  status: ('A' for Active; 'I' for Inactive)
REMARK    1  A    between atoms: C_2  and  C_3
REMARK    2  A    between atoms: C_4  and  C_5
REMARK    3  A    between atoms: C_8  and  S_9
REMARK    4  A    between atoms: S_9  and  N_12
REMARK    5  A    between atoms: N_12  and  C_13
REMARK    6  A    between atoms: C_13  and  C_14
REMARK    7  A    between atoms: C_14  and  C_15
REMARK    8  A    between atoms: N_26  and  O_27
REMARK                            x       y       z     vdW  Elec       q    Type
REMARK                         _______ _______ _______ _____ _____    ______ ____
ROOT
ATOM      1  S   UNL     1       6.753   5.452  18.495  0.00  0.00    +0.000 S 
ATOM      2  O   UNL     1       7.731   6.356  17.933  0.00  0.00    +0.000 OA
ATOM      3  O   UNL     1       6.892   4.913  19.829  0.00  0.00    +0.000 OA
ENDROOT
BRANCH   1   7
ATOM      4  C   UNL     1       2.701   7.561  18.148  0.00  0.00    +0.000 A 
ATOM      5  C   UNL     1       3.666   7.712  17.145  0.00  0.00    +0.000 A 
ATOM      6  C   UNL     1       4.888   7.043  17.236  0.00  0.00    +0.000 A 
ATOM      7  C   UNL     1       5.164   6.244  18.352  0.00  0.00    +0.000 A 
ATOM      8  C   UNL     1       4.203   6.072  19.352  0.00  0.00    +0.000 A 
ATOM      9  C   UNL     1       2.969   6.727  19.242  0.00  0.00    +0.000 A 
BRANCH   4  11
ATOM     10  C   UNL     1       1.268   9.509  18.513  0.00  0.00    +0.000 C 
ATOM     11  C   UNL     1       1.424   8.268  18.030  0.00  0.00    +0.000 C 
BRANCH  10  13
ATOM     12  O   UNL     1      -0.485  10.931  19.308  0.00  0.00    +0.000 OA
ATOM     13  C   UNL     1      -0.051  10.190  18.439  0.00  0.00    +0.000 C 
ATOM     14  N   UNL     1      -0.730   9.910  17.282  0.00  0.00    +0.000 N 
ATOM     15  H   UNL     1      -0.395   9.321  16.529  0.00  0.00    +0.000 HD
BRANCH  14  16
ATOM     16  O   UNL     1      -1.978  10.539  17.094  0.00  0.00    +0.000 OA
ATOM     17  H   UNL     1      -2.598   9.920  17.538  0.00  0.00    +0.000 HD
ENDBRANCH  14  16
ENDBRANCH  10  13
ENDBRANCH   4  11
ENDBRANCH   1   7
BRANCH   1  18
ATOM     18  N   UNL     1       6.645   4.151  17.423  0.00  0.00    +0.000 NA
ATOM     19  H   UNL     1       6.846   3.277  17.912  0.00  0.00    +0.000 HD
BRANCH  18  20
ATOM     20  C   UNL     1       5.525   4.098  16.460  0.00  0.00    +0.000 C 
BRANCH  20  21
ATOM     21  C   UNL     1       4.664   2.853  16.643  0.00  0.00    +0.000 C 
BRANCH  21  22
ATOM     22  C   UNL     1       3.585   3.033  17.674  0.00  0.00    +0.000 A 
ATOM     23  C   UNL     1       2.347   3.568  17.293  0.00  0.00    +0.000 A 
ATOM     24  C   UNL     1       1.306   3.715  18.212  0.00  0.00    +0.000 A 
ATOM     25  C   UNL     1       1.551   3.310  19.526  0.00  0.00    +0.000 A 
ATOM     26  N   UNL     1       0.722   3.321  20.625  0.00  0.00    +0.000 N 
ATOM     27  C   UNL     1       1.379   2.820  21.718  0.00  0.00    +0.000 A 
ATOM     28  C   UNL     1       2.653   2.482  21.325  0.00  0.00    +0.000 A 
ATOM     29  C   UNL     1       2.773   2.785  19.941  0.00  0.00    +0.000 A 
ATOM     30  C   UNL     1       3.812   2.649  19.003  0.00  0.00    +0.000 A 
ATOM     31  H   UNL     1      -0.235   3.642  20.613  0.00  0.00    +0.000 HD
ENDBRANCH  21  22
ENDBRANCH  20  21
ENDBRANCH  18  20
ENDBRANCH   1  18
TORSDOF 8
ENDMDL
MODEL 2
REMARK VINA RESULT:      -7.6      2.052      2.500
REMARK  Name = 
REMARK  8 active torsions:
REMARK  status: ('A' for Active; 'I' for Inactive)
REMARK    1  A    between atoms: C_2  and  C_3
REMARK    2  A    between atoms: C_4  and  C_5
REMARK    3  A    between atoms: C_8  and  S_9
REMARK    4  A    between atoms: S_9  and  N_12
REMARK    5  A    between atoms: N_12  and  C_13
REMARK    6  A    between atoms: C_13  and  C_14
REMARK    7  A    between atoms: C_14  and  C_15
REMARK    8  A    between atoms: N_26  and  O_27
REMARK                            x       y       z     vdW  Elec       q    Type
REMARK                         _______ _______ _______ _____ _____    ______ ____
ROOT
ATOM      1  S   UNL     1       6.282   5.917  16.716  0.00  0.00    +0.000 S 
ATOM      2  O   UNL     1       6.018   6.346  15.362  0.00  0.00    +0.000 OA
ATOM      3  O   UNL     1       7.490   6.297  17.413  0.00  0.00    +0.000 OA
ENDROOT
BRANCH   1   7
ATOM      4  C   UNL     1       2.623   7.052  19.228  0.00  0.00    +0.000 A 
ATOM      5  C   UNL     1       3.558   6.129  19.714  0.00  0.00    +0.000 A 
ATOM      6  C   UNL     1       4.689   5.809  18.961  0.00  0.00    +0.000 A 
ATOM      7  C   UNL     1       4.873   6.386  17.700  0.00  0.00    +0.000 A 
ATOM      8  C   UNL     1       3.956   7.320  17.209  0.00  0.00    +0.000 A 
ATOM      9  C   UNL     1       2.836   7.656  17.981  0.00  0.00    +0.000 A 
BRANCH   4  11
ATOM     10  C   UNL     1       1.502   8.293  21.013  0.00  0.00    +0.000 C 
ATOM     11  C   UNL     1       1.446   7.377  20.035  0.00  0.00    +0.000 C 
BRANCH  10  13
ATOM     12  O   UNL     1      -0.772   8.029  21.710  0.00  0.00    +0.000 OA
ATOM     13  C   UNL     1       0.315   8.568  21.862  0.00  0.00    +0.000 C 
ATOM     14  N   UNL     1       0.567   9.486  22.848  0.00  0.00    +0.000 N 
ATOM     15  H   UNL     1       1.457   9.936  23.022  0.00  0.00    +0.000 HD
BRANCH  14  16
ATOM     16  O   UNL     1      -0.486   9.790  23.736  0.00  0.00    +0.000 OA
ATOM     17  H   UNL     1      -0.923  10.551  23.297  0.00  0.00    +0.000 HD
ENDBRANCH  14  16
ENDBRANCH  10  13
ENDBRANCH   4  11
ENDBRANCH   1   7
BRANCH   1  18
ATOM     18  N   UNL     1       6.208   4.229  16.697  0.00  0.00    +0.000 NA
ATOM     19  H   UNL     1       6.414   3.860  17.626  0.00  0.00    +0.000 HD
BRANCH  18  20
ATOM     20  C   UNL     1       5.102   3.562  15.978  0.00  0.00    +0.000 C 
BRANCH  20  21
ATOM     21  C   UNL     1       4.573   2.347  16.731  0.00  0.00    +0.000 C 
BRANCH  21  22
ATOM     22  C   UNL     1       3.519   2.699  17.744  0.00  0.00    +0.000 A 
ATOM     23  C   UNL     1       2.353   3.357  17.329  0.00  0.00    +0.000 A 
ATOM     24  C   UNL     1       1.334   3.666  18.231  0.00  0.00    +0.000 A 
ATOM     25  C   UNL     1       1.525   3.295  19.565  0.00  0.00    +0.000 A 
ATOM     26  N   UNL     1       0.699   3.453  20.654  0.00  0.00    +0.000 N 
ATOM     27  C   UNL     1       1.289   2.928  21.774  0.00  0.00    +0.000 A 
ATOM     28  C   UNL     1       2.516   2.426  21.407  0.00  0.00    +0.000 A 
ATOM     29  C   UNL     1       2.676   2.650  20.013  0.00  0.00    +0.000 A 
ATOM     30  C   UNL     1       3.695   2.351  19.091  0.00  0.00    +0.000 A 
ATOM     31  H   UNL     1      -0.213   3.884  20.620  0.00  0.00    +0.000 HD
ENDBRANCH  21  22
ENDBRANCH  20  21
ENDBRANCH  18  20
ENDBRANCH   1  18
TORSDOF 8
ENDMDL
MODEL 3
REMARK VINA RESULT:      -7.6      2.972      5.049
REMARK  Name = 
REMARK  8 active torsions:
REMARK  status: ('A' for Active; 'I' for Inactive)
REMARK    1  A    between atoms: C_2  and  C_3
REMARK    2  A    between atoms: C_4  and  C_5
REMARK    3  A    between atoms: C_8  and  S_9
REMARK    4  A    between atoms: S_9  and  N_12
REMARK    5  A    between atoms: N_12  and  C_13
REMARK    6  A    between atoms: C_13  and  C_14
REMARK    7  A    between atoms: C_14  and  C_15
REMARK    8  A    between atoms: N_26  and  O_27
REMARK                            x       y       z     vdW  Elec       q    Type
REMARK                         _______ _______ _______ _____ _____    ______ ____
ROOT
ATOM      1  S   UNL     1       1.647   2.936  20.396  0.00  0.00    +0.000 S 
ATOM      2  O   UNL     1       1.070   2.980  21.721  0.00  0.00    +0.000 OA
ATOM      3  O   UNL     1       1.059   2.147  19.336  0.00  0.00    +0.000 OA
ENDROOT
BRANCH   1   7
ATOM      4  C   UNL     1       1.997   7.275  18.972  0.00  0.00    +0.000 A 
ATOM      5  C   UNL     1       1.767   6.990  20.324  0.00  0.00    +0.000 A 
ATOM      6  C   UNL     1       1.693   5.666  20.761  0.00  0.00    +0.000 A 
ATOM      7  C   UNL     1       1.815   4.619  19.840  0.00  0.00    +0.000 A 
ATOM      8  C   UNL     1       2.060   4.890  18.491  0.00  0.00    +0.000 A 
ATOM      9  C   UNL     1       2.158   6.221  18.063  0.00  0.00    +0.000 A 
BRANCH   4  11
ATOM     10  C   UNL     1       1.173   9.578  18.932  0.00  0.00    +0.000 C 
ATOM     11  C   UNL     1       2.076   8.671  18.535  0.00  0.00    +0.000 C 
BRANCH  10  13
ATOM     12  O   UNL     1       0.348  11.801  18.607  0.00  0.00    +0.000 OA
ATOM     13  C   UNL     1       1.233  10.976  18.432  0.00  0.00    +0.000 C 
ATOM     14  N   UNL     1       2.395  11.252  17.761  0.00  0.00    +0.000 N 
ATOM     15  H   UNL     1       3.161  10.605  17.616  0.00  0.00    +0.000 HD
BRANCH  14  16
ATOM     16  O   UNL     1       2.570  12.565  17.279  0.00  0.00    +0.000 OA
ATOM     17  H   UNL     1       2.594  13.095  18.105  0.00  0.00    +0.000 HD
ENDBRANCH  14  16
ENDBRANCH  10  13
ENDBRANCH   4  11
ENDBRANCH   1   7
BRANCH   1  18
ATOM     18  N   UNL     1       3.244   2.423  20.595  0.00  0.00    +0.000 NA
ATOM     19  H   UNL     1       3.263   1.509  21.052  0.00  0.00    +0.000 HD
BRANCH  18  20
ATOM     20  C   UNL     1       4.204   2.600  19.486  0.00  0.00    +0.000 C 
BRANCH  20  21
ATOM     21  C   UNL     1       5.113   3.806  19.695  0.00  0.00    +0.000 C 
BRANCH  21  22
ATOM     22  C   UNL     1       5.755   4.285  18.423  0.00  0.00    +0.000 A 
ATOM     23  C   UNL     1       6.830   5.182  18.487  0.00  0.00    +0.000 A 
ATOM     24  C   UNL     1       7.478   5.621  17.331  0.00  0.00    +0.000 A 
ATOM     25  C   UNL     1       7.010   5.131  16.109  0.00  0.00    +0.000 A 
ATOM     26  N   UNL     1       7.456   5.371  14.830  0.00  0.00    +0.000 N 
ATOM     27  C   UNL     1       6.702   4.669  13.926  0.00  0.00    +0.000 A 
ATOM     28  C   UNL     1       5.752   3.965  14.629  0.00  0.00    +0.000 A 
ATOM     29  C   UNL     1       5.937   4.247  16.009  0.00  0.00    +0.000 A 
ATOM     30  C   UNL     1       5.292   3.820  17.184  0.00  0.00    +0.000 A 
ATOM     31  H   UNL     1       8.235   5.971  14.602  0.00  0.00    +0.000 HD
ENDBRANCH  21  22
ENDBRANCH  20  21
ENDBRANCH  18  20
ENDBRANCH   1  18
TORSDOF 8
ENDMDL
MODEL 4
REMARK VINA RESULT:      -7.6      2.970      4.868
REMARK  Name = 
REMARK  8 active torsions:
REMARK  status: ('A' for Active; 'I' for Inactive)
REMARK    1  A    between atoms: C_2  and  C_3
REMARK    2  A    between atoms: C_4  and  C_5
REMARK    3  A    between atoms: C_8  and  S_9
REMARK    4  A    between atoms: S_9  and  N_12
REMARK    5  A    between atoms: N_12  and  C_13
REMARK    6  A    between atoms: C_13  and  C_14
REMARK    7  A    between atoms: C_14  and  C_15
REMARK    8  A    between atoms: N_26  and  O_27
REMARK                            x       y       z     vdW  Elec       q    Type
REMARK                         _______ _______ _______ _____ _____    ______ ____
ROOT
ATOM      1  S   UNL     1       1.593   2.717  19.634  0.00  0.00    +0.000 S 
ATOM      2  O   UNL     1       1.038   2.633  20.966  0.00  0.00    +0.000 OA
ATOM      3  O   UNL     1       0.965   2.069  18.505  0.00  0.00    +0.000 OA
ENDROOT
BRANCH   1   7
ATOM      4  C   UNL     1       2.081   7.178  18.719  0.00  0.00    +0.000 A 
ATOM      5  C   UNL     1       2.300   6.693  20.014  0.00  0.00    +0.000 A 
ATOM      6  C   UNL     1       2.182   5.328  20.285  0.00  0.00    +0.000 A 
ATOM      7  C   UNL     1       1.811   4.445  19.264  0.00  0.00    +0.000 A 
ATOM      8  C   UNL     1       1.605   4.914  17.964  0.00  0.00    +0.000 A 
ATOM      9  C   UNL     1       1.749   6.282  17.694  0.00  0.00    +0.000 A 
BRANCH   4  11
ATOM     10  C   UNL     1       1.267   9.482  18.839  0.00  0.00    +0.000 C 
ATOM     11  C   UNL     1       2.214   8.613  18.456  0.00  0.00    +0.000 C 
BRANCH  10  13
ATOM     12  O   UNL     1       0.645  11.790  18.953  0.00  0.00    +0.000 OA
ATOM     13  C   UNL     1       1.389  10.926  18.512  0.00  0.00    +0.000 C 
ATOM     14  N   UNL     1       2.436  11.195  17.669  0.00  0.00    +0.000 N 
ATOM     15  H   UNL     1       3.087  10.513  17.301  0.00  0.00    +0.000 HD
BRANCH  14  16
ATOM     16  O   UNL     1       2.664  12.544  17.327  0.00  0.00    +0.000 OA
ATOM     17  H   UNL     1       2.043  13.022  17.918  0.00  0.00    +0.000 HD
ENDBRANCH  14  16
ENDBRANCH  10  13
ENDBRANCH   4  11
ENDBRANCH   1   7
BRANCH   1  18
ATOM     18  N   UNL     1       3.175   2.133  19.748  0.00  0.00    +0.000 NA
ATOM     19  H   UNL     1       3.235   1.203  19.331  0.00  0.00    +0.000 HD
BRANCH  18  20
ATOM     20  C   UNL     1       4.303   3.039  19.448  0.00  0.00    +0.000 C 
BRANCH  20  21
ATOM     21  C   UNL     1       4.492   3.252  17.951  0.00  0.00    +0.000 C 
BRANCH  21  22
ATOM     22  C   UNL     1       5.243   4.514  17.627  0.00  0.00    +0.000 A 
ATOM     23  C   UNL     1       4.870   5.273  16.509  0.00  0.00    +0.000 A 
ATOM     24  C   UNL     1       5.516   6.470  16.196  0.00  0.00    +0.000 A 
ATOM     25  C   UNL     1       6.551   6.878  17.041  0.00  0.00    +0.000 A 
ATOM     26  N   UNL     1       7.343   8.002  16.992  0.00  0.00    +0.000 N 
ATOM     27  C   UNL     1       8.231   8.002  18.035  0.00  0.00    +0.000 A 
ATOM     28  C   UNL     1       8.016   6.860  18.770  0.00  0.00    +0.000 A 
ATOM     29  C   UNL     1       6.955   6.142  18.154  0.00  0.00    +0.000 A 
ATOM     30  C   UNL     1       6.296   4.936  18.450  0.00  0.00    +0.000 A 
ATOM     31  H   UNL     1       7.264   8.724  16.290  0.00  0.00    +0.000 HD
ENDBRANCH  21  22
ENDBRANCH  20  21
ENDBRANCH  18  20
ENDBRANCH   1  18
TORSDOF 8
ENDMDL
MODEL 5
REMARK VINA RESULT:      -7.4      3.420      7.449
REMARK  Name = 
REMARK  8 active torsions:
REMARK  status: ('A' for Active; 'I' for Inactive)
REMARK    1  A    between atoms: C_2  and  C_3
REMARK    2  A    between atoms: C_4  and  C_5
REMARK    3  A    between atoms: C_8  and  S_9
REMARK    4  A    between atoms: S_9  and  N_12
REMARK    5  A    between atoms: N_12  and  C_13
REMARK    6  A    between atoms: C_13  and  C_14
REMARK    7  A    between atoms: C_14  and  C_15
REMARK    8  A    between atoms: N_26  and  O_27
REMARK                            x       y       z     vdW  Elec       q    Type
REMARK                         _______ _______ _______ _____ _____    ______ ____
ROOT
ATOM      1  S   UNL     1       1.863   3.415  20.554  0.00  0.00    +0.000 S 
ATOM      2  O   UNL     1       0.845   2.576  19.962  0.00  0.00    +0.000 OA
ATOM      3  O   UNL     1       2.531   3.050  21.783  0.00  0.00    +0.000 OA
ENDROOT
BRANCH   1   7
ATOM      4  C   UNL     1       5.008   4.120  17.300  0.00  0.00    +0.000 A 
ATOM      5  C   UNL     1       3.658   3.975  16.959  0.00  0.00    +0.000 A 
ATOM      6  C   UNL     1       2.696   3.793  17.955  0.00  0.00    +0.000 A 
ATOM      7  C   UNL     1       3.087   3.720  19.297  0.00  0.00    +0.000 A 
ATOM      8  C   UNL     1       4.430   3.879  19.651  0.00  0.00    +0.000 A 
ATOM      9  C   UNL     1       5.387   4.086  18.649  0.00  0.00    +0.000 A 
BRANCH   4  11
ATOM     10  C   UNL     1       5.642   4.359  14.949  0.00  0.00    +0.000 C 
ATOM     11  C   UNL     1       6.000   4.315  16.240  0.00  0.00    +0.000 C 
BRANCH  10  13
ATOM     12  O   UNL     1       6.663   3.854  12.844  0.00  0.00    +0.000 OA
ATOM     13  C   UNL     1       6.667   4.498  13.883  0.00  0.00    +0.000 C 
ATOM     14  N   UNL     1       7.619   5.439  14.179  0.00  0.00    +0.000 N 
ATOM     15  H   UNL     1       7.645   6.009  15.015  0.00  0.00    +0.000 HD
BRANCH  14  16
ATOM     16  O   UNL     1       8.618   5.677  13.213  0.00  0.00    +0.000 OA
ATOM     17  H   UNL     1       9.445   5.534  13.722  0.00  0.00    +0.000 HD
ENDBRANCH  14  16
ENDBRANCH  10  13
ENDBRANCH   4  11
ENDBRANCH   1   7
BRANCH   1  18
ATOM     18  N   UNL     1       1.147   4.928  20.786  0.00  0.00    +0.000 NA
ATOM     19  H   UNL     1       0.739   4.981  21.720  0.00  0.00    +0.000 HD
BRANCH  18  20
ATOM     20  C   UNL     1       1.858   6.141  20.332  0.00  0.00    +0.000 C 
BRANCH  20  21
ATOM     21  C   UNL     1       1.467   7.375  21.136  0.00  0.00    +0.000 C 
BRANCH  21  22
ATOM     22  C   UNL     1       1.100   8.548  20.270  0.00  0.00    +0.000 A 
ATOM     23  C   UNL     1       1.696   8.689  19.008  0.00  0.00    +0.000 A 
ATOM     24  C   UNL     1       1.354   9.741  18.158  0.00  0.00    +0.000 A 
ATOM     25  C   UNL     1       0.397  10.650  18.617  0.00  0.00    +0.000 A 
ATOM     26  N   UNL     1      -0.139  11.758  18.001  0.00  0.00    +0.000 N 
ATOM     27  C   UNL     1      -1.059  12.356  18.820  0.00  0.00    +0.000 A 
ATOM     28  C   UNL     1      -1.119  11.629  19.986  0.00  0.00    +0.000 A 
ATOM     29  C   UNL     1      -0.206  10.547  19.869  0.00  0.00    +0.000 A 
ATOM     30  C   UNL     1       0.155   9.483  20.715  0.00  0.00    +0.000 A 
ATOM     31  H   UNL     1       0.109  12.069  17.073  0.00  0.00    +0.000 HD
ENDBRANCH  21  22
ENDBRANCH  20  21
ENDBRANCH  18  20
ENDBRANCH   1  18
TORSDOF 8
ENDMDL
MODEL 6
REMARK VINA RESULT:      -7.4      2.929      4.966
REMARK  Name = 
REMARK  8 active torsions:
REMARK  status: ('A' for Active; 'I' for Inactive)
REMARK    1  A    between atoms: C_2  and  C_3
REMARK    2  A    between atoms: C_4  and  C_5
REMARK    3  A    between atoms: C_8  and  S_9
REMARK    4  A    between atoms: S_9  and  N_12
REMARK    5  A    between atoms: N_12  and  C_13
REMARK    6  A    between atoms: C_13  and  C_14
REMARK    7  A    between atoms: C_14  and  C_15
REMARK    8  A    between atoms: N_26  and  O_27
REMARK                            x       y       z     vdW  Elec       q    Type
REMARK                         _______ _______ _______ _____ _____    ______ ____
ROOT
ATOM      1  S   UNL     1       1.639   2.667  18.413  0.00  0.00    +0.000 S 
ATOM      2  O   UNL     1       0.323   2.145  18.703  0.00  0.00    +0.000 OA
ATOM      3  O   UNL     1       2.207   2.607  17.085  0.00  0.00    +0.000 OA
ENDROOT
BRANCH   1   7
ATOM      4  C   UNL     1       1.801   7.005  19.877  0.00  0.00    +0.000 A 
ATOM      5  C   UNL     1       2.145   6.690  18.557  0.00  0.00    +0.000 A 
ATOM      6  C   UNL     1       2.064   5.372  18.103  0.00  0.00    +0.000 A 
ATOM      7  C   UNL     1       1.670   4.355  18.981  0.00  0.00    +0.000 A 
ATOM      8  C   UNL     1       1.309   4.659  20.296  0.00  0.00    +0.000 A 
ATOM      9  C   UNL     1       1.369   5.987  20.738  0.00  0.00    +0.000 A 
BRANCH   4  11
ATOM     10  C   UNL     1       0.813   9.194  20.341  0.00  0.00    +0.000 C 
ATOM     11  C   UNL     1       1.889   8.394  20.331  0.00  0.00    +0.000 C 
BRANCH  10  13
ATOM     12  O   UNL     1       0.974  10.992  21.912  0.00  0.00    +0.000 OA
ATOM     13  C   UNL     1       0.931  10.617  20.749  0.00  0.00    +0.000 C 
ATOM     14  N   UNL     1       1.001  11.473  19.681  0.00  0.00    +0.000 N 
ATOM     15  H   UNL     1       0.993  11.202  18.706  0.00  0.00    +0.000 HD
BRANCH  14  16
ATOM     16  O   UNL     1       1.155  12.847  19.959  0.00  0.00    +0.000 OA
ATOM     17  H   UNL     1       2.092  12.904  20.244  0.00  0.00    +0.000 HD
ENDBRANCH  14  16
ENDBRANCH  10  13
ENDBRANCH   4  11
ENDBRANCH   1   7
BRANCH   1  18
ATOM     18  N   UNL     1       2.700   1.876  19.463  0.00  0.00    +0.000 NA
ATOM     19  H   UNL     1       2.352   0.940  19.672  0.00  0.00    +0.000 HD
BRANCH  18  20
ATOM     20  C   UNL     1       4.157   1.976  19.230  0.00  0.00    +0.000 C 
BRANCH  20  21
ATOM     21  C   UNL     1       4.717   3.331  19.646  0.00  0.00    +0.000 C 
BRANCH  21  22
ATOM     22  C   UNL     1       5.435   4.037  18.530  0.00  0.00    +0.000 A 
ATOM     23  C   UNL     1       6.240   5.147  18.819  0.00  0.00    +0.000 A 
ATOM     24  C   UNL     1       6.954   5.806  17.817  0.00  0.00    +0.000 A 
ATOM     25  C   UNL     1       6.830   5.317  16.514  0.00  0.00    +0.000 A 
ATOM     26  N   UNL     1       7.417   5.747  15.347  0.00  0.00    +0.000 N 
ATOM     27  C   UNL     1       7.016   4.962  14.298  0.00  0.00    +0.000 A 
ATOM     28  C   UNL     1       6.153   4.011  14.790  0.00  0.00    +0.000 A 
ATOM     29  C   UNL     1       6.029   4.223  16.190  0.00  0.00    +0.000 A 
ATOM     30  C   UNL     1       5.313   3.574  17.212  0.00  0.00    +0.000 A 
ATOM     31  H   UNL     1       8.060   6.523  15.285  0.00  0.00    +0.000 HD
ENDBRANCH  21  22
ENDBRANCH  20  21
ENDBRANCH  18  20
ENDBRANCH   1  18
TORSDOF 8
ENDMDL
MODEL 7
REMARK VINA RESULT:      -7.4      3.284      7.577
REMARK  Name = 
REMARK  8 active torsions:
REMARK  status: ('A' for Active; 'I' for Inactive)
REMARK    1  A    between atoms: C_2  and  C_3
REMARK    2  A    between atoms: C_4  and  C_5
REMARK    3  A    between atoms: C_8  and  S_9
REMARK    4  A    between atoms: S_9  and  N_12
REMARK    5  A    between atoms: N_12  and  C_13
REMARK    6  A    between atoms: C_13  and  C_14
REMARK    7  A    between atoms: C_14  and  C_15
REMARK    8  A    between atoms: N_26  and  O_27
REMARK                            x       y       z     vdW  Elec       q    Type
REMARK                         _______ _______ _______ _____ _____    ______ ____
ROOT
ATOM      1  S   UNL     1       1.985   3.826  20.733  0.00  0.00    +0.000 S 
ATOM      2  O   UNL     1       0.650   3.712  20.193  0.00  0.00    +0.000 OA
ATOM      3  O   UNL     1       2.468   2.936  21.765  0.00  0.00    +0.000 OA
ENDROOT
BRANCH   1   7
ATOM      4  C   UNL     1       4.890   3.799  17.191  0.00  0.00    +0.000 A 
ATOM      5  C   UNL     1       5.351   4.080  18.483  0.00  0.00    +0.000 A 
ATOM      6  C   UNL     1       4.471   4.056  19.566  0.00  0.00    +0.000 A 
ATOM      7  C   UNL     1       3.114   3.783  19.356  0.00  0.00    +0.000 A 
ATOM      8  C   UNL     1       2.643   3.486  18.074  0.00  0.00    +0.000 A 
ATOM      9  C   UNL     1       3.537   3.487  16.995  0.00  0.00    +0.000 A 
BRANCH   4  11
ATOM     10  C   UNL     1       5.541   4.471  14.931  0.00  0.00    +0.000 C 
ATOM     11  C   UNL     1       5.831   3.824  16.069  0.00  0.00    +0.000 C 
BRANCH  10  13
ATOM     12  O   UNL     1       7.394   5.235  13.623  0.00  0.00    +0.000 OA
ATOM     13  C   UNL     1       6.480   4.438  13.781  0.00  0.00    +0.000 C 
ATOM     14  N   UNL     1       6.225   3.407  12.914  0.00  0.00    +0.000 N 
ATOM     15  H   UNL     1       5.496   2.713  13.021  0.00  0.00    +0.000 HD
BRANCH  14  16
ATOM     16  O   UNL     1       7.086   3.262  11.807  0.00  0.00    +0.000 OA
ATOM     17  H   UNL     1       7.856   3.816  12.061  0.00  0.00    +0.000 HD
ENDBRANCH  14  16
ENDBRANCH  10  13
ENDBRANCH   4  11
ENDBRANCH   1   7
BRANCH   1  18
ATOM     18  N   UNL     1       2.125   5.408  21.311  0.00  0.00    +0.000 NA
ATOM     19  H   UNL     1       2.956   5.493  21.898  0.00  0.00    +0.000 HD
BRANCH  18  20
ATOM     20  C   UNL     1       1.876   6.538  20.392  0.00  0.00    +0.000 C 
BRANCH  20  21
ATOM     21  C   UNL     1       1.562   7.830  21.137  0.00  0.00    +0.000 C 
BRANCH  21  22
ATOM     22  C   UNL     1       1.005   8.903  20.243  0.00  0.00    +0.000 A 
ATOM     23  C   UNL     1       1.512   9.052  18.945  0.00  0.00    +0.000 A 
ATOM     24  C   UNL     1       0.996  10.010  18.070  0.00  0.00    +0.000 A 
ATOM     25  C   UNL     1      -0.044  10.815  18.543  0.00  0.00    +0.000 A 
ATOM     26  N   UNL     1      -0.747  11.814  17.911  0.00  0.00    +0.000 N 
ATOM     27  C   UNL     1      -1.693  12.334  18.755  0.00  0.00    +0.000 A 
ATOM     28  C   UNL     1      -1.601  11.664  19.953  0.00  0.00    +0.000 A 
ATOM     29  C   UNL     1      -0.564  10.700  19.831  0.00  0.00    +0.000 A 
ATOM     30  C   UNL     1      -0.028   9.734  20.700  0.00  0.00    +0.000 A 
ATOM     31  H   UNL     1      -0.589  12.107  16.958  0.00  0.00    +0.000 HD
ENDBRANCH  21  22
ENDBRANCH  20  21
ENDBRANCH  18  20
ENDBRANCH   1  18
TORSDOF 8
ENDMDL
MODEL 8
REMARK VINA RESULT:      -7.3      2.943      4.789
REMARK  Name = 
REMARK  8 active torsions:
REMARK  status: ('A' for Active; 'I' for Inactive)
REMARK    1  A    between atoms: C_2  and  C_3
REMARK    2  A    between atoms: C_4  and  C_5
REMARK    3  A    between atoms: C_8  and  S_9
REMARK    4  A    between atoms: S_9  and  N_12
REMARK    5  A    between atoms: N_12  and  C_13
REMARK    6  A    between atoms: C_13  and  C_14
REMARK    7  A    between atoms: C_14  and  C_15
REMARK    8  A    between atoms: N_26  and  O_27
REMARK                            x       y       z     vdW  Elec       q    Type
REMARK                         _______ _______ _______ _____ _____    ______ ____
ROOT
ATOM      1  S   UNL     1       1.375   2.541  19.335  0.00  0.00    +0.000 S 
ATOM      2  O   UNL     1       1.460   2.113  20.713  0.00  0.00    +0.000 OA
ATOM      3  O   UNL     1       0.253   2.185  18.496  0.00  0.00    +0.000 OA
ENDROOT
BRANCH   1   7
ATOM      4  C   UNL     1       1.960   7.083  19.287  0.00  0.00    +0.000 A 
ATOM      5  C   UNL     1       1.971   6.355  18.091  0.00  0.00    +0.000 A 
ATOM      6  C   UNL     1       1.760   4.975  18.105  0.00  0.00    +0.000 A 
ATOM      7  C   UNL     1       1.571   4.311  19.322  0.00  0.00    +0.000 A 
ATOM      8  C   UNL     1       1.543   5.028  20.521  0.00  0.00    +0.000 A 
ATOM      9  C   UNL     1       1.730   6.416  20.498  0.00  0.00    +0.000 A 
BRANCH   4  11
ATOM     10  C   UNL     1       1.262   9.362  18.736  0.00  0.00    +0.000 C 
ATOM     11  C   UNL     1       2.179   8.531  19.251  0.00  0.00    +0.000 C 
BRANCH  10  13
ATOM     12  O   UNL     1       1.130  11.634  19.477  0.00  0.00    +0.000 OA
ATOM     13  C   UNL     1       1.524  10.822  18.652  0.00  0.00    +0.000 C 
ATOM     14  N   UNL     1       2.270  11.167  17.556  0.00  0.00    +0.000 N 
ATOM     15  H   UNL     1       2.635  10.523  16.864  0.00  0.00    +0.000 HD
BRANCH  14  16
ATOM     16  O   UNL     1       2.610  12.527  17.403  0.00  0.00    +0.000 OA
ATOM     17  H   UNL     1       3.504  12.570  17.806  0.00  0.00    +0.000 HD
ENDBRANCH  14  16
ENDBRANCH  10  13
ENDBRANCH   4  11
ENDBRANCH   1   7
BRANCH   1  18
ATOM     18  N   UNL     1       2.780   1.980  18.582  0.00  0.00    +0.000 NA
ATOM     19  H   UNL     1       2.908   2.453  17.686  0.00  0.00    +0.000 HD
BRANCH  18  20
ATOM     20  C   UNL     1       4.007   1.795  19.385  0.00  0.00    +0.000 C 
BRANCH  20  21
ATOM     21  C   UNL     1       4.624   3.121  19.813  0.00  0.00    +0.000 C 
BRANCH  21  22
ATOM     22  C   UNL     1       5.130   3.934  18.654  0.00  0.00    +0.000 A 
ATOM     23  C   UNL     1       5.488   5.274  18.853  0.00  0.00    +0.000 A 
ATOM     24  C   UNL     1       5.999   6.051  17.813  0.00  0.00    +0.000 A 
ATOM     25  C   UNL     1       6.135   5.440  16.564  0.00  0.00    +0.000 A 
ATOM     26  N   UNL     1       6.616   5.945  15.378  0.00  0.00    +0.000 N 
ATOM     27  C   UNL     1       6.577   4.984  14.403  0.00  0.00    +0.000 A 
ATOM     28  C   UNL     1       6.059   3.839  14.962  0.00  0.00    +0.000 A 
ATOM     29  C   UNL     1       5.778   4.113  16.328  0.00  0.00    +0.000 A 
ATOM     30  C   UNL     1       5.260   3.347  17.387  0.00  0.00    +0.000 A 
ATOM     31  H   UNL     1       6.958   6.888  15.258  0.00  0.00    +0.000 HD
ENDBRANCH  21  22
ENDBRANCH  20  21
ENDBRANCH  18  20
ENDBRANCH   1  18
TORSDOF 8
ENDMDL
MODEL 9
REMARK VINA RESULT:      -7.3      3.429      7.664
REMARK  Name = 
REMARK  8 active torsions:
REMARK  status: ('A' for Active; 'I' for Inactive)
REMARK    1  A    between atoms: C_2  and  C_3
REMARK    2  A    between atoms: C_4  and  C_5
REMARK    3  A    between atoms: C_8  and  S_9
REMARK    4  A    between atoms: S_9  and  N_12
REMARK    5  A    between atoms: N_12  and  C_13
REMARK    6  A    between atoms: C_13  and  C_14
REMARK    7  A    between atoms: C_14  and  C_15
REMARK    8  A    between atoms: N_26  and  O_27
REMARK                            x       y       z     vdW  Elec       q    Type
REMARK                         _______ _______ _______ _____ _____    ______ ____
ROOT
ATOM      1  S   UNL     1       2.195   3.897  20.396  0.00  0.00    +0.000 S 
ATOM      2  O   UNL     1       0.861   3.659  19.894  0.00  0.00    +0.000 OA
ATOM      3  O   UNL     1       2.892   2.917  21.198  0.00  0.00    +0.000 OA
ENDROOT
BRANCH   1   7
ATOM      4  C   UNL     1       4.855   4.948  16.818  0.00  0.00    +0.000 A 
ATOM      5  C   UNL     1       3.924   3.907  16.726  0.00  0.00    +0.000 A 
ATOM      6  C   UNL     1       3.091   3.609  17.806  0.00  0.00    +0.000 A 
ATOM      7  C   UNL     1       3.211   4.331  18.999  0.00  0.00    +0.000 A 
ATOM      8  C   UNL     1       4.126   5.383  19.099  0.00  0.00    +0.000 A 
ATOM      9  C   UNL     1       4.942   5.693  18.003  0.00  0.00    +0.000 A 
BRANCH   4  11
ATOM     10  C   UNL     1       6.047   4.300  14.783  0.00  0.00    +0.000 C 
ATOM     11  C   UNL     1       5.716   5.247  15.672  0.00  0.00    +0.000 C 
BRANCH  10  13
ATOM     12  O   UNL     1       6.876   4.109  12.546  0.00  0.00    +0.000 OA
ATOM     13  C   UNL     1       6.969   4.606  13.659  0.00  0.00    +0.000 C 
ATOM     14  N   UNL     1       7.934   5.519  13.995  0.00  0.00    +0.000 N 
ATOM     15  H   UNL     1       8.031   5.971  14.896  0.00  0.00    +0.000 HD
BRANCH  14  16
ATOM     16  O   UNL     1       8.839   5.909  12.986  0.00  0.00    +0.000 OA
ATOM     17  H   UNL     1       9.035   6.841  13.224  0.00  0.00    +0.000 HD
ENDBRANCH  14  16
ENDBRANCH  10  13
ENDBRANCH   4  11
ENDBRANCH   1   7
BRANCH   1  18
ATOM     18  N   UNL     1       2.114   5.329  21.288  0.00  0.00    +0.000 NA
ATOM     19  H   UNL     1       3.054   5.688  21.459  0.00  0.00    +0.000 HD
BRANCH  18  20
ATOM     20  C   UNL     1       1.099   6.344  20.936  0.00  0.00    +0.000 C 
BRANCH  20  21
ATOM     21  C   UNL     1       1.715   7.716  20.690  0.00  0.00    +0.000 C 
BRANCH  21  22
ATOM     22  C   UNL     1       0.812   8.847  21.098  0.00  0.00    +0.000 A 
ATOM     23  C   UNL     1       0.459   8.997  22.447  0.00  0.00    +0.000 A 
ATOM     24  C   UNL     1      -0.345  10.056  22.872  0.00  0.00    +0.000 A 
ATOM     25  C   UNL     1      -0.786  10.956  21.899  0.00  0.00    +0.000 A 
ATOM     26  N   UNL     1      -1.564  12.084  22.024  0.00  0.00    +0.000 N 
ATOM     27  C   UNL     1      -1.743  12.674  20.801  0.00  0.00    +0.000 A 
ATOM     28  C   UNL     1      -1.075  11.916  19.867  0.00  0.00    +0.000 A 
ATOM     29  C   UNL     1      -0.464  10.829  20.549  0.00  0.00    +0.000 A 
ATOM     30  C   UNL     1       0.343   9.754  20.138  0.00  0.00    +0.000 A 
ATOM     31  H   UNL     1      -1.935  12.426  22.899  0.00  0.00    +0.000 HD
ENDBRANCH  21  22
ENDBRANCH  20  21
ENDBRANCH  18  20
ENDBRANCH   1  18
TORSDOF 8
ENDMDL
