MODEL 1
REMARK VINA RESULT:      -7.4      0.000      0.000
REMARK  Name = 
REMARK  10 active torsions:
REMARK  status: ('A' for Active; 'I' for Inactive)
REMARK    1  A    between atoms: C_1  and  O_2
REMARK    2  A    between atoms: O_2  and  C_3
REMARK    3  A    between atoms: C_6  and  C_7
REMARK    4  A    between atoms: C_7  and  C_8
REMARK    5  A    between atoms: C_8  and  C_9
REMARK    6  A    between atoms: C_8  and  C_13
REMARK    7  A    between atoms: C_9  and  C_10
REMARK    8  A    between atoms: C_10  and  O_12
REMARK    9  A    between atoms: N_15  and  C_16
REMARK   10  A    between atoms: C_16  and  C_17
REMARK                            x       y       z     vdW  Elec       q    Type
REMARK                         _______ _______ _______ _____ _____    ______ ____
ROOT
ATOM      1  C   UNL     1       5.099   4.721  16.359  0.00  0.00    +0.000 C 
ENDROOT
BRANCH   1   2
ATOM      2  C   UNL     1       4.058   3.697  16.784  0.00  0.00    +0.000 C 
ATOM      3  O   UNL     1       2.914   3.727  16.337  0.00  0.00    +0.000 OA
ATOM      4  N   UNL     1       4.495   2.743  17.666  0.00  0.00    +0.000 N 
ATOM      5  H   UNL     1       5.495   2.611  17.808  0.00  0.00    +0.000 HD
BRANCH   4   6
ATOM      6  C   UNL     1       3.630   1.707  18.167  0.00  0.00    +0.000 C 
BRANCH   6   7
ATOM      7  C   UNL     1       2.800   2.230  19.308  0.00  0.00    +0.000 A 
ATOM      8  C   UNL     1       1.434   2.485  19.111  0.00  0.00    +0.000 A 
ATOM      9  C   UNL     1       0.643   2.959  20.155  0.00  0.00    +0.000 A 
ATOM     10  C   UNL     1       1.209   3.199  21.406  0.00  0.00    +0.000 A 
ATOM     11  C   UNL     1       2.570   2.974  21.609  0.00  0.00    +0.000 A 
ATOM     12  C   UNL     1       3.366   2.499  20.562  0.00  0.00    +0.000 A 
ENDBRANCH   6   7
ENDBRANCH   4   6
ENDBRANCH   1   2
BRANCH   1  13
ATOM     13  C   UNL     1       5.393   5.732  17.479  0.00  0.00    +0.000 C 
BRANCH  13  17
ATOM     14  C   UNL     1       2.071   7.864  19.287  0.00  0.00    +0.000 A 
ATOM     15  C   UNL     1       2.563   6.697  19.868  0.00  0.00    +0.000 A 
ATOM     16  C   UNL     1       3.612   5.989  19.265  0.00  0.00    +0.000 A 
ATOM     17  C   UNL     1       4.174   6.431  18.059  0.00  0.00    +0.000 A 
ATOM     18  C   UNL     1       3.617   7.561  17.442  0.00  0.00    +0.000 A 
ATOM     19  C   UNL     1       2.578   8.275  18.055  0.00  0.00    +0.000 A 
BRANCH  14  21
ATOM     20  C   UNL     1       1.137   8.365  21.397  0.00  0.00    +0.000 C 
ATOM     21  O   UNL     1       1.081   8.507  19.979  0.00  0.00    +0.000 OA
ENDBRANCH  14  21
ENDBRANCH  13  17
ENDBRANCH   1  13
BRANCH   1  22
ATOM     22  C   UNL     1       6.347   4.047  15.762  0.00  0.00    +0.000 C 
BRANCH  22  23
ATOM     23  C   UNL     1       6.697   4.367  14.324  0.00  0.00    +0.000 C 
ATOM     24  O   UNL     1       6.217   3.862  13.320  0.00  0.00    +0.000 OA
BRANCH  23  25
ATOM     25  O   UNL     1       7.629   5.328  14.246  0.00  0.00    +0.000 OA
ATOM     26  H   UNL     1       8.493   4.878  14.352  0.00  0.00    +0.000 HD
ENDBRANCH  23  25
ENDBRANCH  22  23
ENDBRANCH   1  22
TORSDOF 9
ENDMDL
MODEL 2
REMARK VINA RESULT:      -7.3      0.475      1.265
REMARK  Name = 
REMARK  10 active torsions:
REMARK  status: ('A' for Active; 'I' for Inactive)
REMARK    1  A    between atoms: C_1  and  O_2
REMARK    2  A    between atoms: O_2  and  C_3
REMARK    3  A    between atoms: C_6  and  C_7
REMARK    4  A    between atoms: C_7  and  C_8
REMARK    5  A    between atoms: C_8  and  C_9
REMARK    6  A    between atoms: C_8  and  C_13
REMARK    7  A    between atoms: C_9  and  C_10
REMARK    8  A    between atoms: C_10  and  O_12
REMARK    9  A    between atoms: N_15  and  C_16
REMARK   10  A    between atoms: C_16  and  C_17
REMARK                            x       y       z     vdW  Elec       q    Type
REMARK                         _______ _______ _______ _____ _____    ______ ____
ROOT
ATOM      1  C   UNL     1       5.207   4.875  16.515  0.00  0.00    +0.000 C 
ENDROOT
BRANCH   1   2
ATOM      2  C   UNL     1       4.143   3.842  16.854  0.00  0.00    +0.000 C 
ATOM      3  O   UNL     1       3.012   3.911  16.381  0.00  0.00    +0.000 OA
ATOM      4  N   UNL     1       4.547   2.834  17.691  0.00  0.00    +0.000 N 
ATOM      5  H   UNL     1       5.541   2.681  17.851  0.00  0.00    +0.000 HD
BRANCH   4   6
ATOM      6  C   UNL     1       3.658   1.782  18.111  0.00  0.00    +0.000 C 
BRANCH   6   7
ATOM      7  C   UNL     1       2.788   2.257  19.243  0.00  0.00    +0.000 A 
ATOM      8  C   UNL     1       3.350   2.449  20.514  0.00  0.00    +0.000 A 
ATOM      9  C   UNL     1       2.566   2.898  21.576  0.00  0.00    +0.000 A 
ATOM     10  C   UNL     1       1.208   3.147  21.384  0.00  0.00    +0.000 A 
ATOM     11  C   UNL     1       0.632   2.936  20.132  0.00  0.00    +0.000 A 
ATOM     12  C   UNL     1       1.416   2.485  19.066  0.00  0.00    +0.000 A 
ENDBRANCH   6   7
ENDBRANCH   4   6
ENDBRANCH   1   2
BRANCH   1  13
ATOM     13  C   UNL     1       5.412   5.879  17.661  0.00  0.00    +0.000 C 
BRANCH  13  17
ATOM     14  C   UNL     1       1.930   7.832  19.368  0.00  0.00    +0.000 A 
ATOM     15  C   UNL     1       2.457   6.685  19.958  0.00  0.00    +0.000 A 
ATOM     16  C   UNL     1       3.560   6.034  19.387  0.00  0.00    +0.000 A 
ATOM     17  C   UNL     1       4.141   6.513  18.204  0.00  0.00    +0.000 A 
ATOM     18  C   UNL     1       3.552   7.621  17.575  0.00  0.00    +0.000 A 
ATOM     19  C   UNL     1       2.459   8.278  18.157  0.00  0.00    +0.000 A 
BRANCH  14  21
ATOM     20  C   UNL     1       0.813   9.840  19.910  0.00  0.00    +0.000 C 
ATOM     21  O   UNL     1       0.887   8.421  20.030  0.00  0.00    +0.000 OA
ENDBRANCH  14  21
ENDBRANCH  13  17
ENDBRANCH   1  13
BRANCH   1  22
ATOM     22  C   UNL     1       6.499   4.213  16.006  0.00  0.00    +0.000 C 
BRANCH  22  23
ATOM     23  C   UNL     1       6.899   4.469  14.569  0.00  0.00    +0.000 C 
ATOM     24  O   UNL     1       7.656   5.337  14.158  0.00  0.00    +0.000 OA
BRANCH  23  25
ATOM     25  O   UNL     1       6.324   3.591  13.733  0.00  0.00    +0.000 OA
ATOM     26  H   UNL     1       6.878   2.783  13.765  0.00  0.00    +0.000 HD
ENDBRANCH  23  25
ENDBRANCH  22  23
ENDBRANCH   1  22
TORSDOF 9
ENDMDL
MODEL 3
REMARK VINA RESULT:      -7.1      2.442      5.771
REMARK  Name = 
REMARK  10 active torsions:
REMARK  status: ('A' for Active; 'I' for Inactive)
REMARK    1  A    between atoms: C_1  and  O_2
REMARK    2  A    between atoms: O_2  and  C_3
REMARK    3  A    between atoms: C_6  and  C_7
REMARK    4  A    between atoms: C_7  and  C_8
REMARK    5  A    between atoms: C_8  and  C_9
REMARK    6  A    between atoms: C_8  and  C_13
REMARK    7  A    between atoms: C_9  and  C_10
REMARK    8  A    between atoms: C_10  and  O_12
REMARK    9  A    between atoms: N_15  and  C_16
REMARK   10  A    between atoms: C_16  and  C_17
REMARK                            x       y       z     vdW  Elec       q    Type
REMARK                         _______ _______ _______ _____ _____    ______ ____
ROOT
ATOM      1  C   UNL     1       2.734   3.710  19.084  0.00  0.00    +0.000 C 
ENDROOT
BRANCH   1   2
ATOM      2  C   UNL     1       1.831   4.641  19.878  0.00  0.00    +0.000 C 
ATOM      3  O   UNL     1       0.719   4.283  20.256  0.00  0.00    +0.000 OA
ATOM      4  N   UNL     1       2.357   5.877  20.155  0.00  0.00    +0.000 N 
ATOM      5  H   UNL     1       3.357   6.034  20.042  0.00  0.00    +0.000 HD
BRANCH   4   6
ATOM      6  C   UNL     1       1.626   6.874  20.893  0.00  0.00    +0.000 C 
BRANCH   6   7
ATOM      7  C   UNL     1       1.499   8.134  20.079  0.00  0.00    +0.000 A 
ATOM      8  C   UNL     1       2.032   8.178  18.783  0.00  0.00    +0.000 A 
ATOM      9  C   UNL     1       1.917   9.329  18.006  0.00  0.00    +0.000 A 
ATOM     10  C   UNL     1       1.280  10.457  18.522  0.00  0.00    +0.000 A 
ATOM     11  C   UNL     1       0.769  10.436  19.819  0.00  0.00    +0.000 A 
ATOM     12  C   UNL     1       0.884   9.281  20.599  0.00  0.00    +0.000 A 
ENDBRANCH   6   7
ENDBRANCH   4   6
ENDBRANCH   1   2
BRANCH   1  13
ATOM     13  C   UNL     1       2.837   4.137  17.610  0.00  0.00    +0.000 C 
BRANCH  13  17
ATOM     14  C   UNL     1       6.570   6.191  16.776  0.00  0.00    +0.000 A 
ATOM     15  C   UNL     1       5.416   6.914  17.070  0.00  0.00    +0.000 A 
ATOM     16  C   UNL     1       4.202   6.252  17.305  0.00  0.00    +0.000 A 
ATOM     17  C   UNL     1       4.123   4.854  17.230  0.00  0.00    +0.000 A 
ATOM     18  C   UNL     1       5.272   4.142  16.854  0.00  0.00    +0.000 A 
ATOM     19  C   UNL     1       6.487   4.806  16.635  0.00  0.00    +0.000 A 
BRANCH  14  21
ATOM     20  C   UNL     1       7.898   7.981  17.554  0.00  0.00    +0.000 C 
ATOM     21  O   UNL     1       7.713   6.926  16.613  0.00  0.00    +0.000 OA
ENDBRANCH  14  21
ENDBRANCH  13  17
ENDBRANCH   1  13
BRANCH   1  22
ATOM     22  C   UNL     1       4.087   3.497  19.785  0.00  0.00    +0.000 C 
BRANCH  22  23
ATOM     23  C   UNL     1       4.592   2.077  19.917  0.00  0.00    +0.000 C 
ATOM     24  O   UNL     1       5.232   1.606  20.846  0.00  0.00    +0.000 OA
BRANCH  23  25
ATOM     25  O   UNL     1       4.238   1.327  18.862  0.00  0.00    +0.000 OA
ATOM     26  H   UNL     1       3.879   0.492  19.230  0.00  0.00    +0.000 HD
ENDBRANCH  23  25
ENDBRANCH  22  23
ENDBRANCH   1  22
TORSDOF 9
ENDMDL
MODEL 4
REMARK VINA RESULT:      -7.0      1.210      1.604
REMARK  Name = 
REMARK  10 active torsions:
REMARK  status: ('A' for Active; 'I' for Inactive)
REMARK    1  A    between atoms: C_1  and  O_2
REMARK    2  A    between atoms: O_2  and  C_3
REMARK    3  A    between atoms: C_6  and  C_7
REMARK    4  A    between atoms: C_7  and  C_8
REMARK    5  A    between atoms: C_8  and  C_9
REMARK    6  A    between atoms: C_8  and  C_13
REMARK    7  A    between atoms: C_9  and  C_10
REMARK    8  A    between atoms: C_10  and  O_12
REMARK    9  A    between atoms: N_15  and  C_16
REMARK   10  A    between atoms: C_16  and  C_17
REMARK                            x       y       z     vdW  Elec       q    Type
REMARK                         _______ _______ _______ _____ _____    ______ ____
ROOT
ATOM      1  C   UNL     1       4.560   5.215  16.369  0.00  0.00    +0.000 C 
ENDROOT
BRANCH   1   2
ATOM      2  C   UNL     1       4.324   3.994  17.245  0.00  0.00    +0.000 C 
ATOM      3  O   UNL     1       5.121   3.675  18.124  0.00  0.00    +0.000 OA
ATOM      4  N   UNL     1       3.163   3.307  16.999  0.00  0.00    +0.000 N 
ATOM      5  H   UNL     1       2.429   3.744  16.445  0.00  0.00    +0.000 HD
BRANCH   4   6
ATOM      6  C   UNL     1       2.798   2.127  17.738  0.00  0.00    +0.000 C 
BRANCH   6   7
ATOM      7  C   UNL     1       2.319   2.503  19.114  0.00  0.00    +0.000 A 
ATOM      8  C   UNL     1       3.099   2.172  20.233  0.00  0.00    +0.000 A 
ATOM      9  C   UNL     1       2.681   2.520  21.516  0.00  0.00    +0.000 A 
ATOM     10  C   UNL     1       1.472   3.188  21.700  0.00  0.00    +0.000 A 
ATOM     11  C   UNL     1       0.675   3.500  20.599  0.00  0.00    +0.000 A 
ATOM     12  C   UNL     1       1.092   3.153  19.311  0.00  0.00    +0.000 A 
ENDBRANCH   6   7
ENDBRANCH   4   6
ENDBRANCH   1   2
BRANCH   1  13
ATOM     13  C   UNL     1       4.837   6.473  17.209  0.00  0.00    +0.000 C 
BRANCH  13  17
ATOM     14  C   UNL     1       1.638   8.062  19.677  0.00  0.00    +0.000 A 
ATOM     15  C   UNL     1       2.282   6.879  20.031  0.00  0.00    +0.000 A 
ATOM     16  C   UNL     1       3.292   6.347  19.216  0.00  0.00    +0.000 A 
ATOM     17  C   UNL     1       3.658   6.984  18.022  0.00  0.00    +0.000 A 
ATOM     18  C   UNL     1       2.947   8.130  17.635  0.00  0.00    +0.000 A 
ATOM     19  C   UNL     1       1.949   8.668  18.460  0.00  0.00    +0.000 A 
BRANCH  14  21
ATOM     20  C   UNL     1       1.199   8.832  21.866  0.00  0.00    +0.000 C 
ATOM     21  O   UNL     1       0.704   8.525  20.564  0.00  0.00    +0.000 OA
ENDBRANCH  14  21
ENDBRANCH  13  17
ENDBRANCH   1  13
BRANCH   1  22
ATOM     22  C   UNL     1       5.603   4.935  15.274  0.00  0.00    +0.000 C 
BRANCH  22  23
ATOM     23  C   UNL     1       7.064   5.086  15.641  0.00  0.00    +0.000 C 
ATOM     24  O   UNL     1       7.770   6.068  15.464  0.00  0.00    +0.000 OA
BRANCH  23  25
ATOM     25  O   UNL     1       7.540   3.979  16.232  0.00  0.00    +0.000 OA
ATOM     26  H   UNL     1       7.812   3.379  15.507  0.00  0.00    +0.000 HD
ENDBRANCH  23  25
ENDBRANCH  22  23
ENDBRANCH   1  22
TORSDOF 9
ENDMDL
MODEL 5
REMARK VINA RESULT:      -7.0      2.838      6.236
REMARK  Name = 
REMARK  10 active torsions:
REMARK  status: ('A' for Active; 'I' for Inactive)
REMARK    1  A    between atoms: C_1  and  O_2
REMARK    2  A    between atoms: O_2  and  C_3
REMARK    3  A    between atoms: C_6  and  C_7
REMARK    4  A    between atoms: C_7  and  C_8
REMARK    5  A    between atoms: C_8  and  C_9
REMARK    6  A    between atoms: C_8  and  C_13
REMARK    7  A    between atoms: C_9  and  C_10
REMARK    8  A    between atoms: C_10  and  O_12
REMARK    9  A    between atoms: N_15  and  C_16
REMARK   10  A    between atoms: C_16  and  C_17
REMARK                            x       y       z     vdW  Elec       q    Type
REMARK                         _______ _______ _______ _____ _____    ______ ____
ROOT
ATOM      1  C   UNL     1       4.985   5.315  16.592  0.00  0.00    +0.000 C 
ENDROOT
BRANCH   1   2
ATOM      2  C   UNL     1       5.547   5.653  15.219  0.00  0.00    +0.000 C 
ATOM      3  O   UNL     1       5.328   6.739  14.690  0.00  0.00    +0.000 OA
ATOM      4  N   UNL     1       6.322   4.679  14.644  0.00  0.00    +0.000 N 
ATOM      5  H   UNL     1       6.675   3.914  15.216  0.00  0.00    +0.000 HD
BRANCH   4   6
ATOM      6  C   UNL     1       6.922   4.843  13.345  0.00  0.00    +0.000 C 
BRANCH   6   7
ATOM      7  C   UNL     1       6.575   3.675  12.461  0.00  0.00    +0.000 A 
ATOM      8  C   UNL     1       7.601   2.958  11.828  0.00  0.00    +0.000 A 
ATOM      9  C   UNL     1       7.305   1.867  11.013  0.00  0.00    +0.000 A 
ATOM     10  C   UNL     1       5.980   1.489  10.807  0.00  0.00    +0.000 A 
ATOM     11  C   UNL     1       4.949   2.210  11.410  0.00  0.00    +0.000 A 
ATOM     12  C   UNL     1       5.244   3.304  12.228  0.00  0.00    +0.000 A 
ENDBRANCH   6   7
ENDBRANCH   4   6
ENDBRANCH   1   2
BRANCH   1  13
ATOM     13  C   UNL     1       4.645   3.821  16.716  0.00  0.00    +0.000 C 
BRANCH  13  17
ATOM     14  C   UNL     1       1.687   3.054  19.800  0.00  0.00    +0.000 A 
ATOM     15  C   UNL     1       2.978   2.543  19.916  0.00  0.00    +0.000 A 
ATOM     16  C   UNL     1       3.923   2.761  18.903  0.00  0.00    +0.000 A 
ATOM     17  C   UNL     1       3.583   3.480  17.749  0.00  0.00    +0.000 A 
ATOM     18  C   UNL     1       2.258   3.920  17.606  0.00  0.00    +0.000 A 
ATOM     19  C   UNL     1       1.320   3.713  18.627  0.00  0.00    +0.000 A 
BRANCH  14  21
ATOM     20  C   UNL     1       1.510   2.563  22.103  0.00  0.00    +0.000 C 
ATOM     21  O   UNL     1       0.855   2.830  20.864  0.00  0.00    +0.000 OA
ENDBRANCH  14  21
ENDBRANCH  13  17
ENDBRANCH   1  13
BRANCH   1  22
ATOM     22  C   UNL     1       5.876   5.864  17.720  0.00  0.00    +0.000 C 
BRANCH  22  23
ATOM     23  C   UNL     1       7.070   5.033  18.138  0.00  0.00    +0.000 C 
ATOM     24  O   UNL     1       7.893   4.505  17.405  0.00  0.00    +0.000 OA
BRANCH  23  25
ATOM     25  O   UNL     1       7.159   4.934  19.474  0.00  0.00    +0.000 OA
ATOM     26  H   UNL     1       6.694   4.106  19.716  0.00  0.00    +0.000 HD
ENDBRANCH  23  25
ENDBRANCH  22  23
ENDBRANCH   1  22
TORSDOF 9
ENDMDL
MODEL 6
REMARK VINA RESULT:      -7.0      4.135      7.135
REMARK  Name = 
REMARK  10 active torsions:
REMARK  status: ('A' for Active; 'I' for Inactive)
REMARK    1  A    between atoms: C_1  and  O_2
REMARK    2  A    between atoms: O_2  and  C_3
REMARK    3  A    between atoms: C_6  and  C_7
REMARK    4  A    between atoms: C_7  and  C_8
REMARK    5  A    between atoms: C_8  and  C_9
REMARK    6  A    between atoms: C_8  and  C_13
REMARK    7  A    between atoms: C_9  and  C_10
REMARK    8  A    between atoms: C_10  and  O_12
REMARK    9  A    between atoms: N_15  and  C_16
REMARK   10  A    between atoms: C_16  and  C_17
REMARK                            x       y       z     vdW  Elec       q    Type
REMARK                         _______ _______ _______ _____ _____    ______ ____
ROOT
ATOM      1  C   UNL     1       0.942   9.989  19.599  0.00  0.00    +0.000 C 
ENDROOT
BRANCH   1   2
ATOM      2  C   UNL     1       1.650   8.960  18.730  0.00  0.00    +0.000 C 
ATOM      3  O   UNL     1       1.811   9.143  17.526  0.00  0.00    +0.000 OA
ATOM      4  N   UNL     1       2.106   7.846  19.388  0.00  0.00    +0.000 N 
ATOM      5  H   UNL     1       2.172   7.855  20.404  0.00  0.00    +0.000 HD
BRANCH   4   6
ATOM      6  C   UNL     1       2.791   6.779  18.707  0.00  0.00    +0.000 C 
BRANCH   6   7
ATOM      7  C   UNL     1       2.145   5.458  19.026  0.00  0.00    +0.000 A 
ATOM      8  C   UNL     1       1.803   5.158  20.353  0.00  0.00    +0.000 A 
ATOM      9  C   UNL     1       1.194   3.946  20.672  0.00  0.00    +0.000 A 
ATOM     10  C   UNL     1       0.933   3.012  19.670  0.00  0.00    +0.000 A 
ATOM     11  C   UNL     1       1.291   3.287  18.351  0.00  0.00    +0.000 A 
ATOM     12  C   UNL     1       1.902   4.503  18.030  0.00  0.00    +0.000 A 
ENDBRANCH   6   7
ENDBRANCH   4   6
ENDBRANCH   1   2
BRANCH   1  13
ATOM     13  C   UNL     1       0.325  11.117  18.756  0.00  0.00    +0.000 C 
BRANCH  13  17
ATOM     14  C   UNL     1      -3.887  10.883  17.731  0.00  0.00    +0.000 A 
ATOM     15  C   UNL     1      -3.450  11.747  18.732  0.00  0.00    +0.000 A 
ATOM     16  C   UNL     1      -2.095  11.798  19.087  0.00  0.00    +0.000 A 
ATOM     17  C   UNL     1      -1.158  10.967  18.456  0.00  0.00    +0.000 A 
ATOM     18  C   UNL     1      -1.621  10.044  17.507  0.00  0.00    +0.000 A 
ATOM     19  C   UNL     1      -2.975  10.007  17.143  0.00  0.00    +0.000 A 
BRANCH  14  21
ATOM     20  C   UNL     1      -6.106  10.829  18.535  0.00  0.00    +0.000 C 
ATOM     21  O   UNL     1      -5.219  10.946  17.424  0.00  0.00    +0.000 OA
ENDBRANCH  14  21
ENDBRANCH  13  17
ENDBRANCH   1  13
BRANCH   1  22
ATOM     22  C   UNL     1      -0.031   9.323  20.588  0.00  0.00    +0.000 C 
BRANCH  22  23
ATOM     23  C   UNL     1       0.318   9.380  22.060  0.00  0.00    +0.000 C 
ATOM     24  O   UNL     1       1.377   9.742  22.552  0.00  0.00    +0.000 OA
BRANCH  23  25
ATOM     25  O   UNL     1      -0.712   8.987  22.826  0.00  0.00    +0.000 OA
ATOM     26  H   UNL     1      -0.327   8.743  23.693  0.00  0.00    +0.000 HD
ENDBRANCH  23  25
ENDBRANCH  22  23
ENDBRANCH   1  22
TORSDOF 9
ENDMDL
MODEL 7
REMARK VINA RESULT:      -6.9      1.127      1.174
REMARK  Name = 
REMARK  10 active torsions:
REMARK  status: ('A' for Active; 'I' for Inactive)
REMARK    1  A    between atoms: C_1  and  O_2
REMARK    2  A    between atoms: O_2  and  C_3
REMARK    3  A    between atoms: C_6  and  C_7
REMARK    4  A    between atoms: C_7  and  C_8
REMARK    5  A    between atoms: C_8  and  C_9
REMARK    6  A    between atoms: C_8  and  C_13
REMARK    7  A    between atoms: C_9  and  C_10
REMARK    8  A    between atoms: C_10  and  O_12
REMARK    9  A    between atoms: N_15  and  C_16
REMARK   10  A    between atoms: C_16  and  C_17
REMARK                            x       y       z     vdW  Elec       q    Type
REMARK                         _______ _______ _______ _____ _____    ______ ____
ROOT
ATOM      1  C   UNL     1       4.757   5.533  16.293  0.00  0.00    +0.000 C 
ENDROOT
BRANCH   1   2
ATOM      2  C   UNL     1       4.768   4.308  17.194  0.00  0.00    +0.000 C 
ATOM      3  O   UNL     1       5.681   4.109  17.991  0.00  0.00    +0.000 OA
ATOM      4  N   UNL     1       3.687   3.474  17.067  0.00  0.00    +0.000 N 
ATOM      5  H   UNL     1       2.851   3.804  16.587  0.00  0.00    +0.000 HD
BRANCH   4   6
ATOM      6  C   UNL     1       3.550   2.270  17.845  0.00  0.00    +0.000 C 
BRANCH   6   7
ATOM      7  C   UNL     1       2.784   2.552  19.110  0.00  0.00    +0.000 A 
ATOM      8  C   UNL     1       1.427   2.899  19.034  0.00  0.00    +0.000 A 
ATOM      9  C   UNL     1       0.694   3.154  20.192  0.00  0.00    +0.000 A 
ATOM     10  C   UNL     1       1.313   3.081  21.439  0.00  0.00    +0.000 A 
ATOM     11  C   UNL     1       2.667   2.763  21.526  0.00  0.00    +0.000 A 
ATOM     12  C   UNL     1       3.404   2.507  20.366  0.00  0.00    +0.000 A 
ENDBRANCH   6   7
ENDBRANCH   4   6
ENDBRANCH   1   2
BRANCH   1  13
ATOM     13  C   UNL     1       4.862   6.836  17.103  0.00  0.00    +0.000 C 
BRANCH  13  17
ATOM     14  C   UNL     1       1.651   7.802  19.860  0.00  0.00    +0.000 A 
ATOM     15  C   UNL     1       2.394   6.635  20.022  0.00  0.00    +0.000 A 
ATOM     16  C   UNL     1       3.408   6.305  19.111  0.00  0.00    +0.000 A 
ATOM     17  C   UNL     1       3.681   7.132  18.012  0.00  0.00    +0.000 A 
ATOM     18  C   UNL     1       2.873   8.262  17.815  0.00  0.00    +0.000 A 
ATOM     19  C   UNL     1       1.870   8.597  18.735  0.00  0.00    +0.000 A 
BRANCH  14  21
ATOM     20  C   UNL     1       1.157   8.913  21.884  0.00  0.00    +0.000 C 
ATOM     21  O   UNL     1       0.719   8.059  20.829  0.00  0.00    +0.000 OA
ENDBRANCH  14  21
ENDBRANCH  13  17
ENDBRANCH   1  13
BRANCH   1  22
ATOM     22  C   UNL     1       5.780   5.406  15.150  0.00  0.00    +0.000 C 
BRANCH  22  23
ATOM     23  C   UNL     1       5.881   4.070  14.446  0.00  0.00    +0.000 C 
ATOM     24  O   UNL     1       5.614   3.832  13.277  0.00  0.00    +0.000 OA
BRANCH  23  25
ATOM     25  O   UNL     1       6.336   3.112  15.269  0.00  0.00    +0.000 OA
ATOM     26  H   UNL     1       5.989   2.265  14.917  0.00  0.00    +0.000 HD
ENDBRANCH  23  25
ENDBRANCH  22  23
ENDBRANCH   1  22
TORSDOF 9
ENDMDL
MODEL 8
REMARK VINA RESULT:      -6.9      2.141      6.157
REMARK  Name = 
REMARK  10 active torsions:
REMARK  status: ('A' for Active; 'I' for Inactive)
REMARK    1  A    between atoms: C_1  and  O_2
REMARK    2  A    between atoms: O_2  and  C_3
REMARK    3  A    between atoms: C_6  and  C_7
REMARK    4  A    between atoms: C_7  and  C_8
REMARK    5  A    between atoms: C_8  and  C_9
REMARK    6  A    between atoms: C_8  and  C_13
REMARK    7  A    between atoms: C_9  and  C_10
REMARK    8  A    between atoms: C_10  and  O_12
REMARK    9  A    between atoms: N_15  and  C_16
REMARK   10  A    between atoms: C_16  and  C_17
REMARK                            x       y       z     vdW  Elec       q    Type
REMARK                         _______ _______ _______ _____ _____    ______ ____
ROOT
ATOM      1  C   UNL     1       3.486   4.275  19.313  0.00  0.00    +0.000 C 
ENDROOT
BRANCH   1   2
ATOM      2  C   UNL     1       2.555   5.030  20.248  0.00  0.00    +0.000 C 
ATOM      3  O   UNL     1       1.857   4.440  21.068  0.00  0.00    +0.000 OA
ATOM      4  N   UNL     1       2.575   6.396  20.124  0.00  0.00    +0.000 N 
ATOM      5  H   UNL     1       3.338   6.843  19.619  0.00  0.00    +0.000 HD
BRANCH   4   6
ATOM      6  C   UNL     1       1.748   7.253  20.933  0.00  0.00    +0.000 C 
BRANCH   6   7
ATOM      7  C   UNL     1       1.285   8.438  20.130  0.00  0.00    +0.000 A 
ATOM      8  C   UNL     1       1.785   8.635  18.834  0.00  0.00    +0.000 A 
ATOM      9  C   UNL     1       1.363   9.719  18.068  0.00  0.00    +0.000 A 
ATOM     10  C   UNL     1       0.447  10.630  18.592  0.00  0.00    +0.000 A 
ATOM     11  C   UNL     1      -0.037  10.461  19.889  0.00  0.00    +0.000 A 
ATOM     12  C   UNL     1       0.385   9.374  20.659  0.00  0.00    +0.000 A 
ENDBRANCH   6   7
ENDBRANCH   4   6
ENDBRANCH   1   2
BRANCH   1  13
ATOM     13  C   UNL     1       4.890   4.901  19.280  0.00  0.00    +0.000 C 
BRANCH  13  17
ATOM     14  C   UNL     1       6.541   5.144  15.271  0.00  0.00    +0.000 A 
ATOM     15  C   UNL     1       7.311   4.658  16.325  0.00  0.00    +0.000 A 
ATOM     16  C   UNL     1       6.790   4.612  17.626  0.00  0.00    +0.000 A 
ATOM     17  C   UNL     1       5.493   5.071  17.894  0.00  0.00    +0.000 A 
ATOM     18  C   UNL     1       4.756   5.633  16.841  0.00  0.00    +0.000 A 
ATOM     19  C   UNL     1       5.274   5.663  15.539  0.00  0.00    +0.000 A 
BRANCH  14  21
ATOM     20  C   UNL     1       6.640   4.072  13.170  0.00  0.00    +0.000 C 
ATOM     21  O   UNL     1       7.122   5.100  14.033  0.00  0.00    +0.000 OA
ENDBRANCH  14  21
ENDBRANCH  13  17
ENDBRANCH   1  13
BRANCH   1  22
ATOM     22  C   UNL     1       3.467   2.762  19.593  0.00  0.00    +0.000 C 
BRANCH  22  23
ATOM     23  C   UNL     1       3.246   1.834  18.417  0.00  0.00    +0.000 C 
ATOM     24  O   UNL     1       2.505   2.018  17.463  0.00  0.00    +0.000 OA
BRANCH  23  25
ATOM     25  O   UNL     1       3.999   0.727  18.516  0.00  0.00    +0.000 OA
ATOM     26  H   UNL     1       3.802   0.194  17.717  0.00  0.00    +0.000 HD
ENDBRANCH  23  25
ENDBRANCH  22  23
ENDBRANCH   1  22
TORSDOF 9
ENDMDL
MODEL 9
REMARK VINA RESULT:      -6.9      1.304      1.421
REMARK  Name = 
REMARK  10 active torsions:
REMARK  status: ('A' for Active; 'I' for Inactive)
REMARK    1  A    between atoms: C_1  and  O_2
REMARK    2  A    between atoms: O_2  and  C_3
REMARK    3  A    between atoms: C_6  and  C_7
REMARK    4  A    between atoms: C_7  and  C_8
REMARK    5  A    between atoms: C_8  and  C_9
REMARK    6  A    between atoms: C_8  and  C_13
REMARK    7  A    between atoms: C_9  and  C_10
REMARK    8  A    between atoms: C_10  and  O_12
REMARK    9  A    between atoms: N_15  and  C_16
REMARK   10  A    between atoms: C_16  and  C_17
REMARK                            x       y       z     vdW  Elec       q    Type
REMARK                         _______ _______ _______ _____ _____    ______ ____
ROOT
ATOM      1  C   UNL     1       4.564   5.339  16.476  0.00  0.00    +0.000 C 
ENDROOT
BRANCH   1   2
ATOM      2  C   UNL     1       4.257   4.097  17.299  0.00  0.00    +0.000 C 
ATOM      3  O   UNL     1       5.029   3.701  18.168  0.00  0.00    +0.000 OA
ATOM      4  N   UNL     1       3.063   3.483  17.019  0.00  0.00    +0.000 N 
ATOM      5  H   UNL     1       2.357   3.982  16.480  0.00  0.00    +0.000 HD
BRANCH   4   6
ATOM      6  C   UNL     1       2.630   2.295  17.707  0.00  0.00    +0.000 C 
BRANCH   6   7
ATOM      7  C   UNL     1       2.264   2.623  19.130  0.00  0.00    +0.000 A 
ATOM      8  C   UNL     1       1.177   3.472  19.387  0.00  0.00    +0.000 A 
ATOM      9  C   UNL     1       0.813   3.781  20.696  0.00  0.00    +0.000 A 
ATOM     10  C   UNL     1       1.539   3.258  21.764  0.00  0.00    +0.000 A 
ATOM     11  C   UNL     1       2.637   2.433  21.522  0.00  0.00    +0.000 A 
ATOM     12  C   UNL     1       3.004   2.122  20.209  0.00  0.00    +0.000 A 
ENDBRANCH   6   7
ENDBRANCH   4   6
ENDBRANCH   1   2
BRANCH   1  13
ATOM     13  C   UNL     1       4.839   6.560  17.369  0.00  0.00    +0.000 C 
BRANCH  13  17
ATOM     14  C   UNL     1       1.505   8.423  19.432  0.00  0.00    +0.000 A 
ATOM     15  C   UNL     1       2.098   7.271  19.944  0.00  0.00    +0.000 A 
ATOM     16  C   UNL     1       3.152   6.649  19.259  0.00  0.00    +0.000 A 
ATOM     17  C   UNL     1       3.616   7.163  18.040  0.00  0.00    +0.000 A 
ATOM     18  C   UNL     1       2.958   8.276  17.494  0.00  0.00    +0.000 A 
ATOM     19  C   UNL     1       1.914   8.904  18.189  0.00  0.00    +0.000 A 
BRANCH  14  21
ATOM     20  C   UNL     1       0.558   8.640  21.584  0.00  0.00    +0.000 C 
ATOM     21  O   UNL     1       0.519   8.982  20.200  0.00  0.00    +0.000 OA
ENDBRANCH  14  21
ENDBRANCH  13  17
ENDBRANCH   1  13
BRANCH   1  22
ATOM     22  C   UNL     1       5.645   5.064  15.416  0.00  0.00    +0.000 C 
BRANCH  22  23
ATOM     23  C   UNL     1       7.092   5.184  15.844  0.00  0.00    +0.000 C 
ATOM     24  O   UNL     1       7.792   6.185  15.801  0.00  0.00    +0.000 OA
BRANCH  23  25
ATOM     25  O   UNL     1       7.563   4.021  16.319  0.00  0.00    +0.000 OA
ATOM     26  H   UNL     1       8.493   3.959  16.013  0.00  0.00    +0.000 HD
ENDBRANCH  23  25
ENDBRANCH  22  23
ENDBRANCH   1  22
TORSDOF 9
ENDMDL
