MODEL 1
REMARK VINA RESULT:      -8.0      0.000      0.000
REMARK  Name = 
REMARK  8 active torsions:
REMARK  status: ('A' for Active; 'I' for Inactive)
REMARK    1  A    between atoms: C_2  and  O_3
REMARK    2  A    between atoms: C_2  and  C_4
REMARK    3  A    between atoms: C_4  and  C_5
REMARK    4  A    between atoms: C_4  and  C_15
REMARK    5  A    between atoms: C_5  and  C_6
REMARK    6  A    between atoms: C_6  and  C_9
REMARK    7  A    between atoms: N_7  and  O_8
REMARK    8  A    between atoms: C_15  and  C_16
REMARK                            x       y       z     vdW  Elec       q    Type
REMARK                         _______ _______ _______ _____ _____    ______ ____
ROOT
ATOM      1  C   UNL     1       4.484   5.507  16.947  0.00  0.00    +0.000 C 
ENDROOT
BRANCH   1   3
ATOM      2  O   UNL     1       6.032   7.356  17.186  0.00  0.00    +0.000 OA
ATOM      3  C   UNL     1       5.285   6.704  16.471  0.00  0.00    +0.000 C 
BRANCH   3   4
ATOM      4  O   UNL     1       5.096   7.009  15.167  0.00  0.00    +0.000 OA
ATOM      5  H   UNL     1       4.181   6.837  14.875  0.00  0.00    +0.000 HD
ENDBRANCH   3   4
ENDBRANCH   1   3
BRANCH   1   6
ATOM      6  C   UNL     1       5.326   4.236  16.771  0.00  0.00    +0.000 C 
BRANCH   6   7
ATOM      7  C   UNL     1       6.765   4.364  16.257  0.00  0.00    +0.000 C 
ATOM      8  N   UNL     1       7.850   4.475  16.973  0.00  0.00    +0.000 NA
BRANCH   7   9
ATOM      9  C   UNL     1       6.916   4.407  14.760  0.00  0.00    +0.000 A 
ATOM     10  C   UNL     1       6.158   3.561  13.957  0.00  0.00    +0.000 A 
ATOM     11  C   UNL     1       6.288   3.667  12.575  0.00  0.00    +0.000 A 
ATOM     12  C   UNL     1       7.178   4.593  12.044  0.00  0.00    +0.000 A 
ATOM     13  C   UNL     1       7.915   5.374  12.919  0.00  0.00    +0.000 A 
ATOM     14  N   UNL     1       7.808   5.303  14.265  0.00  0.00    +0.000 NA
ENDBRANCH   7   9
BRANCH   8  15
ATOM     15  O   UNL     1       7.647   4.487  18.347  0.00  0.00    +0.000 OA
ATOM     16  H   UNL     1       8.392   5.041  18.652  0.00  0.00    +0.000 HD
ENDBRANCH   8  15
ENDBRANCH   6   7
ENDBRANCH   1   6
BRANCH   1  17
ATOM     17  C   UNL     1       4.110   5.684  18.430  0.00  0.00    +0.000 C 
BRANCH  17  18
ATOM     18  C   UNL     1       3.001   4.771  18.893  0.00  0.00    +0.000 A 
ATOM     19  C   UNL     1       2.841   4.459  20.248  0.00  0.00    +0.000 A 
ATOM     20  C   UNL     1       1.789   3.635  20.666  0.00  0.00    +0.000 A 
ATOM     21  C   UNL     1       0.900   3.109  19.729  0.00  0.00    +0.000 A 
ATOM     22  C   UNL     1       1.062   3.402  18.380  0.00  0.00    +0.000 A 
ATOM     23  C   UNL     1       2.107   4.225  17.961  0.00  0.00    +0.000 A 
ENDBRANCH  17  18
ENDBRANCH   1  17
TORSDOF 8
ENDMDL
MODEL 2
REMARK VINA RESULT:      -7.9      1.226      2.061
REMARK  Name = 
REMARK  8 active torsions:
REMARK  status: ('A' for Active; 'I' for Inactive)
REMARK    1  A    between atoms: C_2  and  O_3
REMARK    2  A    between atoms: C_2  and  C_4
REMARK    3  A    between atoms: C_4  and  C_5
REMARK    4  A    between atoms: C_4  and  C_15
REMARK    5  A    between atoms: C_5  and  C_6
REMARK    6  A    between atoms: C_6  and  C_9
REMARK    7  A    between atoms: N_7  and  O_8
REMARK    8  A    between atoms: C_15  and  C_16
REMARK                            x       y       z     vdW  Elec       q    Type
REMARK                         _______ _______ _______ _____ _____    ______ ____
ROOT
ATOM      1  C   UNL     1       4.425   5.448  17.745  0.00  0.00    +0.000 C 
ENDROOT
BRANCH   1   3
ATOM      2  O   UNL     1       6.092   4.073  18.841  0.00  0.00    +0.000 OA
ATOM      3  C   UNL     1       5.199   4.171  18.013  0.00  0.00    +0.000 C 
BRANCH   3   4
ATOM      4  O   UNL     1       4.824   3.128  17.237  0.00  0.00    +0.000 OA
ATOM      5  H   UNL     1       3.956   3.273  16.815  0.00  0.00    +0.000 HD
ENDBRANCH   3   4
ENDBRANCH   1   3
BRANCH   1   6
ATOM      6  C   UNL     1       4.921   6.071  16.433  0.00  0.00    +0.000 C 
BRANCH   6   7
ATOM      7  C   UNL     1       6.377   5.845  16.008  0.00  0.00    +0.000 C 
ATOM      8  N   UNL     1       7.451   6.224  16.645  0.00  0.00    +0.000 NA
BRANCH   7   9
ATOM      9  C   UNL     1       6.566   5.147  14.688  0.00  0.00    +0.000 A 
ATOM     10  C   UNL     1       5.638   4.203  14.259  0.00  0.00    +0.000 A 
ATOM     11  C   UNL     1       5.819   3.616  13.009  0.00  0.00    +0.000 A 
ATOM     12  C   UNL     1       6.923   3.973  12.244  0.00  0.00    +0.000 A 
ATOM     13  C   UNL     1       7.813   4.898  12.763  0.00  0.00    +0.000 A 
ATOM     14  N   UNL     1       7.663   5.493  13.968  0.00  0.00    +0.000 NA
ENDBRANCH   7   9
BRANCH   8  15
ATOM     15  O   UNL     1       7.217   6.914  17.828  0.00  0.00    +0.000 OA
ATOM     16  H   UNL     1       8.119   7.206  18.066  0.00  0.00    +0.000 HD
ENDBRANCH   8  15
ENDBRANCH   6   7
ENDBRANCH   1   6
BRANCH   1  17
ATOM     17  C   UNL     1       2.921   5.136  17.639  0.00  0.00    +0.000 C 
BRANCH  17  18
ATOM     18  C   UNL     1       2.349   4.471  18.868  0.00  0.00    +0.000 A 
ATOM     19  C   UNL     1       1.554   3.323  18.763  0.00  0.00    +0.000 A 
ATOM     20  C   UNL     1       1.055   2.699  19.913  0.00  0.00    +0.000 A 
ATOM     21  C   UNL     1       1.339   3.228  21.172  0.00  0.00    +0.000 A 
ATOM     22  C   UNL     1       2.114   4.376  21.283  0.00  0.00    +0.000 A 
ATOM     23  C   UNL     1       2.615   4.998  20.139  0.00  0.00    +0.000 A 
ENDBRANCH  17  18
ENDBRANCH   1  17
TORSDOF 8
ENDMDL
MODEL 3
REMARK VINA RESULT:      -7.8      1.470      1.911
REMARK  Name = 
REMARK  8 active torsions:
REMARK  status: ('A' for Active; 'I' for Inactive)
REMARK    1  A    between atoms: C_2  and  O_3
REMARK    2  A    between atoms: C_2  and  C_4
REMARK    3  A    between atoms: C_4  and  C_5
REMARK    4  A    between atoms: C_4  and  C_15
REMARK    5  A    between atoms: C_5  and  C_6
REMARK    6  A    between atoms: C_6  and  C_9
REMARK    7  A    between atoms: N_7  and  O_8
REMARK    8  A    between atoms: C_15  and  C_16
REMARK                            x       y       z     vdW  Elec       q    Type
REMARK                         _______ _______ _______ _____ _____    ______ ____
ROOT
ATOM      1  C   UNL     1       4.610   5.594  17.108  0.00  0.00    +0.000 C 
ENDROOT
BRANCH   1   3
ATOM      2  O   UNL     1       3.502   6.547  19.041  0.00  0.00    +0.000 OA
ATOM      3  C   UNL     1       4.447   5.922  18.580  0.00  0.00    +0.000 C 
BRANCH   3   4
ATOM      4  O   UNL     1       5.456   5.470  19.360  0.00  0.00    +0.000 OA
ATOM      5  H   UNL     1       6.297   5.929  19.179  0.00  0.00    +0.000 HD
ENDBRANCH   3   4
ENDBRANCH   1   3
BRANCH   1   6
ATOM      6  C   UNL     1       6.007   6.031  16.648  0.00  0.00    +0.000 C 
BRANCH   6   7
ATOM      7  C   UNL     1       7.000   4.963  16.173  0.00  0.00    +0.000 C 
ATOM      8  N   UNL     1       7.818   4.264  16.911  0.00  0.00    +0.000 NA
BRANCH   7   9
ATOM      9  C   UNL     1       7.052   4.743  14.685  0.00  0.00    +0.000 A 
ATOM     10  C   UNL     1       6.239   3.782  14.092  0.00  0.00    +0.000 A 
ATOM     11  C   UNL     1       6.277   3.643  12.707  0.00  0.00    +0.000 A 
ATOM     12  C   UNL     1       7.133   4.450  11.966  0.00  0.00    +0.000 A 
ATOM     13  C   UNL     1       7.929   5.360  12.642  0.00  0.00    +0.000 A 
ATOM     14  N   UNL     1       7.911   5.525  13.984  0.00  0.00    +0.000 NA
ENDBRANCH   7   9
BRANCH   8  15
ATOM     15  O   UNL     1       7.768   4.547  18.270  0.00  0.00    +0.000 OA
ATOM     16  H   UNL     1       7.372   5.441  18.270  0.00  0.00    +0.000 HD
ENDBRANCH   8  15
ENDBRANCH   6   7
ENDBRANCH   1   6
BRANCH   1  17
ATOM     17  C   UNL     1       4.437   4.081  16.887  0.00  0.00    +0.000 C 
BRANCH  17  18
ATOM     18  C   UNL     1       3.331   3.467  17.712  0.00  0.00    +0.000 A 
ATOM     19  C   UNL     1       2.001   3.877  17.556  0.00  0.00    +0.000 A 
ATOM     20  C   UNL     1       0.983   3.278  18.306  0.00  0.00    +0.000 A 
ATOM     21  C   UNL     1       1.291   2.273  19.223  0.00  0.00    +0.000 A 
ATOM     22  C   UNL     1       2.610   1.872  19.394  0.00  0.00    +0.000 A 
ATOM     23  C   UNL     1       3.626   2.465  18.646  0.00  0.00    +0.000 A 
ENDBRANCH  17  18
ENDBRANCH   1  17
TORSDOF 8
ENDMDL
MODEL 4
REMARK VINA RESULT:      -7.7      1.534      1.948
REMARK  Name = 
REMARK  8 active torsions:
REMARK  status: ('A' for Active; 'I' for Inactive)
REMARK    1  A    between atoms: C_2  and  O_3
REMARK    2  A    between atoms: C_2  and  C_4
REMARK    3  A    between atoms: C_4  and  C_5
REMARK    4  A    between atoms: C_4  and  C_15
REMARK    5  A    between atoms: C_5  and  C_6
REMARK    6  A    between atoms: C_6  and  C_9
REMARK    7  A    between atoms: N_7  and  O_8
REMARK    8  A    between atoms: C_15  and  C_16
REMARK                            x       y       z     vdW  Elec       q    Type
REMARK                         _______ _______ _______ _____ _____    ______ ____
ROOT
ATOM      1  C   UNL     1       4.929   5.403  17.730  0.00  0.00    +0.000 C 
ENDROOT
BRANCH   1   3
ATOM      2  O   UNL     1       5.997   5.427  19.905  0.00  0.00    +0.000 OA
ATOM      3  C   UNL     1       5.574   4.783  18.956  0.00  0.00    +0.000 C 
BRANCH   3   4
ATOM      4  O   UNL     1       5.658   3.434  18.910  0.00  0.00    +0.000 OA
ATOM      5  H   UNL     1       5.961   3.053  19.756  0.00  0.00    +0.000 HD
ENDBRANCH   3   4
ENDBRANCH   1   3
BRANCH   1   6
ATOM      6  C   UNL     1       6.028   5.912  16.787  0.00  0.00    +0.000 C 
BRANCH   6   7
ATOM      7  C   UNL     1       7.058   4.915  16.242  0.00  0.00    +0.000 C 
ATOM      8  N   UNL     1       7.996   4.306  16.914  0.00  0.00    +0.000 NA
BRANCH   7   9
ATOM      9  C   UNL     1       6.991   4.659  14.761  0.00  0.00    +0.000 A 
ATOM     10  C   UNL     1       6.085   3.733  14.253  0.00  0.00    +0.000 A 
ATOM     11  C   UNL     1       6.015   3.560  12.874  0.00  0.00    +0.000 A 
ATOM     12  C   UNL     1       6.860   4.298  12.053  0.00  0.00    +0.000 A 
ATOM     13  C   UNL     1       7.752   5.176  12.645  0.00  0.00    +0.000 A 
ATOM     14  N   UNL     1       7.840   5.373  13.980  0.00  0.00    +0.000 NA
ENDBRANCH   7   9
BRANCH   8  15
ATOM     15  O   UNL     1       8.049   4.623  18.265  0.00  0.00    +0.000 OA
ATOM     16  H   UNL     1       8.771   5.282  18.285  0.00  0.00    +0.000 HD
ENDBRANCH   8  15
ENDBRANCH   6   7
ENDBRANCH   1   6
BRANCH   1  17
ATOM     17  C   UNL     1       4.065   4.354  17.007  0.00  0.00    +0.000 C 
BRANCH  17  18
ATOM     18  C   UNL     1       2.913   3.837  17.836  0.00  0.00    +0.000 A 
ATOM     19  C   UNL     1       2.511   2.498  17.757  0.00  0.00    +0.000 A 
ATOM     20  C   UNL     1       1.462   2.026  18.554  0.00  0.00    +0.000 A 
ATOM     21  C   UNL     1       0.802   2.894  19.424  0.00  0.00    +0.000 A 
ATOM     22  C   UNL     1       1.185   4.227  19.496  0.00  0.00    +0.000 A 
ATOM     23  C   UNL     1       2.232   4.700  18.705  0.00  0.00    +0.000 A 
ENDBRANCH  17  18
ENDBRANCH   1  17
TORSDOF 8
ENDMDL
MODEL 5
REMARK VINA RESULT:      -7.7      0.685      1.652
REMARK  Name = 
REMARK  8 active torsions:
REMARK  status: ('A' for Active; 'I' for Inactive)
REMARK    1  A    between atoms: C_2  and  O_3
REMARK    2  A    between atoms: C_2  and  C_4
REMARK    3  A    between atoms: C_4  and  C_5
REMARK    4  A    between atoms: C_4  and  C_15
REMARK    5  A    between atoms: C_5  and  C_6
REMARK    6  A    between atoms: C_6  and  C_9
REMARK    7  A    between atoms: N_7  and  O_8
REMARK    8  A    between atoms: C_15  and  C_16
REMARK                            x       y       z     vdW  Elec       q    Type
REMARK                         _______ _______ _______ _____ _____    ______ ____
ROOT
ATOM      1  C   UNL     1       4.437   5.350  16.917  0.00  0.00    +0.000 C 
ENDROOT
BRANCH   1   3
ATOM      2  O   UNL     1       4.976   7.102  15.331  0.00  0.00    +0.000 OA
ATOM      3  C   UNL     1       5.173   6.580  16.419  0.00  0.00    +0.000 C 
BRANCH   3   4
ATOM      4  O   UNL     1       6.095   7.057  17.285  0.00  0.00    +0.000 OA
ATOM      5  H   UNL     1       5.955   8.000  17.493  0.00  0.00    +0.000 HD
ENDBRANCH   3   4
ENDBRANCH   1   3
BRANCH   1   6
ATOM      6  C   UNL     1       5.240   4.097  16.541  0.00  0.00    +0.000 C 
BRANCH   6   7
ATOM      7  C   UNL     1       6.670   4.263  16.012  0.00  0.00    +0.000 C 
ATOM      8  N   UNL     1       7.761   4.389  16.717  0.00  0.00    +0.000 NA
BRANCH   7   9
ATOM      9  C   UNL     1       6.804   4.327  14.515  0.00  0.00    +0.000 A 
ATOM     10  C   UNL     1       7.670   5.245  13.929  0.00  0.00    +0.000 A 
ATOM     11  C   UNL     1       7.805   5.240  12.544  0.00  0.00    +0.000 A 
ATOM     12  C   UNL     1       7.063   4.337  11.792  0.00  0.00    +0.000 A 
ATOM     13  C   UNL     1       6.202   3.478  12.456  0.00  0.00    +0.000 A 
ATOM     14  N   UNL     1       6.052   3.452  13.799  0.00  0.00    +0.000 NA
ENDBRANCH   7   9
BRANCH   8  15
ATOM     15  O   UNL     1       7.572   4.380  18.094  0.00  0.00    +0.000 OA
ATOM     16  H   UNL     1       7.956   5.242  18.351  0.00  0.00    +0.000 HD
ENDBRANCH   8  15
ENDBRANCH   6   7
ENDBRANCH   1   6
BRANCH   1  17
ATOM     17  C   UNL     1       4.270   5.424  18.445  0.00  0.00    +0.000 C 
BRANCH  17  18
ATOM     18  C   UNL     1       3.040   4.715  18.959  0.00  0.00    +0.000 A 
ATOM     19  C   UNL     1       2.224   3.970  18.099  0.00  0.00    +0.000 A 
ATOM     20  C   UNL     1       1.103   3.293  18.595  0.00  0.00    +0.000 A 
ATOM     21  C   UNL     1       0.787   3.368  19.952  0.00  0.00    +0.000 A 
ATOM     22  C   UNL     1       1.584   4.118  20.808  0.00  0.00    +0.000 A 
ATOM     23  C   UNL     1       2.702   4.791  20.317  0.00  0.00    +0.000 A 
ENDBRANCH  17  18
ENDBRANCH   1  17
TORSDOF 8
ENDMDL
MODEL 6
REMARK VINA RESULT:      -7.7      3.094      4.311
REMARK  Name = 
REMARK  8 active torsions:
REMARK  status: ('A' for Active; 'I' for Inactive)
REMARK    1  A    between atoms: C_2  and  O_3
REMARK    2  A    between atoms: C_2  and  C_4
REMARK    3  A    between atoms: C_4  and  C_5
REMARK    4  A    between atoms: C_4  and  C_15
REMARK    5  A    between atoms: C_5  and  C_6
REMARK    6  A    between atoms: C_6  and  C_9
REMARK    7  A    between atoms: N_7  and  O_8
REMARK    8  A    between atoms: C_15  and  C_16
REMARK                            x       y       z     vdW  Elec       q    Type
REMARK                         _______ _______ _______ _____ _____    ______ ____
ROOT
ATOM      1  C   UNL     1       2.514   6.849  18.581  0.00  0.00    +0.000 C 
ENDROOT
BRANCH   1   3
ATOM      2  O   UNL     1       1.398   8.988  18.813  0.00  0.00    +0.000 OA
ATOM      3  C   UNL     1       2.163   8.271  18.184  0.00  0.00    +0.000 C 
BRANCH   3   4
ATOM      4  O   UNL     1       2.766   8.690  17.048  0.00  0.00    +0.000 OA
ATOM      5  H   UNL     1       2.210   9.310  16.540  0.00  0.00    +0.000 HD
ENDBRANCH   3   4
ENDBRANCH   1   3
BRANCH   1   6
ATOM      6  C   UNL     1       3.998   6.596  18.284  0.00  0.00    +0.000 C 
BRANCH   6   7
ATOM      7  C   UNL     1       4.380   5.473  17.312  0.00  0.00    +0.000 C 
ATOM      8  N   UNL     1       4.916   5.603  16.129  0.00  0.00    +0.000 NA
BRANCH   7   9
ATOM      9  C   UNL     1       4.054   4.079  17.774  0.00  0.00    +0.000 A 
ATOM     10  C   UNL     1       3.075   3.337  17.120  0.00  0.00    +0.000 A 
ATOM     11  C   UNL     1       2.838   2.032  17.543  0.00  0.00    +0.000 A 
ATOM     12  C   UNL     1       3.567   1.520  18.610  0.00  0.00    +0.000 A 
ATOM     13  C   UNL     1       4.501   2.340  19.223  0.00  0.00    +0.000 A 
ATOM     14  N   UNL     1       4.762   3.608  18.832  0.00  0.00    +0.000 NA
ENDBRANCH   7   9
BRANCH   8  15
ATOM     15  O   UNL     1       5.143   6.914  15.730  0.00  0.00    +0.000 OA
ATOM     16  H   UNL     1       5.331   6.800  14.778  0.00  0.00    +0.000 HD
ENDBRANCH   8  15
ENDBRANCH   6   7
ENDBRANCH   1   6
BRANCH   1  17
ATOM     17  C   UNL     1       2.239   6.642  20.081  0.00  0.00    +0.000 C 
BRANCH  17  18
ATOM     18  C   UNL     1       1.882   5.221  20.445  0.00  0.00    +0.000 A 
ATOM     19  C   UNL     1       0.905   4.517  19.731  0.00  0.00    +0.000 A 
ATOM     20  C   UNL     1       0.606   3.189  20.060  0.00  0.00    +0.000 A 
ATOM     21  C   UNL     1       1.274   2.565  21.114  0.00  0.00    +0.000 A 
ATOM     22  C   UNL     1       2.233   3.263  21.837  0.00  0.00    +0.000 A 
ATOM     23  C   UNL     1       2.535   4.584  21.509  0.00  0.00    +0.000 A 
ENDBRANCH  17  18
ENDBRANCH   1  17
TORSDOF 8
ENDMDL
MODEL 7
REMARK VINA RESULT:      -7.7      1.389      2.024
REMARK  Name = 
REMARK  8 active torsions:
REMARK  status: ('A' for Active; 'I' for Inactive)
REMARK    1  A    between atoms: C_2  and  O_3
REMARK    2  A    between atoms: C_2  and  C_4
REMARK    3  A    between atoms: C_4  and  C_5
REMARK    4  A    between atoms: C_4  and  C_15
REMARK    5  A    between atoms: C_5  and  C_6
REMARK    6  A    between atoms: C_6  and  C_9
REMARK    7  A    between atoms: N_7  and  O_8
REMARK    8  A    between atoms: C_15  and  C_16
REMARK                            x       y       z     vdW  Elec       q    Type
REMARK                         _______ _______ _______ _____ _____    ______ ____
ROOT
ATOM      1  C   UNL     1       4.720   5.475  18.228  0.00  0.00    +0.000 C 
ENDROOT
BRANCH   1   3
ATOM      2  O   UNL     1       6.581   5.405  19.779  0.00  0.00    +0.000 OA
ATOM      3  C   UNL     1       6.007   4.924  18.813  0.00  0.00    +0.000 C 
BRANCH   3   4
ATOM      4  O   UNL     1       6.489   3.842  18.159  0.00  0.00    +0.000 OA
ATOM      5  H   UNL     1       7.362   4.010  17.759  0.00  0.00    +0.000 HD
ENDBRANCH   3   4
ENDBRANCH   1   3
BRANCH   1   6
ATOM      6  C   UNL     1       5.052   6.324  16.994  0.00  0.00    +0.000 C 
BRANCH   6   7
ATOM      7  C   UNL     1       6.420   6.155  16.322  0.00  0.00    +0.000 C 
ATOM      8  N   UNL     1       7.552   6.687  16.694  0.00  0.00    +0.000 NA
BRANCH   7   9
ATOM      9  C   UNL     1       6.429   5.313  15.074  0.00  0.00    +0.000 A 
ATOM     10  C   UNL     1       5.371   4.450  14.806  0.00  0.00    +0.000 A 
ATOM     11  C   UNL     1       5.389   3.727  13.617  0.00  0.00    +0.000 A 
ATOM     12  C   UNL     1       6.465   3.873  12.749  0.00  0.00    +0.000 A 
ATOM     13  C   UNL     1       7.490   4.732  13.110  0.00  0.00    +0.000 A 
ATOM     14  N   UNL     1       7.500   5.455  14.253  0.00  0.00    +0.000 NA
ENDBRANCH   7   9
BRANCH   8  15
ATOM     15  O   UNL     1       7.475   7.500  17.818  0.00  0.00    +0.000 OA
ATOM     16  H   UNL     1       7.780   8.357  17.462  0.00  0.00    +0.000 HD
ENDBRANCH   8  15
ENDBRANCH   6   7
ENDBRANCH   1   6
BRANCH   1  17
ATOM     17  C   UNL     1       3.789   4.317  17.830  0.00  0.00    +0.000 C 
BRANCH  17  18
ATOM     18  C   UNL     1       2.945   3.793  18.968  0.00  0.00    +0.000 A 
ATOM     19  C   UNL     1       3.532   3.153  20.066  0.00  0.00    +0.000 A 
ATOM     20  C   UNL     1       2.741   2.701  21.129  0.00  0.00    +0.000 A 
ATOM     21  C   UNL     1       1.358   2.875  21.091  0.00  0.00    +0.000 A 
ATOM     22  C   UNL     1       0.767   3.495  19.998  0.00  0.00    +0.000 A 
ATOM     23  C   UNL     1       1.553   3.950  18.939  0.00  0.00    +0.000 A 
ENDBRANCH  17  18
ENDBRANCH   1  17
TORSDOF 8
ENDMDL
MODEL 8
REMARK VINA RESULT:      -7.6      1.495      2.445
REMARK  Name = 
REMARK  8 active torsions:
REMARK  status: ('A' for Active; 'I' for Inactive)
REMARK    1  A    between atoms: C_2  and  O_3
REMARK    2  A    between atoms: C_2  and  C_4
REMARK    3  A    between atoms: C_4  and  C_5
REMARK    4  A    between atoms: C_4  and  C_15
REMARK    5  A    between atoms: C_5  and  C_6
REMARK    6  A    between atoms: C_6  and  C_9
REMARK    7  A    between atoms: N_7  and  O_8
REMARK    8  A    between atoms: C_15  and  C_16
REMARK                            x       y       z     vdW  Elec       q    Type
REMARK                         _______ _______ _______ _____ _____    ______ ____
ROOT
ATOM      1  C   UNL     1       5.545   5.314  18.917  0.00  0.00    +0.000 C 
ENDROOT
BRANCH   1   3
ATOM      2  O   UNL     1       7.635   5.640  20.100  0.00  0.00    +0.000 OA
ATOM      3  C   UNL     1       7.016   5.077  19.209  0.00  0.00    +0.000 C 
BRANCH   3   4
ATOM      4  O   UNL     1       7.604   4.186  18.380  0.00  0.00    +0.000 OA
ATOM      5  H   UNL     1       6.970   3.783  17.757  0.00  0.00    +0.000 HD
ENDBRANCH   3   4
ENDBRANCH   1   3
BRANCH   1   6
ATOM      6  C   UNL     1       5.418   6.251  17.709  0.00  0.00    +0.000 C 
BRANCH   6   7
ATOM      7  C   UNL     1       6.586   6.352  16.720  0.00  0.00    +0.000 C 
ATOM      8  N   UNL     1       7.625   7.135  16.806  0.00  0.00    +0.000 NA
BRANCH   7   9
ATOM      9  C   UNL     1       6.481   5.473  15.503  0.00  0.00    +0.000 A 
ATOM     10  C   UNL     1       5.324   4.734  15.272  0.00  0.00    +0.000 A 
ATOM     11  C   UNL     1       5.244   3.973  14.110  0.00  0.00    +0.000 A 
ATOM     12  C   UNL     1       6.320   3.959  13.230  0.00  0.00    +0.000 A 
ATOM     13  C   UNL     1       7.444   4.701  13.554  0.00  0.00    +0.000 A 
ATOM     14  N   UNL     1       7.552   5.457  14.671  0.00  0.00    +0.000 NA
ENDBRANCH   7   9
BRANCH   8  15
ATOM     15  O   UNL     1       7.642   7.965  17.920  0.00  0.00    +0.000 OA
ATOM     16  H   UNL     1       7.399   8.827  17.527  0.00  0.00    +0.000 HD
ENDBRANCH   8  15
ENDBRANCH   6   7
ENDBRANCH   1   6
BRANCH   1  17
ATOM     17  C   UNL     1       4.850   3.975  18.615  0.00  0.00    +0.000 C 
BRANCH  17  18
ATOM     18  C   UNL     1       3.420   3.908  19.095  0.00  0.00    +0.000 A 
ATOM     19  C   UNL     1       2.484   3.081  18.462  0.00  0.00    +0.000 A 
ATOM     20  C   UNL     1       1.169   3.006  18.937  0.00  0.00    +0.000 A 
ATOM     21  C   UNL     1       0.782   3.768  20.040  0.00  0.00    +0.000 A 
ATOM     22  C   UNL     1       1.701   4.603  20.663  0.00  0.00    +0.000 A 
ATOM     23  C   UNL     1       3.012   4.677  20.193  0.00  0.00    +0.000 A 
ENDBRANCH  17  18
ENDBRANCH   1  17
TORSDOF 8
ENDMDL
MODEL 9
REMARK VINA RESULT:      -7.6      3.040      4.165
REMARK  Name = 
REMARK  8 active torsions:
REMARK  status: ('A' for Active; 'I' for Inactive)
REMARK    1  A    between atoms: C_2  and  O_3
REMARK    2  A    between atoms: C_2  and  C_4
REMARK    3  A    between atoms: C_4  and  C_5
REMARK    4  A    between atoms: C_4  and  C_15
REMARK    5  A    between atoms: C_5  and  C_6
REMARK    6  A    between atoms: C_6  and  C_9
REMARK    7  A    between atoms: N_7  and  O_8
REMARK    8  A    between atoms: C_15  and  C_16
REMARK                            x       y       z     vdW  Elec       q    Type
REMARK                         _______ _______ _______ _____ _____    ______ ____
ROOT
ATOM      1  C   UNL     1       2.611   6.840  18.579  0.00  0.00    +0.000 C 
ENDROOT
BRANCH   1   3
ATOM      2  O   UNL     1       1.388   8.884  19.025  0.00  0.00    +0.000 OA
ATOM      3  C   UNL     1       2.116   8.244  18.281  0.00  0.00    +0.000 C 
BRANCH   3   4
ATOM      4  O   UNL     1       2.542   8.737  17.096  0.00  0.00    +0.000 OA
ATOM      5  H   UNL     1       3.194   9.454  17.206  0.00  0.00    +0.000 HD
ENDBRANCH   3   4
ENDBRANCH   1   3
BRANCH   1   6
ATOM      6  C   UNL     1       4.061   6.706  18.096  0.00  0.00    +0.000 C 
BRANCH   6   7
ATOM      7  C   UNL     1       4.430   5.541  17.170  0.00  0.00    +0.000 C 
ATOM      8  N   UNL     1       4.966   5.618  15.982  0.00  0.00    +0.000 NA
BRANCH   7   9
ATOM      9  C   UNL     1       4.090   4.169  17.687  0.00  0.00    +0.000 A 
ATOM     10  C   UNL     1       3.096   3.417  17.069  0.00  0.00    +0.000 A 
ATOM     11  C   UNL     1       2.844   2.132  17.544  0.00  0.00    +0.000 A 
ATOM     12  C   UNL     1       3.575   1.651  18.624  0.00  0.00    +0.000 A 
ATOM     13  C   UNL     1       4.525   2.481  19.197  0.00  0.00    +0.000 A 
ATOM     14  N   UNL     1       4.800   3.729  18.757  0.00  0.00    +0.000 NA
ENDBRANCH   7   9
BRANCH   8  15
ATOM     15  O   UNL     1       5.206   6.909  15.531  0.00  0.00    +0.000 OA
ATOM     16  H   UNL     1       5.619   7.319  16.317  0.00  0.00    +0.000 HD
ENDBRANCH   8  15
ENDBRANCH   6   7
ENDBRANCH   1   6
BRANCH   1  17
ATOM     17  C   UNL     1       2.537   6.570  20.093  0.00  0.00    +0.000 C 
BRANCH  17  18
ATOM     18  C   UNL     1       2.057   5.182  20.442  0.00  0.00    +0.000 A 
ATOM     19  C   UNL     1       2.607   4.478  21.519  0.00  0.00    +0.000 A 
ATOM     20  C   UNL     1       2.131   3.204  21.850  0.00  0.00    +0.000 A 
ATOM     21  C   UNL     1       1.111   2.623  21.096  0.00  0.00    +0.000 A 
ATOM     22  C   UNL     1       0.572   3.309  20.015  0.00  0.00    +0.000 A 
ATOM     23  C   UNL     1       1.042   4.580  19.685  0.00  0.00    +0.000 A 
ENDBRANCH  17  18
ENDBRANCH   1  17
TORSDOF 8
ENDMDL
