MODEL 1
REMARK VINA RESULT:      -7.6      0.000      0.000
REMARK  Name = 
REMARK  5 active torsions:
REMARK  status: ('A' for Active; 'I' for Inactive)
REMARK    1  A    between atoms: C_1  and  C_2
REMARK    2  A    between atoms: C_2  and  S_3
REMARK    3  A    between atoms: S_3  and  N_6
REMARK    4  A    between atoms: C_13  and  O_14
REMARK    5  A    between atoms: O_14  and  C_15
REMARK                            x       y       z     vdW  Elec       q    Type
REMARK                         _______ _______ _______ _____ _____    ______ ____
ROOT
ATOM      1  N   UNL     1       1.883   4.483  20.159  0.00  0.00    +0.000 NA
ATOM      2  C   UNL     1       3.102   5.292  20.390  0.00  0.00    +0.000 C 
ATOM      3  C   UNL     1       4.175   4.960  19.353  0.00  0.00    +0.000 C 
ATOM      4  C   UNL     1       3.673   5.038  17.898  0.00  0.00    +0.000 C 
ATOM      5  C   UNL     1       2.247   4.500  17.689  0.00  0.00    +0.000 C 
ATOM      6  C   UNL     1       1.294   4.851  18.831  0.00  0.00    +0.000 C 
ATOM      7  C   UNL     1       4.668   4.323  16.965  0.00  0.00    +0.000 C 
ATOM      8  C   UNL     1       5.179   5.396  16.030  0.00  0.00    +0.000 C 
ATOM      9  C   UNL     1       4.900   6.671  16.800  0.00  0.00    +0.000 C 
ATOM     10  O   UNL     1       3.680   6.432  17.520  0.00  0.00    +0.000 OA
ENDROOT
BRANCH   1  11
ATOM     11  S   UNL     1       1.973   2.832  20.499  0.00  0.00    +0.000 S 
ATOM     12  O   UNL     1       1.053   2.089  19.664  0.00  0.00    +0.000 OA
ATOM     13  O   UNL     1       1.916   2.687  21.942  0.00  0.00    +0.000 OA
BRANCH  11  15
ATOM     14  C   UNL     1       3.768   1.344  18.883  0.00  0.00    +0.000 C 
ATOM     15  C   UNL     1       3.610   2.268  20.060  0.00  0.00    +0.000 C 
ENDBRANCH  11  15
ENDBRANCH   1  11
BRANCH   8  16
ATOM     16  O   UNL     1       6.567   5.170  15.787  0.00  0.00    +0.000 OA
BRANCH  16  17
ATOM     17  C   UNL     1       6.819   4.829  14.477  0.00  0.00    +0.000 A 
ATOM     18  C   UNL     1       6.061   3.805  13.939  0.00  0.00    +0.000 A 
ATOM     19  C   UNL     1       6.267   3.478  12.602  0.00  0.00    +0.000 A 
ATOM     20  C   UNL     1       7.231   4.168  11.873  0.00  0.00    +0.000 A 
ATOM     21  C   UNL     1       7.964   5.153  12.515  0.00  0.00    +0.000 A 
ATOM     22  N   UNL     1       7.780   5.496  13.803  0.00  0.00    +0.000 NA
ENDBRANCH  16  17
ENDBRANCH   8  16
TORSDOF 4
ENDMDL
MODEL 2
REMARK VINA RESULT:      -7.1      1.267      1.381
REMARK  Name = 
REMARK  5 active torsions:
REMARK  status: ('A' for Active; 'I' for Inactive)
REMARK    1  A    between atoms: C_1  and  C_2
REMARK    2  A    between atoms: C_2  and  S_3
REMARK    3  A    between atoms: S_3  and  N_6
REMARK    4  A    between atoms: C_13  and  O_14
REMARK    5  A    between atoms: O_14  and  C_15
REMARK                            x       y       z     vdW  Elec       q    Type
REMARK                         _______ _______ _______ _____ _____    ______ ____
ROOT
ATOM      1  N   UNL     1       2.385   4.890  19.755  0.00  0.00    +0.000 NA
ATOM      2  C   UNL     1       3.766   4.579  20.194  0.00  0.00    +0.000 C 
ATOM      3  C   UNL     1       4.668   4.316  18.989  0.00  0.00    +0.000 C 
ATOM      4  C   UNL     1       4.616   5.428  17.923  0.00  0.00    +0.000 C 
ATOM      5  C   UNL     1       3.214   6.015  17.686  0.00  0.00    +0.000 C 
ATOM      6  C   UNL     1       2.396   6.166  18.969  0.00  0.00    +0.000 C 
ATOM      7  C   UNL     1       5.222   4.916  16.604  0.00  0.00    +0.000 C 
ATOM      8  C   UNL     1       6.426   5.796  16.349  0.00  0.00    +0.000 C 
ATOM      9  C   UNL     1       6.740   6.339  17.729  0.00  0.00    +0.000 C 
ATOM     10  O   UNL     1       5.471   6.498  18.383  0.00  0.00    +0.000 OA
ENDROOT
BRANCH   1  11
ATOM     11  S   UNL     1       1.475   3.625  19.107  0.00  0.00    +0.000 S 
ATOM     12  O   UNL     1       1.224   3.849  17.699  0.00  0.00    +0.000 OA
ATOM     13  O   UNL     1       0.364   3.389  20.010  0.00  0.00    +0.000 OA
BRANCH  11  15
ATOM     14  C   UNL     1       3.181   1.660  17.980  0.00  0.00    +0.000 C 
ATOM     15  C   UNL     1       2.454   2.135  19.208  0.00  0.00    +0.000 C 
ENDBRANCH  11  15
ENDBRANCH   1  11
BRANCH   8  16
ATOM     16  O   UNL     1       7.472   4.996  15.801  0.00  0.00    +0.000 OA
BRANCH  16  17
ATOM     17  C   UNL     1       7.311   4.778  14.451  0.00  0.00    +0.000 A 
ATOM     18  C   UNL     1       6.432   3.778  14.077  0.00  0.00    +0.000 A 
ATOM     19  C   UNL     1       6.217   3.576  12.717  0.00  0.00    +0.000 A 
ATOM     20  C   UNL     1       6.904   4.361  11.795  0.00  0.00    +0.000 A 
ATOM     21  C   UNL     1       7.791   5.313  12.271  0.00  0.00    +0.000 A 
ATOM     22  N   UNL     1       8.012   5.536  13.580  0.00  0.00    +0.000 NA
ENDBRANCH  16  17
ENDBRANCH   8  16
TORSDOF 4
ENDMDL
MODEL 3
REMARK VINA RESULT:      -7.1      3.834      7.679
REMARK  Name = 
REMARK  5 active torsions:
REMARK  status: ('A' for Active; 'I' for Inactive)
REMARK    1  A    between atoms: C_1  and  C_2
REMARK    2  A    between atoms: C_2  and  S_3
REMARK    3  A    between atoms: S_3  and  N_6
REMARK    4  A    between atoms: C_13  and  O_14
REMARK    5  A    between atoms: O_14  and  C_15
REMARK                            x       y       z     vdW  Elec       q    Type
REMARK                         _______ _______ _______ _____ _____    ______ ____
ROOT
ATOM      1  N   UNL     1       4.473   3.609  17.516  0.00  0.00    +0.000 NA
ATOM      2  C   UNL     1       4.674   3.644  18.983  0.00  0.00    +0.000 C 
ATOM      3  C   UNL     1       4.266   5.003  19.552  0.00  0.00    +0.000 C 
ATOM      4  C   UNL     1       2.853   5.450  19.131  0.00  0.00    +0.000 C 
ATOM      5  C   UNL     1       2.488   5.115  17.675  0.00  0.00    +0.000 C 
ATOM      6  C   UNL     1       3.012   3.754  17.217  0.00  0.00    +0.000 C 
ATOM      7  C   UNL     1       2.679   6.955  19.405  0.00  0.00    +0.000 C 
ATOM      8  C   UNL     1       1.565   7.050  20.424  0.00  0.00    +0.000 C 
ATOM      9  C   UNL     1       1.567   5.669  21.049  0.00  0.00    +0.000 C 
ATOM     10  O   UNL     1       1.916   4.763  19.991  0.00  0.00    +0.000 OA
ENDROOT
BRANCH   1  11
ATOM     11  S   UNL     1       5.520   4.534  16.569  0.00  0.00    +0.000 S 
ATOM     12  O   UNL     1       4.986   5.865  16.371  0.00  0.00    +0.000 OA
ATOM     13  O   UNL     1       5.889   3.726  15.421  0.00  0.00    +0.000 OA
BRANCH  11  15
ATOM     14  C   UNL     1       7.423   6.114  17.958  0.00  0.00    +0.000 C 
ATOM     15  C   UNL     1       7.046   4.740  17.476  0.00  0.00    +0.000 C 
ENDBRANCH  11  15
ENDBRANCH   1  11
BRANCH   8  16
ATOM     16  O   UNL     1       1.875   8.092  21.347  0.00  0.00    +0.000 OA
BRANCH  16  17
ATOM     17  C   UNL     1       0.894   9.057  21.395  0.00  0.00    +0.000 A 
ATOM     18  C   UNL     1       0.369   9.356  22.640  0.00  0.00    +0.000 A 
ATOM     19  C   UNL     1      -0.588  10.363  22.715  0.00  0.00    +0.000 A 
ATOM     20  C   UNL     1      -0.995  11.006  21.550  0.00  0.00    +0.000 A 
ATOM     21  C   UNL     1      -0.435  10.606  20.348  0.00  0.00    +0.000 A 
ATOM     22  N   UNL     1       0.499   9.643  20.245  0.00  0.00    +0.000 NA
ENDBRANCH  16  17
ENDBRANCH   8  16
TORSDOF 4
ENDMDL
MODEL 4
REMARK VINA RESULT:      -7.0      4.009      7.123
REMARK  Name = 
REMARK  5 active torsions:
REMARK  status: ('A' for Active; 'I' for Inactive)
REMARK    1  A    between atoms: C_1  and  C_2
REMARK    2  A    between atoms: C_2  and  S_3
REMARK    3  A    between atoms: S_3  and  N_6
REMARK    4  A    between atoms: C_13  and  O_14
REMARK    5  A    between atoms: O_14  and  C_15
REMARK                            x       y       z     vdW  Elec       q    Type
REMARK                         _______ _______ _______ _____ _____    ______ ____
ROOT
ATOM      1  N   UNL     1       4.054   3.589  18.050  0.00  0.00    +0.000 NA
ATOM      2  C   UNL     1       2.866   4.174  17.386  0.00  0.00    +0.000 C 
ATOM      3  C   UNL     1       2.049   5.004  18.377  0.00  0.00    +0.000 C 
ATOM      4  C   UNL     1       2.882   6.050  19.141  0.00  0.00    +0.000 C 
ATOM      5  C   UNL     1       4.282   5.567  19.557  0.00  0.00    +0.000 C 
ATOM      6  C   UNL     1       4.960   4.695  18.499  0.00  0.00    +0.000 C 
ATOM      7  C   UNL     1       2.094   6.551  20.365  0.00  0.00    +0.000 C 
ATOM      8  C   UNL     1       1.882   8.030  20.125  0.00  0.00    +0.000 C 
ATOM      9  C   UNL     1       2.048   8.152  18.624  0.00  0.00    +0.000 C 
ATOM     10  O   UNL     1       3.048   7.185  18.264  0.00  0.00    +0.000 OA
ENDROOT
BRANCH   1  11
ATOM     11  S   UNL     1       3.788   2.349  19.163  0.00  0.00    +0.000 S 
ATOM     12  O   UNL     1       4.781   2.388  20.216  0.00  0.00    +0.000 OA
ATOM     13  O   UNL     1       3.585   1.127  18.406  0.00  0.00    +0.000 OA
BRANCH  11  15
ATOM     14  C   UNL     1       2.166   2.775  21.451  0.00  0.00    +0.000 C 
ATOM     15  C   UNL     1       2.213   2.647  19.953  0.00  0.00    +0.000 C 
ENDBRANCH  11  15
ENDBRANCH   1  11
BRANCH   8  16
ATOM     16  O   UNL     1       0.579   8.387  20.585  0.00  0.00    +0.000 OA
BRANCH  16  17
ATOM     17  C   UNL     1       0.335   9.737  20.466  0.00  0.00    +0.000 A 
ATOM     18  C   UNL     1      -0.641  10.121  19.563  0.00  0.00    +0.000 A 
ATOM     19  C   UNL     1      -0.937  11.477  19.464  0.00  0.00    +0.000 A 
ATOM     20  C   UNL     1      -0.234  12.386  20.248  0.00  0.00    +0.000 A 
ATOM     21  C   UNL     1       0.751  11.904  21.095  0.00  0.00    +0.000 A 
ATOM     22  N   UNL     1       1.052  10.598  21.218  0.00  0.00    +0.000 NA
ENDBRANCH  16  17
ENDBRANCH   8  16
TORSDOF 4
ENDMDL
MODEL 5
REMARK VINA RESULT:      -6.9      3.953      7.047
REMARK  Name = 
REMARK  5 active torsions:
REMARK  status: ('A' for Active; 'I' for Inactive)
REMARK    1  A    between atoms: C_1  and  C_2
REMARK    2  A    between atoms: C_2  and  S_3
REMARK    3  A    between atoms: S_3  and  N_6
REMARK    4  A    between atoms: C_13  and  O_14
REMARK    5  A    between atoms: O_14  and  C_15
REMARK                            x       y       z     vdW  Elec       q    Type
REMARK                         _______ _______ _______ _____ _____    ______ ____
ROOT
ATOM      1  N   UNL     1       4.133   3.479  18.074  0.00  0.00    +0.000 NA
ATOM      2  C   UNL     1       2.956   4.041  17.372  0.00  0.00    +0.000 C 
ATOM      3  C   UNL     1       2.115   4.890  18.325  0.00  0.00    +0.000 C 
ATOM      4  C   UNL     1       2.927   5.959  19.081  0.00  0.00    +0.000 C 
ATOM      5  C   UNL     1       4.321   5.494  19.537  0.00  0.00    +0.000 C 
ATOM      6  C   UNL     1       5.024   4.600  18.515  0.00  0.00    +0.000 C 
ATOM      7  C   UNL     1       2.111   6.486  20.276  0.00  0.00    +0.000 C 
ATOM      8  C   UNL     1       1.897   7.957  19.996  0.00  0.00    +0.000 C 
ATOM      9  C   UNL     1       2.094   8.044  18.496  0.00  0.00    +0.000 C 
ATOM     10  O   UNL     1       3.106   7.074  18.180  0.00  0.00    +0.000 OA
ENDROOT
BRANCH   1  11
ATOM     11  S   UNL     1       3.849   2.264  19.212  0.00  0.00    +0.000 S 
ATOM     12  O   UNL     1       4.851   2.301  20.256  0.00  0.00    +0.000 OA
ATOM     13  O   UNL     1       3.615   1.035  18.478  0.00  0.00    +0.000 OA
BRANCH  11  15
ATOM     14  C   UNL     1       2.273   2.884  21.487  0.00  0.00    +0.000 C 
ATOM     15  C   UNL     1       2.288   2.610  20.008  0.00  0.00    +0.000 C 
ENDBRANCH  11  15
ENDBRANCH   1  11
BRANCH   8  16
ATOM     16  O   UNL     1       0.583   8.319  20.419  0.00  0.00    +0.000 OA
BRANCH  16  17
ATOM     17  C   UNL     1       0.330   9.661  20.249  0.00  0.00    +0.000 A 
ATOM     18  C   UNL     1       1.001  10.537  21.083  0.00  0.00    +0.000 A 
ATOM     19  C   UNL     1       0.797  11.900  20.892  0.00  0.00    +0.000 A 
ATOM     20  C   UNL     1      -0.082  12.325  19.901  0.00  0.00    +0.000 A 
ATOM     21  C   UNL     1      -0.734  11.367  19.143  0.00  0.00    +0.000 A 
ATOM     22  N   UNL     1      -0.549  10.043  19.298  0.00  0.00    +0.000 NA
ENDBRANCH  16  17
ENDBRANCH   8  16
TORSDOF 4
ENDMDL
MODEL 6
REMARK VINA RESULT:      -6.9      3.853      7.549
REMARK  Name = 
REMARK  5 active torsions:
REMARK  status: ('A' for Active; 'I' for Inactive)
REMARK    1  A    between atoms: C_1  and  C_2
REMARK    2  A    between atoms: C_2  and  S_3
REMARK    3  A    between atoms: S_3  and  N_6
REMARK    4  A    between atoms: C_13  and  O_14
REMARK    5  A    between atoms: O_14  and  C_15
REMARK                            x       y       z     vdW  Elec       q    Type
REMARK                         _______ _______ _______ _____ _____    ______ ____
ROOT
ATOM      1  N   UNL     1       4.533   3.618  17.595  0.00  0.00    +0.000 NA
ATOM      2  C   UNL     1       4.747   3.752  19.055  0.00  0.00    +0.000 C 
ATOM      3  C   UNL     1       4.326   5.141  19.536  0.00  0.00    +0.000 C 
ATOM      4  C   UNL     1       2.903   5.540  19.101  0.00  0.00    +0.000 C 
ATOM      5  C   UNL     1       2.529   5.105  17.674  0.00  0.00    +0.000 C 
ATOM      6  C   UNL     1       3.067   3.723  17.303  0.00  0.00    +0.000 C 
ATOM      7  C   UNL     1       2.711   7.058  19.276  0.00  0.00    +0.000 C 
ATOM      8  C   UNL     1       1.606   7.206  20.298  0.00  0.00    +0.000 C 
ATOM      9  C   UNL     1       1.632   5.870  21.014  0.00  0.00    +0.000 C 
ATOM     10  O   UNL     1       1.984   4.900  20.014  0.00  0.00    +0.000 OA
ENDROOT
BRANCH   1  11
ATOM     11  S   UNL     1       5.559   4.491  16.578  0.00  0.00    +0.000 S 
ATOM     12  O   UNL     1       5.029   5.817  16.339  0.00  0.00    +0.000 OA
ATOM     13  O   UNL     1       5.887   3.631  15.457  0.00  0.00    +0.000 OA
BRANCH  11  15
ATOM     14  C   UNL     1       7.498   6.107  17.872  0.00  0.00    +0.000 C 
ATOM     15  C   UNL     1       7.112   4.722  17.430  0.00  0.00    +0.000 C 
ENDBRANCH  11  15
ENDBRANCH   1  11
BRANCH   8  16
ATOM     16  O   UNL     1       1.911   8.312  21.146  0.00  0.00    +0.000 OA
BRANCH  16  17
ATOM     17  C   UNL     1       0.962   9.306  21.070  0.00  0.00    +0.000 A 
ATOM     18  C   UNL     1       0.428   9.569  19.821  0.00  0.00    +0.000 A 
ATOM     19  C   UNL     1      -0.569  10.536  19.731  0.00  0.00    +0.000 A 
ATOM     20  C   UNL     1      -0.968  11.211  20.880  0.00  0.00    +0.000 A 
ATOM     21  C   UNL     1      -0.345  10.901  22.077  0.00  0.00    +0.000 A 
ATOM     22  N   UNL     1       0.614   9.964  22.196  0.00  0.00    +0.000 NA
ENDBRANCH  16  17
ENDBRANCH   8  16
TORSDOF 4
ENDMDL
MODEL 7
REMARK VINA RESULT:      -6.9      3.732      7.575
REMARK  Name = 
REMARK  5 active torsions:
REMARK  status: ('A' for Active; 'I' for Inactive)
REMARK    1  A    between atoms: C_1  and  C_2
REMARK    2  A    between atoms: C_2  and  S_3
REMARK    3  A    between atoms: S_3  and  N_6
REMARK    4  A    between atoms: C_13  and  O_14
REMARK    5  A    between atoms: O_14  and  C_15
REMARK                            x       y       z     vdW  Elec       q    Type
REMARK                         _______ _______ _______ _____ _____    ______ ____
ROOT
ATOM      1  N   UNL     1       5.647   4.282  17.288  0.00  0.00    +0.000 NA
ATOM      2  C   UNL     1       5.737   4.231  18.766  0.00  0.00    +0.000 C 
ATOM      3  C   UNL     1       4.997   5.414  19.392  0.00  0.00    +0.000 C 
ATOM      4  C   UNL     1       3.551   5.576  18.886  0.00  0.00    +0.000 C 
ATOM      5  C   UNL     1       3.368   5.298  17.384  0.00  0.00    +0.000 C 
ATOM      6  C   UNL     1       4.214   4.129  16.878  0.00  0.00    +0.000 C 
ATOM      7  C   UNL     1       3.026   6.977  19.248  0.00  0.00    +0.000 C 
ATOM      8  C   UNL     1       1.854   6.736  20.174  0.00  0.00    +0.000 C 
ATOM      9  C   UNL     1       2.124   5.340  20.699  0.00  0.00    +0.000 C 
ATOM     10  O   UNL     1       2.738   4.629  19.613  0.00  0.00    +0.000 OA
ENDROOT
BRANCH   1  11
ATOM     11  S   UNL     1       6.521   5.492  16.500  0.00  0.00    +0.000 S 
ATOM     12  O   UNL     1       5.625   6.475  15.927  0.00  0.00    +0.000 OA
ATOM     13  O   UNL     1       7.504   4.835  15.659  0.00  0.00    +0.000 OA
BRANCH  11  15
ATOM     14  C   UNL     1       7.663   7.846  17.596  0.00  0.00    +0.000 C 
ATOM     15  C   UNL     1       7.491   6.357  17.725  0.00  0.00    +0.000 C 
ENDBRANCH  11  15
ENDBRANCH   1  11
BRANCH   8  16
ATOM     16  O   UNL     1       1.859   7.737  21.191  0.00  0.00    +0.000 OA
BRANCH  16  17
ATOM     17  C   UNL     1       0.999   8.775  20.908  0.00  0.00    +0.000 A 
ATOM     18  C   UNL     1       0.243   9.266  21.956  0.00  0.00    +0.000 A 
ATOM     19  C   UNL     1      -0.596  10.347  21.701  0.00  0.00    +0.000 A 
ATOM     20  C   UNL     1      -0.660  10.871  20.414  0.00  0.00    +0.000 A 
ATOM     21  C   UNL     1       0.111  10.283  19.424  0.00  0.00    +0.000 A 
ATOM     22  N   UNL     1       0.937   9.244  19.643  0.00  0.00    +0.000 NA
ENDBRANCH  16  17
ENDBRANCH   8  16
TORSDOF 4
ENDMDL
MODEL 8
REMARK VINA RESULT:      -6.8      2.035      2.999
REMARK  Name = 
REMARK  5 active torsions:
REMARK  status: ('A' for Active; 'I' for Inactive)
REMARK    1  A    between atoms: C_1  and  C_2
REMARK    2  A    between atoms: C_2  and  S_3
REMARK    3  A    between atoms: S_3  and  N_6
REMARK    4  A    between atoms: C_13  and  O_14
REMARK    5  A    between atoms: O_14  and  C_15
REMARK                            x       y       z     vdW  Elec       q    Type
REMARK                         _______ _______ _______ _____ _____    ______ ____
ROOT
ATOM      1  N   UNL     1       1.664   4.229  20.036  0.00  0.00    +0.000 NA
ATOM      2  C   UNL     1       2.694   5.269  20.260  0.00  0.00    +0.000 C 
ATOM      3  C   UNL     1       3.904   5.034  19.355  0.00  0.00    +0.000 C 
ATOM      4  C   UNL     1       3.539   4.863  17.868  0.00  0.00    +0.000 C 
ATOM      5  C   UNL     1       2.257   4.052  17.617  0.00  0.00    +0.000 C 
ATOM      6  C   UNL     1       1.151   4.339  18.632  0.00  0.00    +0.000 C 
ATOM      7  C   UNL     1       4.730   4.251  17.107  0.00  0.00    +0.000 C 
ATOM      8  C   UNL     1       5.133   5.295  16.090  0.00  0.00    +0.000 C 
ATOM      9  C   UNL     1       4.562   6.570  16.676  0.00  0.00    +0.000 C 
ATOM     10  O   UNL     1       3.339   6.187  17.324  0.00  0.00    +0.000 OA
ENDROOT
BRANCH   1  11
ATOM     11  S   UNL     1       2.008   2.668  20.580  0.00  0.00    +0.000 S 
ATOM     12  O   UNL     1       1.611   1.686  19.594  0.00  0.00    +0.000 OA
ATOM     13  O   UNL     1       1.512   2.568  21.940  0.00  0.00    +0.000 OA
BRANCH  11  15
ATOM     14  C   UNL     1       4.527   1.639  19.779  0.00  0.00    +0.000 C 
ATOM     15  C   UNL     1       3.781   2.521  20.743  0.00  0.00    +0.000 C 
ENDBRANCH  11  15
ENDBRANCH   1  11
BRANCH   8  16
ATOM     16  O   UNL     1       6.556   5.305  15.982  0.00  0.00    +0.000 OA
BRANCH  16  17
ATOM     17  C   UNL     1       7.150   6.047  16.979  0.00  0.00    +0.000 A 
ATOM     18  C   UNL     1       7.502   5.375  18.135  0.00  0.00    +0.000 A 
ATOM     19  C   UNL     1       8.149   6.096  19.134  0.00  0.00    +0.000 A 
ATOM     20  C   UNL     1       8.392   7.453  18.945  0.00  0.00    +0.000 A 
ATOM     21  C   UNL     1       7.967   8.042  17.766  0.00  0.00    +0.000 A 
ATOM     22  N   UNL     1       7.348   7.367  16.779  0.00  0.00    +0.000 NA
ENDBRANCH  16  17
ENDBRANCH   8  16
TORSDOF 4
ENDMDL
MODEL 9
REMARK VINA RESULT:      -6.8      3.611      7.189
REMARK  Name = 
REMARK  5 active torsions:
REMARK  status: ('A' for Active; 'I' for Inactive)
REMARK    1  A    between atoms: C_1  and  C_2
REMARK    2  A    between atoms: C_2  and  S_3
REMARK    3  A    between atoms: S_3  and  N_6
REMARK    4  A    between atoms: C_13  and  O_14
REMARK    5  A    between atoms: O_14  and  C_15
REMARK                            x       y       z     vdW  Elec       q    Type
REMARK                         _______ _______ _______ _____ _____    ______ ____
ROOT
ATOM      1  N   UNL     1       4.578   3.449  18.205  0.00  0.00    +0.000 NA
ATOM      2  C   UNL     1       3.680   4.019  17.174  0.00  0.00    +0.000 C 
ATOM      3  C   UNL     1       2.645   4.946  17.813  0.00  0.00    +0.000 C 
ATOM      4  C   UNL     1       3.261   6.020  18.730  0.00  0.00    +0.000 C 
ATOM      5  C   UNL     1       4.441   5.526  19.583  0.00  0.00    +0.000 C 
ATOM      6  C   UNL     1       5.361   4.557  18.841  0.00  0.00    +0.000 C 
ATOM      7  C   UNL     1       2.165   6.636  19.619  0.00  0.00    +0.000 C 
ATOM      8  C   UNL     1       2.114   8.098  19.236  0.00  0.00    +0.000 C 
ATOM      9  C   UNL     1       2.735   8.102  17.853  0.00  0.00    +0.000 C 
ATOM     10  O   UNL     1       3.745   7.081  17.877  0.00  0.00    +0.000 OA
ENDROOT
BRANCH   1  11
ATOM     11  S   UNL     1       3.921   2.304  19.257  0.00  0.00    +0.000 S 
ATOM     12  O   UNL     1       4.737   2.179  20.446  0.00  0.00    +0.000 OA
ATOM     13  O   UNL     1       3.606   1.127  18.469  0.00  0.00    +0.000 OA
BRANCH  11  15
ATOM     14  C   UNL     1       2.071   3.025  21.283  0.00  0.00    +0.000 C 
ATOM     15  C   UNL     1       2.332   2.910  19.806  0.00  0.00    +0.000 C 
ENDBRANCH  11  15
ENDBRANCH   1  11
BRANCH   8  16
ATOM     16  O   UNL     1       0.754   8.529  19.250  0.00  0.00    +0.000 OA
BRANCH  16  17
ATOM     17  C   UNL     1       0.433   9.205  20.406  0.00  0.00    +0.000 A 
ATOM     18  C   UNL     1       0.612  10.577  20.400  0.00  0.00    +0.000 A 
ATOM     19  C   UNL     1       0.245  11.284  21.541  0.00  0.00    +0.000 A 
ATOM     20  C   UNL     1      -0.257  10.593  22.639  0.00  0.00    +0.000 A 
ATOM     21  C   UNL     1      -0.363   9.214  22.558  0.00  0.00    +0.000 A 
ATOM     22  N   UNL     1      -0.026   8.505  21.465  0.00  0.00    +0.000 NA
ENDBRANCH  16  17
ENDBRANCH   8  16
TORSDOF 4
ENDMDL
