MODEL 1
REMARK VINA RESULT:      -7.1      0.000      0.000
REMARK  Name = 
REMARK  5 active torsions:
REMARK  status: ('A' for Active; 'I' for Inactive)
REMARK    1  A    between atoms: C_1  and  O_2
REMARK    2  A    between atoms: O_2  and  C_3
REMARK    3  A    between atoms: C_9  and  C_10
REMARK    4  A    between atoms: N_11  and  C_12
REMARK    5  A    between atoms: C_21  and  O_22
REMARK                            x       y       z     vdW  Elec       q    Type
REMARK                         _______ _______ _______ _____ _____    ______ ____
ROOT
ATOM      1  C   UNL     1       4.844   4.938  17.033  0.00  0.00    +0.000 A 
ATOM      2  C   UNL     1       4.587   3.601  17.356  0.00  0.00    +0.000 A 
ATOM      3  C   UNL     1       3.528   3.250  18.197  0.00  0.00    +0.000 A 
ATOM      4 BR   UNL     1       3.344   1.394  18.581  0.00  0.00    +0.000 Br
ATOM      5  C   UNL     1       2.676   4.237  18.714  0.00  0.00    +0.000 A 
ATOM      6 BR   UNL     1       1.259   3.739  19.902  0.00  0.00    +0.000 Br
ATOM      7  C   UNL     1       2.907   5.586  18.369  0.00  0.00    +0.000 A 
ATOM      8  C   UNL     1       3.999   5.931  17.537  0.00  0.00    +0.000 A 
ENDROOT
BRANCH   1  10
ATOM      9  C   UNL     1       7.175   4.653  16.651  0.00  0.00    +0.000 C 
ATOM     10  O   UNL     1       5.906   5.094  16.186  0.00  0.00    +0.000 OA
ENDBRANCH   1  10
BRANCH   7  11
ATOM     11  C   UNL     1       2.014   6.655  18.877  0.00  0.00    +0.000 C 
ATOM     12  N   UNL     1       2.475   7.676  19.529  0.00  0.00    +0.000 NA
BRANCH  12  13
ATOM     13  C   UNL     1       1.516   8.575  20.053  0.00  0.00    +0.000 A 
ATOM     14  C   UNL     1       1.081   9.644  19.272  0.00  0.00    +0.000 A 
ATOM     15  C   UNL     1       0.128  10.555  19.743  0.00  0.00    +0.000 A 
ATOM     16  C   UNL     1      -0.309  10.404  21.062  0.00  0.00    +0.000 A 
ATOM     17  N   UNL     1      -1.228  11.119  21.796  0.00  0.00    +0.000 N 
ATOM     18  C   UNL     1      -1.105  10.800  23.124  0.00  0.00    +0.000 A 
ATOM     19  C   UNL     1      -0.317   9.675  23.208  0.00  0.00    +0.000 A 
ATOM     20  C   UNL     1       0.188   9.412  21.904  0.00  0.00    +0.000 A 
ATOM     21  C   UNL     1       1.072   8.457  21.378  0.00  0.00    +0.000 A 
ATOM     22  H   UNL     1      -1.845  11.826  21.419  0.00  0.00    +0.000 HD
ENDBRANCH  12  13
ENDBRANCH   7  11
BRANCH   8  23
ATOM     23  O   UNL     1       4.237   7.237  17.187  0.00  0.00    +0.000 OA
ATOM     24  H   UNL     1       4.052   7.342  16.224  0.00  0.00    +0.000 HD
ENDBRANCH   8  23
TORSDOF 4
ENDMDL
MODEL 2
REMARK VINA RESULT:      -6.9      2.334      2.754
REMARK  Name = 
REMARK  5 active torsions:
REMARK  status: ('A' for Active; 'I' for Inactive)
REMARK    1  A    between atoms: C_1  and  O_2
REMARK    2  A    between atoms: O_2  and  C_3
REMARK    3  A    between atoms: C_9  and  C_10
REMARK    4  A    between atoms: N_11  and  C_12
REMARK    5  A    between atoms: C_21  and  O_22
REMARK                            x       y       z     vdW  Elec       q    Type
REMARK                         _______ _______ _______ _____ _____    ______ ____
ROOT
ATOM      1  C   UNL     1       3.286   3.218  17.621  0.00  0.00    +0.000 A 
ATOM      2  C   UNL     1       4.507   3.356  16.952  0.00  0.00    +0.000 A 
ATOM      3  C   UNL     1       5.077   4.613  16.740  0.00  0.00    +0.000 A 
ATOM      4 BR   UNL     1       6.714   4.636  15.767  0.00  0.00    +0.000 Br
ATOM      5  C   UNL     1       4.447   5.769  17.224  0.00  0.00    +0.000 A 
ATOM      6 BR   UNL     1       5.222   7.486  16.881  0.00  0.00    +0.000 Br
ATOM      7  C   UNL     1       3.231   5.638  17.928  0.00  0.00    +0.000 A 
ATOM      8  C   UNL     1       2.650   4.361  18.114  0.00  0.00    +0.000 A 
ENDROOT
BRANCH   1  10
ATOM      9  C   UNL     1       3.669   1.083  18.600  0.00  0.00    +0.000 C 
ATOM     10  O   UNL     1       2.887   1.916  17.754  0.00  0.00    +0.000 OA
ENDBRANCH   1  10
BRANCH   7  11
ATOM     11  C   UNL     1       2.548   6.834  18.476  0.00  0.00    +0.000 C 
ATOM     12  N   UNL     1       2.242   6.929  19.732  0.00  0.00    +0.000 NA
BRANCH  12  13
ATOM     13  C   UNL     1       1.499   8.071  20.117  0.00  0.00    +0.000 A 
ATOM     14  C   UNL     1       1.437   9.168  19.259  0.00  0.00    +0.000 A 
ATOM     15  C   UNL     1       0.708  10.315  19.591  0.00  0.00    +0.000 A 
ATOM     16  C   UNL     1       0.115  10.357  20.856  0.00  0.00    +0.000 A 
ATOM     17  N   UNL     1      -0.659  11.323  21.459  0.00  0.00    +0.000 N 
ATOM     18  C   UNL     1      -0.758  11.061  22.802  0.00  0.00    +0.000 A 
ATOM     19  C   UNL     1      -0.300   9.780  23.008  0.00  0.00    +0.000 A 
ATOM     20  C   UNL     1       0.251   9.322  21.779  0.00  0.00    +0.000 A 
ATOM     21  C   UNL     1       0.908   8.146  21.386  0.00  0.00    +0.000 A 
ATOM     22  H   UNL     1      -1.031  12.139  20.994  0.00  0.00    +0.000 HD
ENDBRANCH  12  13
ENDBRANCH   7  11
BRANCH   8  23
ATOM     23  O   UNL     1       1.470   4.213  18.801  0.00  0.00    +0.000 OA
ATOM     24  H   UNL     1       1.409   3.283  19.122  0.00  0.00    +0.000 HD
ENDBRANCH   8  23
TORSDOF 4
ENDMDL
MODEL 3
REMARK VINA RESULT:      -6.9      0.888      1.506
REMARK  Name = 
REMARK  5 active torsions:
REMARK  status: ('A' for Active; 'I' for Inactive)
REMARK    1  A    between atoms: C_1  and  O_2
REMARK    2  A    between atoms: O_2  and  C_3
REMARK    3  A    between atoms: C_9  and  C_10
REMARK    4  A    between atoms: N_11  and  C_12
REMARK    5  A    between atoms: C_21  and  O_22
REMARK                            x       y       z     vdW  Elec       q    Type
REMARK                         _______ _______ _______ _____ _____    ______ ____
ROOT
ATOM      1  C   UNL     1       4.512   5.479  17.079  0.00  0.00    +0.000 A 
ATOM      2  C   UNL     1       4.335   4.104  17.266  0.00  0.00    +0.000 A 
ATOM      3  C   UNL     1       3.512   3.612  18.282  0.00  0.00    +0.000 A 
ATOM      4 BR   UNL     1       3.420   1.716  18.439  0.00  0.00    +0.000 Br
ATOM      5  C   UNL     1       2.816   4.495  19.121  0.00  0.00    +0.000 A 
ATOM      6 BR   UNL     1       1.730   3.800  20.536  0.00  0.00    +0.000 Br
ATOM      7  C   UNL     1       2.962   5.884  18.920  0.00  0.00    +0.000 A 
ATOM      8  C   UNL     1       3.819   6.370  17.904  0.00  0.00    +0.000 A 
ENDROOT
BRANCH   1  10
ATOM      9  C   UNL     1       6.628   5.187  16.031  0.00  0.00    +0.000 C 
ATOM     10  O   UNL     1       5.336   5.780  16.029  0.00  0.00    +0.000 OA
ENDBRANCH   1  10
BRANCH   7  11
ATOM     11  C   UNL     1       2.224   6.848  19.771  0.00  0.00    +0.000 C 
ATOM     12  N   UNL     1       1.694   7.924  19.280  0.00  0.00    +0.000 NA
BRANCH  12  13
ATOM     13  C   UNL     1       1.106   8.818  20.207  0.00  0.00    +0.000 A 
ATOM     14  C   UNL     1       1.155   8.523  21.568  0.00  0.00    +0.000 A 
ATOM     15  C   UNL     1       0.597   9.380  22.523  0.00  0.00    +0.000 A 
ATOM     16  C   UNL     1      -0.093  10.502  22.055  0.00  0.00    +0.000 A 
ATOM     17  N   UNL     1      -0.730  11.518  22.732  0.00  0.00    +0.000 N 
ATOM     18  C   UNL     1      -1.519  12.226  21.862  0.00  0.00    +0.000 A 
ATOM     19  C   UNL     1      -1.163  11.856  20.586  0.00  0.00    +0.000 A 
ATOM     20  C   UNL     1      -0.255  10.766  20.697  0.00  0.00    +0.000 A 
ATOM     21  C   UNL     1       0.395   9.942  19.765  0.00  0.00    +0.000 A 
ATOM     22  H   UNL     1      -0.681  11.666  23.731  0.00  0.00    +0.000 HD
ENDBRANCH  12  13
ENDBRANCH   7  11
BRANCH   8  23
ATOM     23  O   UNL     1       3.970   7.718  17.690  0.00  0.00    +0.000 OA
ATOM     24  H   UNL     1       3.934   8.180  18.560  0.00  0.00    +0.000 HD
ENDBRANCH   8  23
TORSDOF 4
ENDMDL
MODEL 4
REMARK VINA RESULT:      -6.8      1.017      1.159
REMARK  Name = 
REMARK  5 active torsions:
REMARK  status: ('A' for Active; 'I' for Inactive)
REMARK    1  A    between atoms: C_1  and  O_2
REMARK    2  A    between atoms: O_2  and  C_3
REMARK    3  A    between atoms: C_9  and  C_10
REMARK    4  A    between atoms: N_11  and  C_12
REMARK    5  A    between atoms: C_21  and  O_22
REMARK                            x       y       z     vdW  Elec       q    Type
REMARK                         _______ _______ _______ _____ _____    ______ ____
ROOT
ATOM      1  C   UNL     1       5.045   5.015  16.762  0.00  0.00    +0.000 A 
ATOM      2  C   UNL     1       4.666   3.712  17.102  0.00  0.00    +0.000 A 
ATOM      3  C   UNL     1       3.637   3.473  18.016  0.00  0.00    +0.000 A 
ATOM      4 BR   UNL     1       3.277   1.644  18.411  0.00  0.00    +0.000 Br
ATOM      5  C   UNL     1       2.937   4.543  18.592  0.00  0.00    +0.000 A 
ATOM      6 BR   UNL     1       1.561   4.194  19.877  0.00  0.00    +0.000 Br
ATOM      7  C   UNL     1       3.290   5.861  18.232  0.00  0.00    +0.000 A 
ATOM      8  C   UNL     1       4.352   6.090  17.325  0.00  0.00    +0.000 A 
ENDROOT
BRANCH   1  10
ATOM      9  C   UNL     1       6.107   4.011  14.884  0.00  0.00    +0.000 C 
ATOM     10  O   UNL     1       6.056   5.061  15.842  0.00  0.00    +0.000 OA
ENDBRANCH   1  10
BRANCH   7  11
ATOM     11  C   UNL     1       2.557   7.017  18.801  0.00  0.00    +0.000 C 
ATOM     12  N   UNL     1       2.178   8.014  18.065  0.00  0.00    +0.000 NA
BRANCH  12  13
ATOM     13  C   UNL     1       1.580   9.105  18.738  0.00  0.00    +0.000 A 
ATOM     14  C   UNL     1       1.698  10.387  18.204  0.00  0.00    +0.000 A 
ATOM     15  C   UNL     1       1.117  11.496  18.829  0.00  0.00    +0.000 A 
ATOM     16  C   UNL     1       0.487  11.286  20.059  0.00  0.00    +0.000 A 
ATOM     17  N   UNL     1      -0.174  12.156  20.896  0.00  0.00    +0.000 N 
ATOM     18  C   UNL     1      -0.359  11.565  22.120  0.00  0.00    +0.000 A 
ATOM     19  C   UNL     1      -0.084  10.225  21.978  0.00  0.00    +0.000 A 
ATOM     20  C   UNL     1       0.447  10.035  20.672  0.00  0.00    +0.000 A 
ATOM     21  C   UNL     1       0.956   8.925  19.981  0.00  0.00    +0.000 A 
ATOM     22  H   UNL     1      -0.415  13.110  20.664  0.00  0.00    +0.000 HD
ENDBRANCH  12  13
ENDBRANCH   7  11
BRANCH   8  23
ATOM     23  O   UNL     1       4.707   7.366  16.959  0.00  0.00    +0.000 OA
ATOM     24  H   UNL     1       5.529   7.319  16.418  0.00  0.00    +0.000 HD
ENDBRANCH   8  23
TORSDOF 4
ENDMDL
MODEL 5
REMARK VINA RESULT:      -6.8      3.676      7.495
REMARK  Name = 
REMARK  5 active torsions:
REMARK  status: ('A' for Active; 'I' for Inactive)
REMARK    1  A    between atoms: C_1  and  O_2
REMARK    2  A    between atoms: O_2  and  C_3
REMARK    3  A    between atoms: C_9  and  C_10
REMARK    4  A    between atoms: N_11  and  C_12
REMARK    5  A    between atoms: C_21  and  O_22
REMARK                            x       y       z     vdW  Elec       q    Type
REMARK                         _______ _______ _______ _____ _____    ______ ____
ROOT
ATOM      1  C   UNL     1       0.764  12.459  19.097  0.00  0.00    +0.000 A 
ATOM      2  C   UNL     1       0.205  12.986  20.266  0.00  0.00    +0.000 A 
ATOM      3  C   UNL     1      -0.157  12.157  21.332  0.00  0.00    +0.000 A 
ATOM      4 BR   UNL     1      -0.955  13.022  22.829  0.00  0.00    +0.000 Br
ATOM      5  C   UNL     1       0.063  10.774  21.262  0.00  0.00    +0.000 A 
ATOM      6 BR   UNL     1      -0.483   9.652  22.714  0.00  0.00    +0.000 Br
ATOM      7  C   UNL     1       0.657  10.237  20.100  0.00  0.00    +0.000 A 
ATOM      8  C   UNL     1       0.995  11.083  19.017  0.00  0.00    +0.000 A 
ENDROOT
BRANCH   1  10
ATOM      9  C   UNL     1       2.341  14.047  18.287  0.00  0.00    +0.000 C 
ATOM     10  O   UNL     1       1.073  13.415  18.169  0.00  0.00    +0.000 OA
ENDBRANCH   1  10
BRANCH   7  11
ATOM     11  C   UNL     1       0.928   8.783  19.998  0.00  0.00    +0.000 C 
ATOM     12  N   UNL     1       2.092   8.328  19.654  0.00  0.00    +0.000 NA
BRANCH  12  13
ATOM     13  C   UNL     1       2.200   6.927  19.490  0.00  0.00    +0.000 A 
ATOM     14  C   UNL     1       2.598   6.410  18.259  0.00  0.00    +0.000 A 
ATOM     15  C   UNL     1       2.728   5.032  18.051  0.00  0.00    +0.000 A 
ATOM     16  C   UNL     1       2.357   4.185  19.100  0.00  0.00    +0.000 A 
ATOM     17  N   UNL     1       2.380   2.813  19.205  0.00  0.00    +0.000 N 
ATOM     18  C   UNL     1       1.644   2.422  20.294  0.00  0.00    +0.000 A 
ATOM     19  C   UNL     1       1.398   3.544  21.050  0.00  0.00    +0.000 A 
ATOM     20  C   UNL     1       1.851   4.668  20.305  0.00  0.00    +0.000 A 
ATOM     21  C   UNL     1       1.819   6.055  20.520  0.00  0.00    +0.000 A 
ATOM     22  H   UNL     1       2.811   2.190  18.535  0.00  0.00    +0.000 HD
ENDBRANCH  12  13
ENDBRANCH   7  11
BRANCH   8  23
ATOM     23  O   UNL     1       1.578  10.579  17.880  0.00  0.00    +0.000 OA
ATOM     24  H   UNL     1       2.203  11.253  17.523  0.00  0.00    +0.000 HD
ENDBRANCH   8  23
TORSDOF 4
ENDMDL
MODEL 6
REMARK VINA RESULT:      -6.8      3.266      7.628
REMARK  Name = 
REMARK  5 active torsions:
REMARK  status: ('A' for Active; 'I' for Inactive)
REMARK    1  A    between atoms: C_1  and  O_2
REMARK    2  A    between atoms: O_2  and  C_3
REMARK    3  A    between atoms: C_9  and  C_10
REMARK    4  A    between atoms: N_11  and  C_12
REMARK    5  A    between atoms: C_21  and  O_22
REMARK                            x       y       z     vdW  Elec       q    Type
REMARK                         _______ _______ _______ _____ _____    ______ ____
ROOT
ATOM      1  C   UNL     1       0.703  12.060  18.901  0.00  0.00    +0.000 A 
ATOM      2  C   UNL     1      -0.051  12.242  20.065  0.00  0.00    +0.000 A 
ATOM      3  C   UNL     1      -0.269  11.190  20.958  0.00  0.00    +0.000 A 
ATOM      4 BR   UNL     1      -1.360  11.588  22.468  0.00  0.00    +0.000 Br
ATOM      5  C   UNL     1       0.293   9.928  20.718  0.00  0.00    +0.000 A 
ATOM      6 BR   UNL     1      -0.057   8.488  21.931  0.00  0.00    +0.000 Br
ATOM      7  C   UNL     1       1.081   9.741  19.563  0.00  0.00    +0.000 A 
ATOM      8  C   UNL     1       1.273  10.808  18.652  0.00  0.00    +0.000 A 
ENDROOT
BRANCH   1  10
ATOM      9  C   UNL     1       1.854  14.109  18.529  0.00  0.00    +0.000 C 
ATOM     10  O   UNL     1       0.828  13.199  18.154  0.00  0.00    +0.000 OA
ENDBRANCH   1  10
BRANCH   7  11
ATOM     11  C   UNL     1       1.712   8.428  19.288  0.00  0.00    +0.000 C 
ATOM     12  N   UNL     1       2.532   8.260  18.298  0.00  0.00    +0.000 NA
BRANCH  12  13
ATOM     13  C   UNL     1       2.988   6.939  18.074  0.00  0.00    +0.000 A 
ATOM     14  C   UNL     1       4.227   6.735  17.469  0.00  0.00    +0.000 A 
ATOM     15  C   UNL     1       4.724   5.449  17.234  0.00  0.00    +0.000 A 
ATOM     16  C   UNL     1       3.892   4.370  17.549  0.00  0.00    +0.000 A 
ATOM     17  N   UNL     1       4.095   3.012  17.446  0.00  0.00    +0.000 N 
ATOM     18  C   UNL     1       2.899   2.356  17.583  0.00  0.00    +0.000 A 
ATOM     19  C   UNL     1       1.983   3.263  18.065  0.00  0.00    +0.000 A 
ATOM     20  C   UNL     1       2.605   4.543  18.053  0.00  0.00    +0.000 A 
ATOM     21  C   UNL     1       2.168   5.839  18.365  0.00  0.00    +0.000 A 
ATOM     22  H   UNL     1       4.980   2.575  17.226  0.00  0.00    +0.000 HD
ENDBRANCH  12  13
ENDBRANCH   7  11
BRANCH   8  23
ATOM     23  O   UNL     1       2.041  10.647  17.525  0.00  0.00    +0.000 OA
ATOM     24  H   UNL     1       2.862  10.160  17.772  0.00  0.00    +0.000 HD
ENDBRANCH   8  23
TORSDOF 4
ENDMDL
MODEL 7
REMARK VINA RESULT:      -6.7      1.121      1.982
REMARK  Name = 
REMARK  5 active torsions:
REMARK  status: ('A' for Active; 'I' for Inactive)
REMARK    1  A    between atoms: C_1  and  O_2
REMARK    2  A    between atoms: O_2  and  C_3
REMARK    3  A    between atoms: C_9  and  C_10
REMARK    4  A    between atoms: N_11  and  C_12
REMARK    5  A    between atoms: C_21  and  O_22
REMARK                            x       y       z     vdW  Elec       q    Type
REMARK                         _______ _______ _______ _____ _____    ______ ____
ROOT
ATOM      1  C   UNL     1       4.801   5.004  16.771  0.00  0.00    +0.000 A 
ATOM      2  C   UNL     1       4.394   3.708  17.102  0.00  0.00    +0.000 A 
ATOM      3  C   UNL     1       3.418   3.482  18.076  0.00  0.00    +0.000 A 
ATOM      4 BR   UNL     1       3.014   1.659  18.449  0.00  0.00    +0.000 Br
ATOM      5  C   UNL     1       2.799   4.562  18.724  0.00  0.00    +0.000 A 
ATOM      6 BR   UNL     1       1.498   4.229  20.089  0.00  0.00    +0.000 Br
ATOM      7  C   UNL     1       3.180   5.875  18.374  0.00  0.00    +0.000 A 
ATOM      8  C   UNL     1       4.188   6.089  17.405  0.00  0.00    +0.000 A 
ENDROOT
BRANCH   1  10
ATOM      9  C   UNL     1       7.059   4.607  16.136  0.00  0.00    +0.000 C 
ATOM     10  O   UNL     1       5.750   5.038  15.787  0.00  0.00    +0.000 OA
ENDBRANCH   1  10
BRANCH   7  11
ATOM     11  C   UNL     1       2.532   7.042  19.020  0.00  0.00    +0.000 C 
ATOM     12  N   UNL     1       2.029   8.013  18.325  0.00  0.00    +0.000 NA
BRANCH  12  13
ATOM     13  C   UNL     1       1.532   9.120  19.054  0.00  0.00    +0.000 A 
ATOM     14  C   UNL     1       1.074   8.931  20.356  0.00  0.00    +0.000 A 
ATOM     15  C   UNL     1       0.581   9.995  21.120  0.00  0.00    +0.000 A 
ATOM     16  C   UNL     1       0.482  11.243  20.497  0.00  0.00    +0.000 A 
ATOM     17  N   UNL     1       0.057  12.461  20.977  0.00  0.00    +0.000 N 
ATOM     18  C   UNL     1      -0.151  13.321  19.929  0.00  0.00    +0.000 A 
ATOM     19  C   UNL     1       0.419  12.756  18.811  0.00  0.00    +0.000 A 
ATOM     20  C   UNL     1       0.829  11.440  19.162  0.00  0.00    +0.000 A 
ATOM     21  C   UNL     1       1.407  10.378  18.449  0.00  0.00    +0.000 A 
ATOM     22  H   UNL     1      -0.145  12.662  21.947  0.00  0.00    +0.000 HD
ENDBRANCH  12  13
ENDBRANCH   7  11
BRANCH   8  23
ATOM     23  O   UNL     1       4.569   7.360  17.048  0.00  0.00    +0.000 OA
ATOM     24  H   UNL     1       5.444   7.553  17.459  0.00  0.00    +0.000 HD
ENDBRANCH   8  23
TORSDOF 4
ENDMDL
MODEL 8
REMARK VINA RESULT:      -6.7      3.402      7.863
REMARK  Name = 
REMARK  5 active torsions:
REMARK  status: ('A' for Active; 'I' for Inactive)
REMARK    1  A    between atoms: C_1  and  O_2
REMARK    2  A    between atoms: O_2  and  C_3
REMARK    3  A    between atoms: C_9  and  C_10
REMARK    4  A    between atoms: N_11  and  C_12
REMARK    5  A    between atoms: C_21  and  O_22
REMARK                            x       y       z     vdW  Elec       q    Type
REMARK                         _______ _______ _______ _____ _____    ______ ____
ROOT
ATOM      1  C   UNL     1      -0.859  11.057  18.739  0.00  0.00    +0.000 A 
ATOM      2  C   UNL     1      -1.234  11.456  20.027  0.00  0.00    +0.000 A 
ATOM      3  C   UNL     1      -0.632  10.902  21.160  0.00  0.00    +0.000 A 
ATOM      4 BR   UNL     1      -1.292  11.512  22.839  0.00  0.00    +0.000 Br
ATOM      5  C   UNL     1       0.390   9.951  21.027  0.00  0.00    +0.000 A 
ATOM      6 BR   UNL     1       1.168   9.170  22.593  0.00  0.00    +0.000 Br
ATOM      7  C   UNL     1       0.798   9.565  19.732  0.00  0.00    +0.000 A 
ATOM      8  C   UNL     1       0.162  10.114  18.593  0.00  0.00    +0.000 A 
ENDROOT
BRANCH   1  10
ATOM      9  C   UNL     1      -2.738  11.114  17.281  0.00  0.00    +0.000 C 
ATOM     10  O   UNL     1      -1.539  11.714  17.751  0.00  0.00    +0.000 OA
ENDBRANCH   1  10
BRANCH   7  11
ATOM     11  C   UNL     1       1.890   8.580  19.551  0.00  0.00    +0.000 C 
ATOM     12  N   UNL     1       1.861   7.695  18.604  0.00  0.00    +0.000 NA
BRANCH  12  13
ATOM     13  C   UNL     1       2.909   6.743  18.597  0.00  0.00    +0.000 A 
ATOM     14  C   UNL     1       2.905   5.714  19.537  0.00  0.00    +0.000 A 
ATOM     15  C   UNL     1       3.914   4.745  19.564  0.00  0.00    +0.000 A 
ATOM     16  C   UNL     1       4.976   4.896  18.667  0.00  0.00    +0.000 A 
ATOM     17  N   UNL     1       6.090   4.118  18.448  0.00  0.00    +0.000 N 
ATOM     18  C   UNL     1       6.997   4.816  17.691  0.00  0.00    +0.000 A 
ATOM     19  C   UNL     1       6.348   5.917  17.182  0.00  0.00    +0.000 A 
ATOM     20  C   UNL     1       5.064   5.974  17.790  0.00  0.00    +0.000 A 
ATOM     21  C   UNL     1       3.994   6.879  17.720  0.00  0.00    +0.000 A 
ATOM     22  H   UNL     1       6.245   3.203  18.849  0.00  0.00    +0.000 HD
ENDBRANCH  12  13
ENDBRANCH   7  11
BRANCH   8  23
ATOM     23  O   UNL     1       0.549   9.754  17.325  0.00  0.00    +0.000 OA
ATOM     24  H   UNL     1       0.419  10.527  16.727  0.00  0.00    +0.000 HD
ENDBRANCH   8  23
TORSDOF 4
ENDMDL
MODEL 9
REMARK VINA RESULT:      -6.7      3.583      7.567
REMARK  Name = 
REMARK  5 active torsions:
REMARK  status: ('A' for Active; 'I' for Inactive)
REMARK    1  A    between atoms: C_1  and  O_2
REMARK    2  A    between atoms: O_2  and  C_3
REMARK    3  A    between atoms: C_9  and  C_10
REMARK    4  A    between atoms: N_11  and  C_12
REMARK    5  A    between atoms: C_21  and  O_22
REMARK                            x       y       z     vdW  Elec       q    Type
REMARK                         _______ _______ _______ _____ _____    ______ ____
ROOT
ATOM      1  C   UNL     1       1.514  12.133  18.655  0.00  0.00    +0.000 A 
ATOM      2  C   UNL     1       0.977  12.795  19.764  0.00  0.00    +0.000 A 
ATOM      3  C   UNL     1       0.425  12.086  20.833  0.00  0.00    +0.000 A 
ATOM      4 BR   UNL     1      -0.312  13.135  22.242  0.00  0.00    +0.000 Br
ATOM      5  C   UNL     1       0.427  10.684  20.831  0.00  0.00    +0.000 A 
ATOM      6 BR   UNL     1      -0.376   9.731  22.285  0.00  0.00    +0.000 Br
ATOM      7  C   UNL     1       0.995  10.005  19.731  0.00  0.00    +0.000 A 
ATOM      8  C   UNL     1       1.527  10.735  18.642  0.00  0.00    +0.000 A 
ENDROOT
BRANCH   1  10
ATOM      9  C   UNL     1       2.720  14.129  18.186  0.00  0.00    +0.000 C 
ATOM     10  O   UNL     1       2.024  12.983  17.713  0.00  0.00    +0.000 OA
ENDBRANCH   1  10
BRANCH   7  11
ATOM     11  C   UNL     1       1.037   8.523  19.703  0.00  0.00    +0.000 C 
ATOM     12  N   UNL     1       2.158   7.873  19.705  0.00  0.00    +0.000 NA
BRANCH  12  13
ATOM     13  C   UNL     1       2.072   6.466  19.571  0.00  0.00    +0.000 A 
ATOM     14  C   UNL     1       1.787   5.688  20.691  0.00  0.00    +0.000 A 
ATOM     15  C   UNL     1       1.684   4.295  20.607  0.00  0.00    +0.000 A 
ATOM     16  C   UNL     1       1.964   3.702  19.372  0.00  0.00    +0.000 A 
ATOM     17  N   UNL     1       1.939   2.384  18.976  0.00  0.00    +0.000 N 
ATOM     18  C   UNL     1       2.577   2.254  17.770  0.00  0.00    +0.000 A 
ATOM     19  C   UNL     1       2.750   3.518  17.255  0.00  0.00    +0.000 A 
ATOM     20  C   UNL     1       2.359   4.444  18.261  0.00  0.00    +0.000 A 
ATOM     21  C   UNL     1       2.364   5.845  18.349  0.00  0.00    +0.000 A 
ATOM     22  H   UNL     1       1.573   1.621  19.530  0.00  0.00    +0.000 HD
ENDBRANCH  12  13
ENDBRANCH   7  11
BRANCH   8  23
ATOM     23  O   UNL     1       2.088  10.093  17.566  0.00  0.00    +0.000 OA
ATOM     24  H   UNL     1       2.228   9.146  17.804  0.00  0.00    +0.000 HD
ENDBRANCH   8  23
TORSDOF 4
ENDMDL
