MODEL 1
REMARK VINA RESULT:      -7.5      0.000      0.000
REMARK  Name = 
REMARK  7 active torsions:
REMARK  status: ('A' for Active; 'I' for Inactive)
REMARK    1  A    between atoms: C_2  and  C_20
REMARK    2  A    between atoms: N_3  and  C_4
REMARK    3  A    between atoms: C_7  and  N_8
REMARK    4  A    between atoms: N_8  and  C_9
REMARK    5  A    between atoms: C_9  and  C_10
REMARK    6  A    between atoms: C_10  and  N_11
REMARK    7  A    between atoms: C_26  and  O_27
REMARK                            x       y       z     vdW  Elec       q    Type
REMARK                         _______ _______ _______ _____ _____    ______ ____
ROOT
ATOM      1  C   UNL     1       1.508   8.248  20.111  0.00  0.00    +0.000 A 
ATOM      2  C   UNL     1       1.587   7.019  20.775  0.00  0.00    +0.000 A 
ATOM      3  C   UNL     1       2.122   5.913  20.180  0.00  0.00    +0.000 A 
ATOM      4  C   UNL     1       2.595   5.937  18.868  0.00  0.00    +0.000 A 
ATOM      5  C   UNL     1       2.548   7.172  18.192  0.00  0.00    +0.000 A 
ATOM      6  C   UNL     1       2.017   8.308  18.802  0.00  0.00    +0.000 A 
ATOM      7 CL   UNL     1       2.176   9.809  17.951  0.00  0.00    +0.000 Cl
ENDROOT
BRANCH   1  10
ATOM      8  O   UNL     1      -0.918   9.646  19.441  0.00  0.00    +0.000 OA
ATOM      9  C   UNL     1      -0.206   9.977  20.387  0.00  0.00    +0.000 C 
ATOM     10  N   UNL     1       0.970   9.361  20.773  0.00  0.00    +0.000 N 
ATOM     11  H   UNL     1       1.350   9.621  21.684  0.00  0.00    +0.000 HD
BRANCH   9  12
ATOM     12  C   UNL     1      -0.703  11.097  21.209  0.00  0.00    +0.000 A 
ATOM     13  C   UNL     1      -0.840  12.335  20.559  0.00  0.00    +0.000 A 
ATOM     14  C   UNL     1      -1.279  13.447  21.262  0.00  0.00    +0.000 A 
ATOM     15 CL   UNL     1      -1.453  14.957  20.457  0.00  0.00    +0.000 Cl
ATOM     16  C   UNL     1      -1.574  13.349  22.628  0.00  0.00    +0.000 A 
ATOM     17  C   UNL     1      -1.437  12.120  23.275  0.00  0.00    +0.000 A 
ATOM     18  C   UNL     1      -1.008  10.998  22.572  0.00  0.00    +0.000 A 
BRANCH  18  19
ATOM     19  O   UNL     1      -0.879   9.806  23.229  0.00  0.00    +0.000 OA
ATOM     20  H   UNL     1      -0.944   9.080  22.585  0.00  0.00    +0.000 HD
ENDBRANCH  18  19
ENDBRANCH   9  12
ENDBRANCH   1  10
BRANCH   4  21
ATOM     21  N   UNL     1       3.173   4.810  18.262  0.00  0.00    +0.000 N 
ATOM     22  H   UNL     1       3.329   4.992  17.269  0.00  0.00    +0.000 HD
BRANCH  21  23
ATOM     23  C   UNL     1       4.383   4.274  18.922  0.00  0.00    +0.000 C 
BRANCH  23  24
ATOM     24  C   UNL     1       5.445   5.377  19.135  0.00  0.00    +0.000 C 
BRANCH  24  25
ATOM     25  N   UNL     1       6.824   4.969  18.777  0.00  0.00    +0.000 NA
ATOM     26  C   UNL     1       7.806   6.072  18.862  0.00  0.00    +0.000 C 
ATOM     27  C   UNL     1       7.565   7.171  17.816  0.00  0.00    +0.000 C 
ATOM     28  O   UNL     1       7.620   6.632  16.489  0.00  0.00    +0.000 OA
ATOM     29  C   UNL     1       6.684   5.556  16.321  0.00  0.00    +0.000 C 
ATOM     30  C   UNL     1       6.866   4.458  17.387  0.00  0.00    +0.000 C 
ENDBRANCH  24  25
ENDBRANCH  23  24
ENDBRANCH  21  23
ENDBRANCH   4  21
TORSDOF 7
ENDMDL
MODEL 2
REMARK VINA RESULT:      -7.4      5.803      8.460
REMARK  Name = 
REMARK  7 active torsions:
REMARK  status: ('A' for Active; 'I' for Inactive)
REMARK    1  A    between atoms: C_2  and  C_20
REMARK    2  A    between atoms: N_3  and  C_4
REMARK    3  A    between atoms: C_7  and  N_8
REMARK    4  A    between atoms: N_8  and  C_9
REMARK    5  A    between atoms: C_9  and  C_10
REMARK    6  A    between atoms: C_10  and  N_11
REMARK    7  A    between atoms: C_26  and  O_27
REMARK                            x       y       z     vdW  Elec       q    Type
REMARK                         _______ _______ _______ _____ _____    ______ ____
ROOT
ATOM      1  C   UNL     1       7.823   7.221  18.315  0.00  0.00    +0.000 A 
ATOM      2  C   UNL     1       6.924   7.437  17.263  0.00  0.00    +0.000 A 
ATOM      3  C   UNL     1       6.022   6.486  16.883  0.00  0.00    +0.000 A 
ATOM      4  C   UNL     1       5.960   5.238  17.501  0.00  0.00    +0.000 A 
ATOM      5  C   UNL     1       6.838   5.012  18.579  0.00  0.00    +0.000 A 
ATOM      6  C   UNL     1       7.751   5.986  18.981  0.00  0.00    +0.000 A 
ATOM      7 CL   UNL     1       8.653   5.675  20.428  0.00  0.00    +0.000 Cl
ENDROOT
BRANCH   1  10
ATOM      8  O   UNL     1       7.606  10.020  17.677  0.00  0.00    +0.000 OA
ATOM      9  C   UNL     1       8.540   9.564  18.335  0.00  0.00    +0.000 C 
ATOM     10  N   UNL     1       8.716   8.237  18.682  0.00  0.00    +0.000 N 
ATOM     11  H   UNL     1       9.426   8.035  19.387  0.00  0.00    +0.000 HD
BRANCH   9  12
ATOM     12  C   UNL     1       9.515  10.548  18.843  0.00  0.00    +0.000 A 
ATOM     13  C   UNL     1      10.272  11.232  17.876  0.00  0.00    +0.000 A 
ATOM     14  C   UNL     1      11.227  12.158  18.265  0.00  0.00    +0.000 A 
ATOM     15 CL   UNL     1      12.143  12.998  17.076  0.00  0.00    +0.000 Cl
ATOM     16  C   UNL     1      11.457  12.408  19.625  0.00  0.00    +0.000 A 
ATOM     17  C   UNL     1      10.708  11.728  20.586  0.00  0.00    +0.000 A 
ATOM     18  C   UNL     1       9.739  10.807  20.200  0.00  0.00    +0.000 A 
BRANCH  18  19
ATOM     19  O   UNL     1       9.019  10.151  21.160  0.00  0.00    +0.000 OA
ATOM     20  H   UNL     1       9.154   9.192  21.059  0.00  0.00    +0.000 HD
ENDBRANCH  18  19
ENDBRANCH   9  12
ENDBRANCH   1  10
BRANCH   4  21
ATOM     21  N   UNL     1       5.013   4.268  17.134  0.00  0.00    +0.000 N 
ATOM     22  H   UNL     1       5.235   3.379  17.584  0.00  0.00    +0.000 HD
BRANCH  21  23
ATOM     23  C   UNL     1       3.597   4.646  17.325  0.00  0.00    +0.000 C 
BRANCH  23  24
ATOM     24  C   UNL     1       3.261   4.838  18.821  0.00  0.00    +0.000 C 
BRANCH  24  25
ATOM     25  N   UNL     1       1.822   4.697  19.144  0.00  0.00    +0.000 NA
ATOM     26  C   UNL     1       1.534   4.752  20.595  0.00  0.00    +0.000 C 
ATOM     27  C   UNL     1       2.108   3.552  21.365  0.00  0.00    +0.000 C 
ATOM     28  O   UNL     1       1.581   2.321  20.856  0.00  0.00    +0.000 OA
ATOM     29  C   UNL     1       1.828   2.185  19.449  0.00  0.00    +0.000 C 
ATOM     30  C   UNL     1       1.309   3.397  18.650  0.00  0.00    +0.000 C 
ENDBRANCH  24  25
ENDBRANCH  23  24
ENDBRANCH  21  23
ENDBRANCH   4  21
TORSDOF 7
ENDMDL
MODEL 3
REMARK VINA RESULT:      -7.4      1.146      1.185
REMARK  Name = 
REMARK  7 active torsions:
REMARK  status: ('A' for Active; 'I' for Inactive)
REMARK    1  A    between atoms: C_2  and  C_20
REMARK    2  A    between atoms: N_3  and  C_4
REMARK    3  A    between atoms: C_7  and  N_8
REMARK    4  A    between atoms: N_8  and  C_9
REMARK    5  A    between atoms: C_9  and  C_10
REMARK    6  A    between atoms: C_10  and  N_11
REMARK    7  A    between atoms: C_26  and  O_27
REMARK                            x       y       z     vdW  Elec       q    Type
REMARK                         _______ _______ _______ _____ _____    ______ ____
ROOT
ATOM      1  C   UNL     1       1.581   7.696  19.781  0.00  0.00    +0.000 A 
ATOM      2  C   UNL     1       1.641   6.559  20.596  0.00  0.00    +0.000 A 
ATOM      3  C   UNL     1       2.323   5.439  20.217  0.00  0.00    +0.000 A 
ATOM      4  C   UNL     1       2.975   5.352  18.987  0.00  0.00    +0.000 A 
ATOM      5  C   UNL     1       2.948   6.496  18.165  0.00  0.00    +0.000 A 
ATOM      6  C   UNL     1       2.266   7.648  18.555  0.00  0.00    +0.000 A 
ATOM      7 CL   UNL     1       2.450   9.051  17.555  0.00  0.00    +0.000 Cl
ENDROOT
BRANCH   1  10
ATOM      8  O   UNL     1       1.789   8.943  22.367  0.00  0.00    +0.000 OA
ATOM      9  C   UNL     1       1.043   9.369  21.488  0.00  0.00    +0.000 C 
ATOM     10  N   UNL     1       0.886   8.830  20.224  0.00  0.00    +0.000 N 
ATOM     11  H   UNL     1       0.384   9.396  19.540  0.00  0.00    +0.000 HD
BRANCH   9  12
ATOM     12  C   UNL     1       0.306  10.607  21.808  0.00  0.00    +0.000 A 
ATOM     13  C   UNL     1       0.688  11.761  21.102  0.00  0.00    +0.000 A 
ATOM     14  C   UNL     1       0.063  12.972  21.355  0.00  0.00    +0.000 A 
ATOM     15 CL   UNL     1       0.529  14.377  20.481  0.00  0.00    +0.000 Cl
ATOM     16  C   UNL     1      -0.942  13.059  22.327  0.00  0.00    +0.000 A 
ATOM     17  C   UNL     1      -1.321  11.915  23.030  0.00  0.00    +0.000 A 
ATOM     18  C   UNL     1      -0.706  10.694  22.771  0.00  0.00    +0.000 A 
BRANCH  18  19
ATOM     19  O   UNL     1      -1.093   9.587  23.475  0.00  0.00    +0.000 OA
ATOM     20  H   UNL     1      -1.170   8.833  22.864  0.00  0.00    +0.000 HD
ENDBRANCH  18  19
ENDBRANCH   9  12
ENDBRANCH   1  10
BRANCH   4  21
ATOM     21  N   UNL     1       3.703   4.213  18.606  0.00  0.00    +0.000 N 
ATOM     22  H   UNL     1       3.765   4.166  17.588  0.00  0.00    +0.000 HD
BRANCH  21  23
ATOM     23  C   UNL     1       5.025   4.050  19.249  0.00  0.00    +0.000 C 
BRANCH  23  24
ATOM     24  C   UNL     1       5.829   5.369  19.229  0.00  0.00    +0.000 C 
BRANCH  24  25
ATOM     25  N   UNL     1       7.255   5.206  18.861  0.00  0.00    +0.000 NA
ATOM     26  C   UNL     1       7.986   6.488  18.749  0.00  0.00    +0.000 C 
ATOM     27  C   UNL     1       7.497   7.355  17.578  0.00  0.00    +0.000 C 
ATOM     28  O   UNL     1       7.635   6.656  16.334  0.00  0.00    +0.000 OA
ATOM     29  C   UNL     1       6.943   5.399  16.358  0.00  0.00    +0.000 C 
ATOM     30  C   UNL     1       7.373   4.523  17.551  0.00  0.00    +0.000 C 
ENDBRANCH  24  25
ENDBRANCH  23  24
ENDBRANCH  21  23
ENDBRANCH   4  21
TORSDOF 7
ENDMDL
MODEL 4
REMARK VINA RESULT:      -7.3      5.965      8.402
REMARK  Name = 
REMARK  7 active torsions:
REMARK  status: ('A' for Active; 'I' for Inactive)
REMARK    1  A    between atoms: C_2  and  C_20
REMARK    2  A    between atoms: N_3  and  C_4
REMARK    3  A    between atoms: C_7  and  N_8
REMARK    4  A    between atoms: N_8  and  C_9
REMARK    5  A    between atoms: C_9  and  C_10
REMARK    6  A    between atoms: C_10  and  N_11
REMARK    7  A    between atoms: C_26  and  O_27
REMARK                            x       y       z     vdW  Elec       q    Type
REMARK                         _______ _______ _______ _____ _____    ______ ____
ROOT
ATOM      1  C   UNL     1       7.921   7.039  18.387  0.00  0.00    +0.000 A 
ATOM      2  C   UNL     1       7.148   7.154  17.225  0.00  0.00    +0.000 A 
ATOM      3  C   UNL     1       6.325   6.148  16.807  0.00  0.00    +0.000 A 
ATOM      4  C   UNL     1       6.228   4.940  17.497  0.00  0.00    +0.000 A 
ATOM      5  C   UNL     1       6.978   4.816  18.683  0.00  0.00    +0.000 A 
ATOM      6  C   UNL     1       7.807   5.847  19.122  0.00  0.00    +0.000 A 
ATOM      7 CL   UNL     1       8.540   5.661  20.682  0.00  0.00    +0.000 Cl
ENDROOT
BRANCH   1  10
ATOM      8  O   UNL     1       7.635   9.800  17.623  0.00  0.00    +0.000 OA
ATOM      9  C   UNL     1       8.528   9.413  18.373  0.00  0.00    +0.000 C 
ATOM     10  N   UNL     1       8.734   8.109  18.787  0.00  0.00    +0.000 N 
ATOM     11  H   UNL     1       9.390   7.966  19.555  0.00  0.00    +0.000 HD
BRANCH   9  12
ATOM     12  C   UNL     1       9.412  10.459  18.921  0.00  0.00    +0.000 A 
ATOM     13  C   UNL     1      10.157  11.199  17.987  0.00  0.00    +0.000 A 
ATOM     14  C   UNL     1      11.030  12.187  18.415  0.00  0.00    +0.000 A 
ATOM     15 CL   UNL     1      11.930  13.095  17.265  0.00  0.00    +0.000 Cl
ATOM     16  C   UNL     1      11.188  12.446  19.783  0.00  0.00    +0.000 A 
ATOM     17  C   UNL     1      10.451  11.711  20.713  0.00  0.00    +0.000 A 
ATOM     18  C   UNL     1       9.564  10.727  20.287  0.00  0.00    +0.000 A 
BRANCH  18  19
ATOM     19  O   UNL     1       8.855  10.018  21.217  0.00  0.00    +0.000 OA
ATOM     20  H   UNL     1       8.389   9.288  20.773  0.00  0.00    +0.000 HD
ENDBRANCH  18  19
ENDBRANCH   9  12
ENDBRANCH   1  10
BRANCH   4  21
ATOM     21  N   UNL     1       5.360   3.914  17.088  0.00  0.00    +0.000 N 
ATOM     22  H   UNL     1       5.348   3.170  17.788  0.00  0.00    +0.000 HD
BRANCH  21  23
ATOM     23  C   UNL     1       3.996   4.338  16.708  0.00  0.00    +0.000 C 
BRANCH  23  24
ATOM     24  C   UNL     1       3.107   4.562  17.952  0.00  0.00    +0.000 C 
BRANCH  24  25
ATOM     25  N   UNL     1       3.256   3.526  19.000  0.00  0.00    +0.000 NA
ATOM     26  C   UNL     1       2.488   2.292  18.724  0.00  0.00    +0.000 C 
ATOM     27  C   UNL     1       0.967   2.511  18.769  0.00  0.00    +0.000 C 
ATOM     28  O   UNL     1       0.562   3.008  20.051  0.00  0.00    +0.000 OA
ATOM     29  C   UNL     1       1.259   4.215  20.391  0.00  0.00    +0.000 C 
ATOM     30  C   UNL     1       2.789   4.045  20.307  0.00  0.00    +0.000 C 
ENDBRANCH  24  25
ENDBRANCH  23  24
ENDBRANCH  21  23
ENDBRANCH   4  21
TORSDOF 7
ENDMDL
MODEL 5
REMARK VINA RESULT:      -7.3      3.621      9.928
REMARK  Name = 
REMARK  7 active torsions:
REMARK  status: ('A' for Active; 'I' for Inactive)
REMARK    1  A    between atoms: C_2  and  C_20
REMARK    2  A    between atoms: N_3  and  C_4
REMARK    3  A    between atoms: C_7  and  N_8
REMARK    4  A    between atoms: N_8  and  C_9
REMARK    5  A    between atoms: C_9  and  C_10
REMARK    6  A    between atoms: C_10  and  N_11
REMARK    7  A    between atoms: C_26  and  O_27
REMARK                            x       y       z     vdW  Elec       q    Type
REMARK                         _______ _______ _______ _____ _____    ______ ____
ROOT
ATOM      1  C   UNL     1       4.293   4.513  17.381  0.00  0.00    +0.000 A 
ATOM      2  C   UNL     1       2.904   4.627  17.517  0.00  0.00    +0.000 A 
ATOM      3  C   UNL     1       2.325   4.989  18.698  0.00  0.00    +0.000 A 
ATOM      4  C   UNL     1       3.080   5.240  19.844  0.00  0.00    +0.000 A 
ATOM      5  C   UNL     1       4.481   5.157  19.720  0.00  0.00    +0.000 A 
ATOM      6  C   UNL     1       5.078   4.803  18.510  0.00  0.00    +0.000 A 
ATOM      7 CL   UNL     1       6.805   4.908  18.421  0.00  0.00    +0.000 Cl
ENDROOT
BRANCH   1  10
ATOM      8  O   UNL     1       5.324   6.305  15.378  0.00  0.00    +0.000 OA
ATOM      9  C   UNL     1       5.317   5.085  15.230  0.00  0.00    +0.000 C 
ATOM     10  N   UNL     1       4.841   4.159  16.140  0.00  0.00    +0.000 N 
ATOM     11  H   UNL     1       5.074   3.180  15.968  0.00  0.00    +0.000 HD
BRANCH   9  12
ATOM     12  C   UNL     1       5.935   4.580  13.989  0.00  0.00    +0.000 A 
ATOM     13  C   UNL     1       5.134   3.746  13.189  0.00  0.00    +0.000 A 
ATOM     14  C   UNL     1       5.642   3.209  12.016  0.00  0.00    +0.000 A 
ATOM     15 CL   UNL     1       4.654   2.197  11.038  0.00  0.00    +0.000 Cl
ATOM     16  C   UNL     1       6.960   3.480  11.626  0.00  0.00    +0.000 A 
ATOM     17  C   UNL     1       7.756   4.307  12.420  0.00  0.00    +0.000 A 
ATOM     18  C   UNL     1       7.248   4.859  13.592  0.00  0.00    +0.000 A 
BRANCH  18  19
ATOM     19  O   UNL     1       8.048   5.663  14.355  0.00  0.00    +0.000 OA
ATOM     20  H   UNL     1       8.554   6.255  13.770  0.00  0.00    +0.000 HD
ENDBRANCH  18  19
ENDBRANCH   9  12
ENDBRANCH   1  10
BRANCH   4  21
ATOM     21  N   UNL     1       2.491   5.643  21.053  0.00  0.00    +0.000 N 
ATOM     22  H   UNL     1       3.160   6.187  21.601  0.00  0.00    +0.000 HD
BRANCH  21  23
ATOM     23  C   UNL     1       1.185   6.327  20.937  0.00  0.00    +0.000 C 
BRANCH  23  24
ATOM     24  C   UNL     1       1.352   7.863  20.925  0.00  0.00    +0.000 C 
BRANCH  24  25
ATOM     25  N   UNL     1       0.081   8.612  20.793  0.00  0.00    +0.000 NA
ATOM     26  C   UNL     1       0.264  10.016  20.365  0.00  0.00    +0.000 C 
ATOM     27  C   UNL     1       0.980  10.876  21.418  0.00  0.00    +0.000 C 
ATOM     28  O   UNL     1       0.250  10.881  22.652  0.00  0.00    +0.000 OA
ATOM     29  C   UNL     1       0.037   9.549  23.142  0.00  0.00    +0.000 C 
ATOM     30  C   UNL     1      -0.634   8.644  22.090  0.00  0.00    +0.000 C 
ENDBRANCH  24  25
ENDBRANCH  23  24
ENDBRANCH  21  23
ENDBRANCH   4  21
TORSDOF 7
ENDMDL
MODEL 6
REMARK VINA RESULT:      -7.3      1.377      1.611
REMARK  Name = 
REMARK  7 active torsions:
REMARK  status: ('A' for Active; 'I' for Inactive)
REMARK    1  A    between atoms: C_2  and  C_20
REMARK    2  A    between atoms: N_3  and  C_4
REMARK    3  A    between atoms: C_7  and  N_8
REMARK    4  A    between atoms: N_8  and  C_9
REMARK    5  A    between atoms: C_9  and  C_10
REMARK    6  A    between atoms: C_10  and  N_11
REMARK    7  A    between atoms: C_26  and  O_27
REMARK                            x       y       z     vdW  Elec       q    Type
REMARK                         _______ _______ _______ _____ _____    ______ ____
ROOT
ATOM      1  C   UNL     1       1.548   8.701  20.066  0.00  0.00    +0.000 A 
ATOM      2  C   UNL     1       1.636   7.471  20.729  0.00  0.00    +0.000 A 
ATOM      3  C   UNL     1       2.082   6.346  20.099  0.00  0.00    +0.000 A 
ATOM      4  C   UNL     1       2.449   6.350  18.754  0.00  0.00    +0.000 A 
ATOM      5  C   UNL     1       2.393   7.584  18.077  0.00  0.00    +0.000 A 
ATOM      6  C   UNL     1       1.953   8.740  18.721  0.00  0.00    +0.000 A 
ATOM      7 CL   UNL     1       2.097  10.232  17.851  0.00  0.00    +0.000 Cl
ENDROOT
BRANCH   1  10
ATOM      8  O   UNL     1      -0.958  10.072  19.710  0.00  0.00    +0.000 OA
ATOM      9  C   UNL     1      -0.119  10.436  20.532  0.00  0.00    +0.000 C 
ATOM     10  N   UNL     1       1.105   9.834  20.763  0.00  0.00    +0.000 N 
ATOM     11  H   UNL     1       1.611  10.125  21.600  0.00  0.00    +0.000 HD
BRANCH   9  12
ATOM     12  C   UNL     1      -0.498  11.581  21.381  0.00  0.00    +0.000 A 
ATOM     13  C   UNL     1      -1.643  11.414  22.179  0.00  0.00    +0.000 A 
ATOM     14  C   UNL     1      -2.084  12.447  22.991  0.00  0.00    +0.000 A 
ATOM     15 CL   UNL     1      -3.479  12.232  23.973  0.00  0.00    +0.000 Cl
ATOM     16  C   UNL     1      -1.402  13.671  23.012  0.00  0.00    +0.000 A 
ATOM     17  C   UNL     1      -0.266  13.839  22.218  0.00  0.00    +0.000 A 
ATOM     18  C   UNL     1       0.188  12.801  21.411  0.00  0.00    +0.000 A 
BRANCH  18  19
ATOM     19  O   UNL     1       1.302  12.991  20.640  0.00  0.00    +0.000 OA
ATOM     20  H   UNL     1       1.448  12.199  20.093  0.00  0.00    +0.000 HD
ENDBRANCH  18  19
ENDBRANCH   9  12
ENDBRANCH   1  10
BRANCH   4  21
ATOM     21  N   UNL     1       2.937   5.201  18.109  0.00  0.00    +0.000 N 
ATOM     22  H   UNL     1       3.239   5.436  17.163  0.00  0.00    +0.000 HD
BRANCH  21  23
ATOM     23  C   UNL     1       3.969   4.439  18.845  0.00  0.00    +0.000 C 
BRANCH  23  24
ATOM     24  C   UNL     1       5.231   5.295  19.096  0.00  0.00    +0.000 C 
BRANCH  24  25
ATOM     25  N   UNL     1       6.484   4.695  18.583  0.00  0.00    +0.000 NA
ATOM     26  C   UNL     1       7.670   5.560  18.765  0.00  0.00    +0.000 C 
ATOM     27  C   UNL     1       7.613   6.842  17.918  0.00  0.00    +0.000 C 
ATOM     28  O   UNL     1       7.504   6.527  16.524  0.00  0.00    +0.000 OA
ATOM     29  C   UNL     1       6.366   5.693  16.261  0.00  0.00    +0.000 C 
ATOM     30  C   UNL     1       6.366   4.421  17.132  0.00  0.00    +0.000 C 
ENDBRANCH  24  25
ENDBRANCH  23  24
ENDBRANCH  21  23
ENDBRANCH   4  21
TORSDOF 7
ENDMDL
MODEL 7
REMARK VINA RESULT:      -7.2      1.691      2.477
REMARK  Name = 
REMARK  7 active torsions:
REMARK  status: ('A' for Active; 'I' for Inactive)
REMARK    1  A    between atoms: C_2  and  C_20
REMARK    2  A    between atoms: N_3  and  C_4
REMARK    3  A    between atoms: C_7  and  N_8
REMARK    4  A    between atoms: N_8  and  C_9
REMARK    5  A    between atoms: C_9  and  C_10
REMARK    6  A    between atoms: C_10  and  N_11
REMARK    7  A    between atoms: C_26  and  O_27
REMARK                            x       y       z     vdW  Elec       q    Type
REMARK                         _______ _______ _______ _____ _____    ______ ____
ROOT
ATOM      1  C   UNL     1       1.680   8.972  19.266  0.00  0.00    +0.000 A 
ATOM      2  C   UNL     1       2.076   8.407  18.048  0.00  0.00    +0.000 A 
ATOM      3  C   UNL     1       2.432   7.094  17.948  0.00  0.00    +0.000 A 
ATOM      4  C   UNL     1       2.448   6.247  19.055  0.00  0.00    +0.000 A 
ATOM      5  C   UNL     1       2.027   6.790  20.285  0.00  0.00    +0.000 A 
ATOM      6  C   UNL     1       1.646   8.128  20.389  0.00  0.00    +0.000 A 
ATOM      7 CL   UNL     1       0.974   8.642  21.901  0.00  0.00    +0.000 Cl
ENDROOT
BRANCH   1  10
ATOM      8  O   UNL     1      -0.995  10.020  19.077  0.00  0.00    +0.000 OA
ATOM      9  C   UNL     1      -0.012  10.745  19.216  0.00  0.00    +0.000 C 
ATOM     10  N   UNL     1       1.301  10.322  19.314  0.00  0.00    +0.000 N 
ATOM     11  H   UNL     1       1.987  11.013  19.618  0.00  0.00    +0.000 HD
BRANCH   9  12
ATOM     12  C   UNL     1      -0.285  12.188  19.351  0.00  0.00    +0.000 A 
ATOM     13  C   UNL     1      -1.349  12.545  20.197  0.00  0.00    +0.000 A 
ATOM     14  C   UNL     1      -1.690  13.878  20.365  0.00  0.00    +0.000 A 
ATOM     15 CL   UNL     1      -2.987  14.308  21.409  0.00  0.00    +0.000 Cl
ATOM     16  C   UNL     1      -0.987  14.879  19.681  0.00  0.00    +0.000 A 
ATOM     17  C   UNL     1       0.069  14.526  18.839  0.00  0.00    +0.000 A 
ATOM     18  C   UNL     1       0.423  13.190  18.677  0.00  0.00    +0.000 A 
BRANCH  18  19
ATOM     19  O   UNL     1       1.459  12.869  17.845  0.00  0.00    +0.000 OA
ATOM     20  H   UNL     1       2.180  13.509  17.973  0.00  0.00    +0.000 HD
ENDBRANCH  18  19
ENDBRANCH   9  12
ENDBRANCH   1  10
BRANCH   4  21
ATOM     21  N   UNL     1       2.785   4.887  18.951  0.00  0.00    +0.000 N 
ATOM     22  H   UNL     1       2.013   4.370  18.528  0.00  0.00    +0.000 HD
BRANCH  21  23
ATOM     23  C   UNL     1       4.075   4.592  18.291  0.00  0.00    +0.000 C 
BRANCH  23  24
ATOM     24  C   UNL     1       5.253   5.273  19.023  0.00  0.00    +0.000 C 
BRANCH  24  25
ATOM     25  N   UNL     1       6.587   4.756  18.639  0.00  0.00    +0.000 NA
ATOM     26  C   UNL     1       7.689   5.704  18.915  0.00  0.00    +0.000 C 
ATOM     27  C   UNL     1       7.624   6.968  18.045  0.00  0.00    +0.000 C 
ATOM     28  O   UNL     1       7.669   6.631  16.652  0.00  0.00    +0.000 OA
ATOM     29  C   UNL     1       6.621   5.717  16.299  0.00  0.00    +0.000 C 
ATOM     30  C   UNL     1       6.626   4.457  17.189  0.00  0.00    +0.000 C 
ENDBRANCH  24  25
ENDBRANCH  23  24
ENDBRANCH  21  23
ENDBRANCH   4  21
TORSDOF 7
ENDMDL
MODEL 8
REMARK VINA RESULT:      -7.2      1.969      2.867
REMARK  Name = 
REMARK  7 active torsions:
REMARK  status: ('A' for Active; 'I' for Inactive)
REMARK    1  A    between atoms: C_2  and  C_20
REMARK    2  A    between atoms: N_3  and  C_4
REMARK    3  A    between atoms: C_7  and  N_8
REMARK    4  A    between atoms: N_8  and  C_9
REMARK    5  A    between atoms: C_9  and  C_10
REMARK    6  A    between atoms: C_10  and  N_11
REMARK    7  A    between atoms: C_26  and  O_27
REMARK                            x       y       z     vdW  Elec       q    Type
REMARK                         _______ _______ _______ _____ _____    ______ ____
ROOT
ATOM      1  C   UNL     1       1.566   9.155  19.428  0.00  0.00    +0.000 A 
ATOM      2  C   UNL     1       2.032   8.648  18.209  0.00  0.00    +0.000 A 
ATOM      3  C   UNL     1       2.438   7.352  18.079  0.00  0.00    +0.000 A 
ATOM      4  C   UNL     1       2.437   6.466  19.156  0.00  0.00    +0.000 A 
ATOM      5  C   UNL     1       1.945   6.951  20.384  0.00  0.00    +0.000 A 
ATOM      6  C   UNL     1       1.515   8.270  20.518  0.00  0.00    +0.000 A 
ATOM      7 CL   UNL     1       0.762   8.707  22.016  0.00  0.00    +0.000 Cl
ENDROOT
BRANCH   1  10
ATOM      8  O   UNL     1      -1.110  10.135  19.020  0.00  0.00    +0.000 OA
ATOM      9  C   UNL     1      -0.171  10.879  19.296  0.00  0.00    +0.000 C 
ATOM     10  N   UNL     1       1.139  10.489  19.506  0.00  0.00    +0.000 N 
ATOM     11  H   UNL     1       1.767  11.182  19.913  0.00  0.00    +0.000 HD
BRANCH   9  12
ATOM     12  C   UNL     1      -0.505  12.305  19.476  0.00  0.00    +0.000 A 
ATOM     13  C   UNL     1      -1.548  12.592  20.373  0.00  0.00    +0.000 A 
ATOM     14  C   UNL     1      -1.942  13.904  20.587  0.00  0.00    +0.000 A 
ATOM     15 CL   UNL     1      -3.212  14.249  21.694  0.00  0.00    +0.000 Cl
ATOM     16  C   UNL     1      -1.317  14.952  19.898  0.00  0.00    +0.000 A 
ATOM     17  C   UNL     1      -0.282  14.668  19.005  0.00  0.00    +0.000 A 
ATOM     18  C   UNL     1       0.126  13.354  18.797  0.00  0.00    +0.000 A 
BRANCH  18  19
ATOM     19  O   UNL     1       1.140  13.100  17.915  0.00  0.00    +0.000 OA
ATOM     20  H   UNL     1       1.607  12.293  18.192  0.00  0.00    +0.000 HD
ENDBRANCH  18  19
ENDBRANCH   9  12
ENDBRANCH   1  10
BRANCH   4  21
ATOM     21  N   UNL     1       2.825   5.123  19.020  0.00  0.00    +0.000 N 
ATOM     22  H   UNL     1       2.250   4.533  19.623  0.00  0.00    +0.000 HD
BRANCH  21  23
ATOM     23  C   UNL     1       2.883   4.607  17.635  0.00  0.00    +0.000 C 
BRANCH  23  24
ATOM     24  C   UNL     1       4.337   4.311  17.204  0.00  0.00    +0.000 C 
BRANCH  24  25
ATOM     25  N   UNL     1       5.111   5.511  16.812  0.00  0.00    +0.000 NA
ATOM     26  C   UNL     1       5.652   5.441  15.436  0.00  0.00    +0.000 C 
ATOM     27  C   UNL     1       6.727   4.355  15.270  0.00  0.00    +0.000 C 
ATOM     28  O   UNL     1       7.823   4.581  16.165  0.00  0.00    +0.000 OA
ATOM     29  C   UNL     1       7.381   4.654  17.528  0.00  0.00    +0.000 C 
ATOM     30  C   UNL     1       6.265   5.700  17.722  0.00  0.00    +0.000 C 
ENDBRANCH  24  25
ENDBRANCH  23  24
ENDBRANCH  21  23
ENDBRANCH   4  21
TORSDOF 7
ENDMDL
MODEL 9
REMARK VINA RESULT:      -7.2      1.162      1.599
REMARK  Name = 
REMARK  7 active torsions:
REMARK  status: ('A' for Active; 'I' for Inactive)
REMARK    1  A    between atoms: C_2  and  C_20
REMARK    2  A    between atoms: N_3  and  C_4
REMARK    3  A    between atoms: C_7  and  N_8
REMARK    4  A    between atoms: N_8  and  C_9
REMARK    5  A    between atoms: C_9  and  C_10
REMARK    6  A    between atoms: C_10  and  N_11
REMARK    7  A    between atoms: C_26  and  O_27
REMARK                            x       y       z     vdW  Elec       q    Type
REMARK                         _______ _______ _______ _____ _____    ______ ____
ROOT
ATOM      1  C   UNL     1       1.491   8.341  20.230  0.00  0.00    +0.000 A 
ATOM      2  C   UNL     1       1.439   7.227  21.076  0.00  0.00    +0.000 A 
ATOM      3  C   UNL     1       1.833   5.990  20.659  0.00  0.00    +0.000 A 
ATOM      4  C   UNL     1       2.284   5.758  19.360  0.00  0.00    +0.000 A 
ATOM      5  C   UNL     1       2.369   6.871  18.502  0.00  0.00    +0.000 A 
ATOM      6  C   UNL     1       1.982   8.141  18.929  0.00  0.00    +0.000 A 
ATOM      7 CL   UNL     1       2.298   9.465  17.857  0.00  0.00    +0.000 Cl
ENDROOT
BRANCH   1  10
ATOM      8  O   UNL     1      -0.946   9.740  19.602  0.00  0.00    +0.000 OA
ATOM      9  C   UNL     1      -0.097  10.203  20.361  0.00  0.00    +0.000 C 
ATOM     10  N   UNL     1       1.095   9.597  20.713  0.00  0.00    +0.000 N 
ATOM     11  H   UNL     1       1.608  10.006  21.495  0.00  0.00    +0.000 HD
BRANCH   9  12
ATOM     12  C   UNL     1      -0.429  11.495  20.992  0.00  0.00    +0.000 A 
ATOM     13  C   UNL     1      -0.484  12.610  20.138  0.00  0.00    +0.000 A 
ATOM     14  C   UNL     1      -0.767  13.867  20.651  0.00  0.00    +0.000 A 
ATOM     15 CL   UNL     1      -0.844  15.225  19.598  0.00  0.00    +0.000 Cl
ATOM     16  C   UNL     1      -0.985  14.039  22.024  0.00  0.00    +0.000 A 
ATOM     17  C   UNL     1      -0.928  12.933  22.873  0.00  0.00    +0.000 A 
ATOM     18  C   UNL     1      -0.657  11.667  22.363  0.00  0.00    +0.000 A 
BRANCH  18  19
ATOM     19  O   UNL     1      -0.603  10.599  23.215  0.00  0.00    +0.000 OA
ATOM     20  H   UNL     1       0.212  10.096  23.044  0.00  0.00    +0.000 HD
ENDBRANCH  18  19
ENDBRANCH   9  12
ENDBRANCH   1  10
BRANCH   4  21
ATOM     21  N   UNL     1       2.719   4.492  18.935  0.00  0.00    +0.000 N 
ATOM     22  H   UNL     1       2.115   3.767  19.327  0.00  0.00    +0.000 HD
BRANCH  21  23
ATOM     23  C   UNL     1       2.902   4.329  17.477  0.00  0.00    +0.000 C 
BRANCH  23  24
ATOM     24  C   UNL     1       4.391   4.135  17.113  0.00  0.00    +0.000 C 
BRANCH  24  25
ATOM     25  N   UNL     1       5.091   5.383  16.731  0.00  0.00    +0.000 NA
ATOM     26  C   UNL     1       5.605   5.372  15.344  0.00  0.00    +0.000 C 
ATOM     27  C   UNL     1       6.732   4.349  15.131  0.00  0.00    +0.000 C 
ATOM     28  O   UNL     1       7.834   4.615  16.010  0.00  0.00    +0.000 OA
ATOM     29  C   UNL     1       7.418   4.634  17.383  0.00  0.00    +0.000 C 
ATOM     30  C   UNL     1       6.252   5.615  17.622  0.00  0.00    +0.000 C 
ENDBRANCH  24  25
ENDBRANCH  23  24
ENDBRANCH  21  23
ENDBRANCH   4  21
TORSDOF 7
ENDMDL
