MODEL 1
REMARK VINA RESULT:      -7.9      0.000      0.000
REMARK  Name = 
REMARK  6 active torsions:
REMARK  status: ('A' for Active; 'I' for Inactive)
REMARK    1  A    between atoms: C_6  and  C_7
REMARK    2  A    between atoms: C_7  and  N_8
REMARK    3  A    between atoms: C_9  and  C_10
REMARK    4  A    between atoms: C_13  and  O_14
REMARK    5  A    between atoms: O_14  and  C_15
REMARK    6  A    between atoms: C_25  and  C_26
REMARK                            x       y       z     vdW  Elec       q    Type
REMARK                         _______ _______ _______ _____ _____    ______ ____
ROOT
ATOM      1  N   UNL     1       0.341  11.992  19.596  0.00  0.00    +0.000 N 
ATOM      2  C   UNL     1       0.164  10.747  18.968  0.00  0.00    +0.000 A 
ATOM      3  C   UNL     1      -1.005  10.842  18.239  0.00  0.00    +0.000 A 
ATOM      4  C   UNL     1      -1.464  12.171  18.315  0.00  0.00    +0.000 A 
ATOM      5  C   UNL     1      -0.620  12.905  19.139  0.00  0.00    +0.000 A 
ENDROOT
BRANCH   5   6
ATOM      6  C   UNL     1      -0.730  14.343  19.518  0.00  0.00    +0.000 A 
ATOM      7  C   UNL     1      -0.246  15.335  18.642  0.00  0.00    +0.000 A 
ATOM      8  C   UNL     1      -0.258  16.695  18.973  0.00  0.00    +0.000 A 
ATOM      9  C   UNL     1      -0.845  17.116  20.156  0.00  0.00    +0.000 A 
ATOM     10  C   UNL     1      -1.393  16.170  21.017  0.00  0.00    +0.000 A 
ATOM     11  C   UNL     1      -1.314  14.797  20.722  0.00  0.00    +0.000 A 
ATOM     12 CL   UNL     1      -1.941  13.745  21.950  0.00  0.00    +0.000 Cl
ENDBRANCH   5   6
BRANCH   2  13
ATOM     13  C   UNL     1       1.032   9.567  19.144  0.00  0.00    +0.000 A 
ATOM     14  C   UNL     1       1.779   9.045  18.079  0.00  0.00    +0.000 A 
ATOM     15  C   UNL     1       2.484   7.839  18.225  0.00  0.00    +0.000 A 
ATOM     16  C   UNL     1       2.414   7.127  19.424  0.00  0.00    +0.000 A 
ATOM     17  C   UNL     1       1.664   7.642  20.479  0.00  0.00    +0.000 A 
ATOM     18  C   UNL     1       1.082   8.900  20.372  0.00  0.00    +0.000 A 
BRANCH  16  19
ATOM     19  O   UNL     1       3.081   5.922  19.481  0.00  0.00    +0.000 OA
BRANCH  19  20
ATOM     20  C   UNL     1       2.354   4.769  19.371  0.00  0.00    +0.000 A 
ATOM     21  C   UNL     1       2.063   4.271  18.119  0.00  0.00    +0.000 A 
ATOM     22  N   UNL     1       1.321   3.162  17.906  0.00  0.00    +0.000 NA
ATOM     23  C   UNL     1       0.856   2.551  19.011  0.00  0.00    +0.000 A 
ATOM     24  N   UNL     1       1.091   2.926  20.279  0.00  0.00    +0.000 NA
ATOM     25  C   UNL     1       1.864   4.022  20.425  0.00  0.00    +0.000 A 
ENDBRANCH  19  20
ENDBRANCH  16  19
ENDBRANCH   2  13
BRANCH   1  26
ATOM     26  C   UNL     1       1.456  12.277  20.512  0.00  0.00    +0.000 C 
BRANCH  26  32
ATOM     27  N   UNL     1       4.163  14.774  17.485  0.00  0.00    +0.000 N 
ATOM     28  C   UNL     1       3.576  14.711  18.744  0.00  0.00    +0.000 A 
ATOM     29  C   UNL     1       3.666  15.767  19.636  0.00  0.00    +0.000 A 
ATOM     30  C   UNL     1       3.068  15.644  20.885  0.00  0.00    +0.000 A 
ATOM     31  C   UNL     1       2.400  14.471  21.191  0.00  0.00    +0.000 A 
ATOM     32  C   UNL     1       2.334  13.462  20.227  0.00  0.00    +0.000 A 
ATOM     33  N   UNL     1       2.899  13.590  19.012  0.00  0.00    +0.000 NA
ATOM     34  H   UNL     1       5.154  14.968  17.552  0.00  0.00    +0.000 HD
ATOM     35  H   UNL     1       3.992  13.861  17.063  0.00  0.00    +0.000 HD
ENDBRANCH  26  32
ENDBRANCH   1  26
TORSDOF 6
ENDMDL
MODEL 2
REMARK VINA RESULT:      -7.9      3.324      5.059
REMARK  Name = 
REMARK  6 active torsions:
REMARK  status: ('A' for Active; 'I' for Inactive)
REMARK    1  A    between atoms: C_6  and  C_7
REMARK    2  A    between atoms: C_7  and  N_8
REMARK    3  A    between atoms: C_9  and  C_10
REMARK    4  A    between atoms: C_13  and  O_14
REMARK    5  A    between atoms: O_14  and  C_15
REMARK    6  A    between atoms: C_25  and  C_26
REMARK                            x       y       z     vdW  Elec       q    Type
REMARK                         _______ _______ _______ _____ _____    ______ ____
ROOT
ATOM      1  N   UNL     1      -0.031  10.503  20.925  0.00  0.00    +0.000 N 
ATOM      2  C   UNL     1       0.563   9.272  21.252  0.00  0.00    +0.000 A 
ATOM      3  C   UNL     1       0.467   9.146  22.623  0.00  0.00    +0.000 A 
ATOM      4  C   UNL     1      -0.295  10.224  23.112  0.00  0.00    +0.000 A 
ATOM      5  C   UNL     1      -0.633  11.066  22.060  0.00  0.00    +0.000 A 
ENDROOT
BRANCH   5   6
ATOM      6  C   UNL     1      -1.416  12.333  22.114  0.00  0.00    +0.000 A 
ATOM      7  C   UNL     1      -2.802  12.287  22.365  0.00  0.00    +0.000 A 
ATOM      8  C   UNL     1      -3.601  13.437  22.358  0.00  0.00    +0.000 A 
ATOM      9  C   UNL     1      -3.020  14.685  22.194  0.00  0.00    +0.000 A 
ATOM     10  C   UNL     1      -1.645  14.775  22.009  0.00  0.00    +0.000 A 
ATOM     11  C   UNL     1      -0.850  13.616  21.939  0.00  0.00    +0.000 A 
ATOM     12 CL   UNL     1       0.825  13.895  21.590  0.00  0.00    +0.000 Cl
ENDBRANCH   5   6
BRANCH   2  13
ATOM     13  C   UNL     1       1.225   8.360  20.299  0.00  0.00    +0.000 A 
ATOM     14  C   UNL     1       1.444   7.011  20.611  0.00  0.00    +0.000 A 
ATOM     15  C   UNL     1       2.202   6.195  19.757  0.00  0.00    +0.000 A 
ATOM     16  C   UNL     1       2.780   6.731  18.605  0.00  0.00    +0.000 A 
ATOM     17  C   UNL     1       2.570   8.074  18.299  0.00  0.00    +0.000 A 
ATOM     18  C   UNL     1       1.708   8.839  19.077  0.00  0.00    +0.000 A 
BRANCH  16  19
ATOM     19  O   UNL     1       3.562   5.891  17.842  0.00  0.00    +0.000 OA
BRANCH  19  20
ATOM     20  C   UNL     1       4.917   6.074  17.851  0.00  0.00    +0.000 A 
ATOM     21  C   UNL     1       5.675   5.468  18.831  0.00  0.00    +0.000 A 
ATOM     22  N   UNL     1       7.013   5.619  18.946  0.00  0.00    +0.000 NA
ATOM     23  C   UNL     1       7.589   6.422  18.034  0.00  0.00    +0.000 A 
ATOM     24  N   UNL     1       6.963   7.046  17.023  0.00  0.00    +0.000 NA
ATOM     25  C   UNL     1       5.634   6.830  16.943  0.00  0.00    +0.000 A 
ENDBRANCH  19  20
ENDBRANCH  16  19
ENDBRANCH   2  13
BRANCH   1  26
ATOM     26  C   UNL     1      -0.083  11.030  19.553  0.00  0.00    +0.000 C 
BRANCH  26  32
ATOM     27  N   UNL     1      -4.552  12.320  18.505  0.00  0.00    +0.000 N 
ATOM     28  C   UNL     1      -3.469  11.506  18.191  0.00  0.00    +0.000 A 
ATOM     29  C   UNL     1      -3.494  10.664  17.090  0.00  0.00    +0.000 A 
ATOM     30  C   UNL     1      -2.386   9.865  16.831  0.00  0.00    +0.000 A 
ATOM     31  C   UNL     1      -1.296   9.942  17.680  0.00  0.00    +0.000 A 
ATOM     32  C   UNL     1      -1.339  10.833  18.754  0.00  0.00    +0.000 A 
ATOM     33  N   UNL     1      -2.407  11.619  18.994  0.00  0.00    +0.000 NA
ATOM     34  H   UNL     1      -5.398  11.777  18.618  0.00  0.00    +0.000 HD
ATOM     35  H   UNL     1      -4.292  12.787  19.375  0.00  0.00    +0.000 HD
ENDBRANCH  26  32
ENDBRANCH   1  26
TORSDOF 6
ENDMDL
MODEL 3
REMARK VINA RESULT:      -7.9      3.172      4.933
REMARK  Name = 
REMARK  6 active torsions:
REMARK  status: ('A' for Active; 'I' for Inactive)
REMARK    1  A    between atoms: C_6  and  C_7
REMARK    2  A    between atoms: C_7  and  N_8
REMARK    3  A    between atoms: C_9  and  C_10
REMARK    4  A    between atoms: C_13  and  O_14
REMARK    5  A    between atoms: O_14  and  C_15
REMARK    6  A    between atoms: C_25  and  C_26
REMARK                            x       y       z     vdW  Elec       q    Type
REMARK                         _______ _______ _______ _____ _____    ______ ____
ROOT
ATOM      1  N   UNL     1       0.505  10.180  20.641  0.00  0.00    +0.000 N 
ATOM      2  C   UNL     1       1.102   8.932  20.886  0.00  0.00    +0.000 A 
ATOM      3  C   UNL     1       1.120   8.771  22.257  0.00  0.00    +0.000 A 
ATOM      4  C   UNL     1       0.422   9.848  22.836  0.00  0.00    +0.000 A 
ATOM      5  C   UNL     1       0.011  10.723  21.837  0.00  0.00    +0.000 A 
ENDROOT
BRANCH   5   6
ATOM      6  C   UNL     1      -0.741  12.001  21.989  0.00  0.00    +0.000 A 
ATOM      7  C   UNL     1      -2.080  11.974  22.426  0.00  0.00    +0.000 A 
ATOM      8  C   UNL     1      -2.858  13.135  22.521  0.00  0.00    +0.000 A 
ATOM      9  C   UNL     1      -2.289  14.374  22.273  0.00  0.00    +0.000 A 
ATOM     10  C   UNL     1      -0.950  14.445  21.903  0.00  0.00    +0.000 A 
ATOM     11  C   UNL     1      -0.187  13.275  21.733  0.00  0.00    +0.000 A 
ATOM     12 CL   UNL     1       1.429  13.530  21.158  0.00  0.00    +0.000 Cl
ENDBRANCH   5   6
BRANCH   2  13
ATOM     13  C   UNL     1       1.664   8.035  19.857  0.00  0.00    +0.000 A 
ATOM     14  C   UNL     1       1.770   6.653  20.072  0.00  0.00    +0.000 A 
ATOM     15  C   UNL     1       2.438   5.836  19.147  0.00  0.00    +0.000 A 
ATOM     16  C   UNL     1       3.039   6.400  18.020  0.00  0.00    +0.000 A 
ATOM     17  C   UNL     1       2.942   7.774  17.811  0.00  0.00    +0.000 A 
ATOM     18  C   UNL     1       2.164   8.554  18.659  0.00  0.00    +0.000 A 
BRANCH  16  19
ATOM     19  O   UNL     1       3.730   5.551  17.183  0.00  0.00    +0.000 OA
BRANCH  19  20
ATOM     20  C   UNL     1       5.053   5.315  17.439  0.00  0.00    +0.000 A 
ATOM     21  C   UNL     1       5.993   5.627  16.480  0.00  0.00    +0.000 A 
ATOM     22  N   UNL     1       7.317   5.396  16.625  0.00  0.00    +0.000 NA
ATOM     23  C   UNL     1       7.685   4.820  17.783  0.00  0.00    +0.000 A 
ATOM     24  N   UNL     1       6.868   4.493  18.798  0.00  0.00    +0.000 NA
ATOM     25  C   UNL     1       5.564   4.777  18.605  0.00  0.00    +0.000 A 
ENDBRANCH  19  20
ENDBRANCH  16  19
ENDBRANCH   2  13
BRANCH   1  26
ATOM     26  C   UNL     1       0.346  10.745  19.293  0.00  0.00    +0.000 C 
BRANCH  26  32
ATOM     27  N   UNL     1      -4.104  12.356  18.721  0.00  0.00    +0.000 N 
ATOM     28  C   UNL     1      -3.119  11.474  18.291  0.00  0.00    +0.000 A 
ATOM     29  C   UNL     1      -3.315  10.654  17.191  0.00  0.00    +0.000 A 
ATOM     30  C   UNL     1      -2.299   9.784  16.812  0.00  0.00    +0.000 A 
ATOM     31  C   UNL     1      -1.125   9.772  17.545  0.00  0.00    +0.000 A 
ATOM     32  C   UNL     1      -0.996  10.647  18.626  0.00  0.00    +0.000 A 
ATOM     33  N   UNL     1      -1.975  11.501  18.981  0.00  0.00    +0.000 NA
ATOM     34  H   UNL     1      -4.971  11.871  18.916  0.00  0.00    +0.000 HD
ATOM     35  H   UNL     1      -3.725  12.791  19.564  0.00  0.00    +0.000 HD
ENDBRANCH  26  32
ENDBRANCH   1  26
TORSDOF 6
ENDMDL
MODEL 4
REMARK VINA RESULT:      -7.9      2.963      4.396
REMARK  Name = 
REMARK  6 active torsions:
REMARK  status: ('A' for Active; 'I' for Inactive)
REMARK    1  A    between atoms: C_6  and  C_7
REMARK    2  A    between atoms: C_7  and  N_8
REMARK    3  A    between atoms: C_9  and  C_10
REMARK    4  A    between atoms: C_13  and  O_14
REMARK    5  A    between atoms: O_14  and  C_15
REMARK    6  A    between atoms: C_25  and  C_26
REMARK                            x       y       z     vdW  Elec       q    Type
REMARK                         _______ _______ _______ _____ _____    ______ ____
ROOT
ATOM      1  N   UNL     1      -0.246  10.715  21.055  0.00  0.00    +0.000 N 
ATOM      2  C   UNL     1       0.396   9.521  21.424  0.00  0.00    +0.000 A 
ATOM      3  C   UNL     1       0.188   9.370  22.780  0.00  0.00    +0.000 A 
ATOM      4  C   UNL     1      -0.684  10.390  23.208  0.00  0.00    +0.000 A 
ATOM      5  C   UNL     1      -0.981  11.223  22.136  0.00  0.00    +0.000 A 
ENDROOT
BRANCH   5   6
ATOM      6  C   UNL     1      -1.847  12.437  22.129  0.00  0.00    +0.000 A 
ATOM      7  C   UNL     1      -3.247  12.296  22.187  0.00  0.00    +0.000 A 
ATOM      8  C   UNL     1      -4.113  13.394  22.115  0.00  0.00    +0.000 A 
ATOM      9  C   UNL     1      -3.599  14.681  22.078  0.00  0.00    +0.000 A 
ATOM     10  C   UNL     1      -2.220  14.862  22.085  0.00  0.00    +0.000 A 
ATOM     11  C   UNL     1      -1.348  13.758  22.081  0.00  0.00    +0.000 A 
ATOM     12 CL   UNL     1       0.336  14.154  21.974  0.00  0.00    +0.000 Cl
ENDBRANCH   5   6
BRANCH   2  13
ATOM     13  C   UNL     1       1.198   8.666  20.527  0.00  0.00    +0.000 A 
ATOM     14  C   UNL     1       1.594   9.110  19.257  0.00  0.00    +0.000 A 
ATOM     15  C   UNL     1       2.229   8.236  18.361  0.00  0.00    +0.000 A 
ATOM     16  C   UNL     1       2.436   6.901  18.713  0.00  0.00    +0.000 A 
ATOM     17  C   UNL     1       2.035   6.458  19.972  0.00  0.00    +0.000 A 
ATOM     18  C   UNL     1       1.532   7.361  20.901  0.00  0.00    +0.000 A 
BRANCH  16  19
ATOM     19  O   UNL     1       3.011   6.081  17.766  0.00  0.00    +0.000 OA
BRANCH  19  20
ATOM     20  C   UNL     1       2.979   4.728  17.968  0.00  0.00    +0.000 A 
ATOM     21  C   UNL     1       4.017   4.122  18.642  0.00  0.00    +0.000 A 
ATOM     22  N   UNL     1       4.095   2.790  18.858  0.00  0.00    +0.000 NA
ATOM     23  C   UNL     1       3.083   2.058  18.358  0.00  0.00    +0.000 A 
ATOM     24  N   UNL     1       2.010   2.536  17.707  0.00  0.00    +0.000 NA
ATOM     25  C   UNL     1       1.975   3.875  17.551  0.00  0.00    +0.000 A 
ENDBRANCH  19  20
ENDBRANCH  16  19
ENDBRANCH   2  13
BRANCH   1  26
ATOM     26  C   UNL     1      -0.210  11.257  19.688  0.00  0.00    +0.000 C 
BRANCH  26  32
ATOM     27  N   UNL     1      -4.579  12.342  18.118  0.00  0.00    +0.000 N 
ATOM     28  C   UNL     1      -3.446  11.551  17.960  0.00  0.00    +0.000 A 
ATOM     29  C   UNL     1      -3.330  10.658  16.907  0.00  0.00    +0.000 A 
ATOM     30  C   UNL     1      -2.179   9.886  16.804  0.00  0.00    +0.000 A 
ATOM     31  C   UNL     1      -1.186  10.040  17.757  0.00  0.00    +0.000 A 
ATOM     32  C   UNL     1      -1.369  10.979  18.775  0.00  0.00    +0.000 A 
ATOM     33  N   UNL     1      -2.478  11.738  18.862  0.00  0.00    +0.000 NA
ATOM     34  H   UNL     1      -5.416  11.776  18.170  0.00  0.00    +0.000 HD
ATOM     35  H   UNL     1      -4.426  12.859  18.985  0.00  0.00    +0.000 HD
ENDBRANCH  26  32
ENDBRANCH   1  26
TORSDOF 6
ENDMDL
MODEL 5
REMARK VINA RESULT:      -7.8      3.273      4.809
REMARK  Name = 
REMARK  6 active torsions:
REMARK  status: ('A' for Active; 'I' for Inactive)
REMARK    1  A    between atoms: C_6  and  C_7
REMARK    2  A    between atoms: C_7  and  N_8
REMARK    3  A    between atoms: C_9  and  C_10
REMARK    4  A    between atoms: C_13  and  O_14
REMARK    5  A    between atoms: O_14  and  C_15
REMARK    6  A    between atoms: C_25  and  C_26
REMARK                            x       y       z     vdW  Elec       q    Type
REMARK                         _______ _______ _______ _____ _____    ______ ____
ROOT
ATOM      1  N   UNL     1      -0.404  10.879  20.831  0.00  0.00    +0.000 N 
ATOM      2  C   UNL     1       0.277   9.738  21.289  0.00  0.00    +0.000 A 
ATOM      3  C   UNL     1       0.066   9.679  22.652  0.00  0.00    +0.000 A 
ATOM      4  C   UNL     1      -0.844  10.696  23.001  0.00  0.00    +0.000 A 
ATOM      5  C   UNL     1      -1.164  11.437  21.869  0.00  0.00    +0.000 A 
ENDROOT
BRANCH   5   6
ATOM      6  C   UNL     1      -2.073  12.615  21.771  0.00  0.00    +0.000 A 
ATOM      7  C   UNL     1      -3.465  12.434  21.889  0.00  0.00    +0.000 A 
ATOM      8  C   UNL     1      -4.372  13.491  21.736  0.00  0.00    +0.000 A 
ATOM      9  C   UNL     1      -3.906  14.783  21.555  0.00  0.00    +0.000 A 
ATOM     10  C   UNL     1      -2.534  15.010  21.499  0.00  0.00    +0.000 A 
ATOM     11  C   UNL     1      -1.624  13.940  21.576  0.00  0.00    +0.000 A 
ATOM     12 CL   UNL     1       0.042  14.378  21.375  0.00  0.00    +0.000 Cl
ENDBRANCH   5   6
BRANCH   2  13
ATOM     13  C   UNL     1       1.115   8.850  20.459  0.00  0.00    +0.000 A 
ATOM     14  C   UNL     1       1.537   9.232  19.178  0.00  0.00    +0.000 A 
ATOM     15  C   UNL     1       2.208   8.321  18.347  0.00  0.00    +0.000 A 
ATOM     16  C   UNL     1       2.426   7.010  18.775  0.00  0.00    +0.000 A 
ATOM     17  C   UNL     1       1.999   6.628  20.045  0.00  0.00    +0.000 A 
ATOM     18  C   UNL     1       1.458   7.572  20.911  0.00  0.00    +0.000 A 
BRANCH  16  19
ATOM     19  O   UNL     1       3.037   6.150  17.888  0.00  0.00    +0.000 OA
BRANCH  19  20
ATOM     20  C   UNL     1       4.378   5.917  18.024  0.00  0.00    +0.000 A 
ATOM     21  C   UNL     1       5.269   6.627  17.247  0.00  0.00    +0.000 A 
ATOM     22  N   UNL     1       6.607   6.441  17.281  0.00  0.00    +0.000 NA
ATOM     23  C   UNL     1       7.043   5.492  18.130  0.00  0.00    +0.000 A 
ATOM     24  N   UNL     1       6.277   4.755  18.951  0.00  0.00    +0.000 NA
ATOM     25  C   UNL     1       4.954   5.010  18.892  0.00  0.00    +0.000 A 
ENDBRANCH  19  20
ENDBRANCH  16  19
ENDBRANCH   2  13
BRANCH   1  26
ATOM     26  C   UNL     1      -0.379  11.320  19.428  0.00  0.00    +0.000 C 
BRANCH  26  32
ATOM     27  N   UNL     1      -4.795  12.256  17.895  0.00  0.00    +0.000 N 
ATOM     28  C   UNL     1      -3.650  11.481  17.749  0.00  0.00    +0.000 A 
ATOM     29  C   UNL     1      -3.535  10.548  16.731  0.00  0.00    +0.000 A 
ATOM     30  C   UNL     1      -2.371   9.794  16.639  0.00  0.00    +0.000 A 
ATOM     31  C   UNL     1      -1.365  10.006  17.567  0.00  0.00    +0.000 A 
ATOM     32  C   UNL     1      -1.548  10.983  18.548  0.00  0.00    +0.000 A 
ATOM     33  N   UNL     1      -2.670  11.724  18.624  0.00  0.00    +0.000 NA
ATOM     34  H   UNL     1      -5.620  11.677  17.985  0.00  0.00    +0.000 HD
ATOM     35  H   UNL     1      -4.638  12.811  18.737  0.00  0.00    +0.000 HD
ENDBRANCH  26  32
ENDBRANCH   1  26
TORSDOF 6
ENDMDL
MODEL 6
REMARK VINA RESULT:      -7.8      2.439      4.380
REMARK  Name = 
REMARK  6 active torsions:
REMARK  status: ('A' for Active; 'I' for Inactive)
REMARK    1  A    between atoms: C_6  and  C_7
REMARK    2  A    between atoms: C_7  and  N_8
REMARK    3  A    between atoms: C_9  and  C_10
REMARK    4  A    between atoms: C_13  and  O_14
REMARK    5  A    between atoms: O_14  and  C_15
REMARK    6  A    between atoms: C_25  and  C_26
REMARK                            x       y       z     vdW  Elec       q    Type
REMARK                         _______ _______ _______ _____ _____    ______ ____
ROOT
ATOM      1  N   UNL     1      -0.535  11.148  20.114  0.00  0.00    +0.000 N 
ATOM      2  C   UNL     1       0.824  10.832  19.945  0.00  0.00    +0.000 A 
ATOM      3  C   UNL     1       1.535  11.953  20.326  0.00  0.00    +0.000 A 
ATOM      4  C   UNL     1       0.626  12.894  20.847  0.00  0.00    +0.000 A 
ATOM      5  C   UNL     1      -0.667  12.394  20.743  0.00  0.00    +0.000 A 
ENDROOT
BRANCH   5   6
ATOM      6  C   UNL     1      -1.940  13.053  21.151  0.00  0.00    +0.000 A 
ATOM      7  C   UNL     1      -2.457  14.113  20.380  0.00  0.00    +0.000 A 
ATOM      8  C   UNL     1      -3.610  14.815  20.751  0.00  0.00    +0.000 A 
ATOM      9  C   UNL     1      -4.339  14.414  21.860  0.00  0.00    +0.000 A 
ATOM     10  C   UNL     1      -3.895  13.330  22.610  0.00  0.00    +0.000 A 
ATOM     11  C   UNL     1      -2.696  12.670  22.283  0.00  0.00    +0.000 A 
ATOM     12 CL   UNL     1      -2.225  11.415  23.382  0.00  0.00    +0.000 Cl
ENDBRANCH   5   6
BRANCH   2  13
ATOM     13  C   UNL     1       1.348   9.569  19.388  0.00  0.00    +0.000 A 
ATOM     14  C   UNL     1       1.554   8.444  20.198  0.00  0.00    +0.000 A 
ATOM     15  C   UNL     1       2.187   7.301  19.684  0.00  0.00    +0.000 A 
ATOM     16  C   UNL     1       2.654   7.290  18.369  0.00  0.00    +0.000 A 
ATOM     17  C   UNL     1       2.458   8.413  17.567  0.00  0.00    +0.000 A 
ATOM     18  C   UNL     1       1.711   9.485  18.040  0.00  0.00    +0.000 A 
BRANCH  16  19
ATOM     19  O   UNL     1       3.320   6.160  17.945  0.00  0.00    +0.000 OA
BRANCH  19  20
ATOM     20  C   UNL     1       2.827   4.938  18.310  0.00  0.00    +0.000 A 
ATOM     21  C   UNL     1       1.683   4.462  17.705  0.00  0.00    +0.000 A 
ATOM     22  N   UNL     1       1.099   3.285  18.024  0.00  0.00    +0.000 NA
ATOM     23  C   UNL     1       1.701   2.581  18.999  0.00  0.00    +0.000 A 
ATOM     24  N   UNL     1       2.828   2.928  19.643  0.00  0.00    +0.000 NA
ATOM     25  C   UNL     1       3.379   4.097  19.258  0.00  0.00    +0.000 A 
ENDBRANCH  19  20
ENDBRANCH  16  19
ENDBRANCH   2  13
BRANCH   1  26
ATOM     26  C   UNL     1      -1.623  10.223  19.765  0.00  0.00    +0.000 C 
BRANCH  26  32
ATOM     27  N   UNL     1      -5.125  12.342  17.321  0.00  0.00    +0.000 N 
ATOM     28  C   UNL     1      -4.004  11.522  17.276  0.00  0.00    +0.000 A 
ATOM     29  C   UNL     1      -3.498  11.055  16.073  0.00  0.00    +0.000 A 
ATOM     30  C   UNL     1      -2.379  10.230  16.090  0.00  0.00    +0.000 A 
ATOM     31  C   UNL     1      -1.808   9.908  17.309  0.00  0.00    +0.000 A 
ATOM     32  C   UNL     1      -2.363  10.438  18.475  0.00  0.00    +0.000 A 
ATOM     33  N   UNL     1      -3.436  11.251  18.455  0.00  0.00    +0.000 NA
ATOM     34  H   UNL     1      -5.916  11.907  16.863  0.00  0.00    +0.000 HD
ATOM     35  H   UNL     1      -5.308  12.493  18.313  0.00  0.00    +0.000 HD
ENDBRANCH  26  32
ENDBRANCH   1  26
TORSDOF 6
ENDMDL
MODEL 7
REMARK VINA RESULT:      -7.7      2.798      4.459
REMARK  Name = 
REMARK  6 active torsions:
REMARK  status: ('A' for Active; 'I' for Inactive)
REMARK    1  A    between atoms: C_6  and  C_7
REMARK    2  A    between atoms: C_7  and  N_8
REMARK    3  A    between atoms: C_9  and  C_10
REMARK    4  A    between atoms: C_13  and  O_14
REMARK    5  A    between atoms: O_14  and  C_15
REMARK    6  A    between atoms: C_25  and  C_26
REMARK                            x       y       z     vdW  Elec       q    Type
REMARK                         _______ _______ _______ _____ _____    ______ ____
ROOT
ATOM      1  N   UNL     1      -0.465  11.005  20.631  0.00  0.00    +0.000 N 
ATOM      2  C   UNL     1       0.182   9.858  21.119  0.00  0.00    +0.000 A 
ATOM      3  C   UNL     1       0.043   9.886  22.492  0.00  0.00    +0.000 A 
ATOM      4  C   UNL     1      -0.794  10.968  22.827  0.00  0.00    +0.000 A 
ATOM      5  C   UNL     1      -1.138  11.661  21.672  0.00  0.00    +0.000 A 
ENDROOT
BRANCH   5   6
ATOM      6  C   UNL     1      -1.989  12.879  21.552  0.00  0.00    +0.000 A 
ATOM      7  C   UNL     1      -3.383  12.776  21.732  0.00  0.00    +0.000 A 
ATOM      8  C   UNL     1      -4.241  13.870  21.563  0.00  0.00    +0.000 A 
ATOM      9  C   UNL     1      -3.719  15.127  21.302  0.00  0.00    +0.000 A 
ATOM     10  C   UNL     1      -2.341  15.280  21.182  0.00  0.00    +0.000 A 
ATOM     11  C   UNL     1      -1.483  14.169  21.276  0.00  0.00    +0.000 A 
ATOM     12 CL   UNL     1       0.193  14.510  20.990  0.00  0.00    +0.000 Cl
ENDBRANCH   5   6
BRANCH   2  13
ATOM     13  C   UNL     1       0.927   8.881  20.301  0.00  0.00    +0.000 A 
ATOM     14  C   UNL     1       1.301   7.631  20.816  0.00  0.00    +0.000 A 
ATOM     15  C   UNL     1       2.132   6.774  20.077  0.00  0.00    +0.000 A 
ATOM     16  C   UNL     1       2.628   7.177  18.836  0.00  0.00    +0.000 A 
ATOM     17  C   UNL     1       2.264   8.423  18.329  0.00  0.00    +0.000 A 
ATOM     18  C   UNL     1       1.334   9.205  19.003  0.00  0.00    +0.000 A 
BRANCH  16  19
ATOM     19  O   UNL     1       3.487   6.314  18.190  0.00  0.00    +0.000 OA
BRANCH  19  20
ATOM     20  C   UNL     1       3.180   4.981  18.171  0.00  0.00    +0.000 A 
ATOM     21  C   UNL     1       4.065   4.076  18.719  0.00  0.00    +0.000 A 
ATOM     22  N   UNL     1       3.870   2.739  18.714  0.00  0.00    +0.000 NA
ATOM     23  C   UNL     1       2.738   2.318  18.122  0.00  0.00    +0.000 A 
ATOM     24  N   UNL     1       1.793   3.101  17.577  0.00  0.00    +0.000 NA
ATOM     25  C   UNL     1       2.031   4.427  17.641  0.00  0.00    +0.000 A 
ENDBRANCH  19  20
ENDBRANCH  16  19
ENDBRANCH   2  13
BRANCH   1  26
ATOM     26  C   UNL     1      -0.494  11.366  19.205  0.00  0.00    +0.000 C 
BRANCH  26  32
ATOM     27  N   UNL     1      -4.953  12.359  17.842  0.00  0.00    +0.000 N 
ATOM     28  C   UNL     1      -3.840  11.542  17.681  0.00  0.00    +0.000 A 
ATOM     29  C   UNL     1      -3.802  10.555  16.709  0.00  0.00    +0.000 A 
ATOM     30  C   UNL     1      -2.666   9.762  16.600  0.00  0.00    +0.000 A 
ATOM     31  C   UNL     1      -1.609   9.990  17.465  0.00  0.00    +0.000 A 
ATOM     32  C   UNL     1      -1.715  11.020  18.402  0.00  0.00    +0.000 A 
ATOM     33  N   UNL     1      -2.810  11.799  18.494  0.00  0.00    +0.000 NA
ATOM     34  H   UNL     1      -5.789  11.811  18.002  0.00  0.00    +0.000 HD
ATOM     35  H   UNL     1      -4.738  12.950  18.645  0.00  0.00    +0.000 HD
ENDBRANCH  26  32
ENDBRANCH   1  26
TORSDOF 6
ENDMDL
MODEL 8
REMARK VINA RESULT:      -7.7      2.908      4.511
REMARK  Name = 
REMARK  6 active torsions:
REMARK  status: ('A' for Active; 'I' for Inactive)
REMARK    1  A    between atoms: C_6  and  C_7
REMARK    2  A    between atoms: C_7  and  N_8
REMARK    3  A    between atoms: C_9  and  C_10
REMARK    4  A    between atoms: C_13  and  O_14
REMARK    5  A    between atoms: O_14  and  C_15
REMARK    6  A    between atoms: C_25  and  C_26
REMARK                            x       y       z     vdW  Elec       q    Type
REMARK                         _______ _______ _______ _____ _____    ______ ____
ROOT
ATOM      1  N   UNL     1      -0.636  11.207  20.548  0.00  0.00    +0.000 N 
ATOM      2  C   UNL     1       0.108  10.135  21.069  0.00  0.00    +0.000 A 
ATOM      3  C   UNL     1      -0.099  10.143  22.434  0.00  0.00    +0.000 A 
ATOM      4  C   UNL     1      -1.065  11.126  22.726  0.00  0.00    +0.000 A 
ATOM      5  C   UNL     1      -1.426  11.781  21.555  0.00  0.00    +0.000 A 
ENDROOT
BRANCH   5   6
ATOM      6  C   UNL     1      -2.399  12.899  21.392  0.00  0.00    +0.000 A 
ATOM      7  C   UNL     1      -3.780  12.643  21.498  0.00  0.00    +0.000 A 
ATOM      8  C   UNL     1      -4.743  13.638  21.286  0.00  0.00    +0.000 A 
ATOM      9  C   UNL     1      -4.349  14.946  21.054  0.00  0.00    +0.000 A 
ATOM     10  C   UNL     1      -2.993  15.250  21.008  0.00  0.00    +0.000 A 
ATOM     11  C   UNL     1      -2.023  14.239  21.145  0.00  0.00    +0.000 A 
ATOM     12 CL   UNL     1      -0.383  14.764  20.949  0.00  0.00    +0.000 Cl
ENDBRANCH   5   6
BRANCH   2  13
ATOM     13  C   UNL     1       0.994   9.248  20.290  0.00  0.00    +0.000 A 
ATOM     14  C   UNL     1       1.351   9.552  18.968  0.00  0.00    +0.000 A 
ATOM     15  C   UNL     1       2.073   8.629  18.194  0.00  0.00    +0.000 A 
ATOM     16  C   UNL     1       2.407   7.381  18.722  0.00  0.00    +0.000 A 
ATOM     17  C   UNL     1       2.044   7.076  20.033  0.00  0.00    +0.000 A 
ATOM     18  C   UNL     1       1.451   8.044  20.835  0.00  0.00    +0.000 A 
BRANCH  16  19
ATOM     19  O   UNL     1       3.063   6.500  17.890  0.00  0.00    +0.000 OA
BRANCH  19  20
ATOM     20  C   UNL     1       3.462   5.295  18.400  0.00  0.00    +0.000 A 
ATOM     21  C   UNL     1       4.747   5.156  18.881  0.00  0.00    +0.000 A 
ATOM     22  N   UNL     1       5.245   3.998  19.368  0.00  0.00    +0.000 NA
ATOM     23  C   UNL     1       4.403   2.949  19.352  0.00  0.00    +0.000 A 
ATOM     24  N   UNL     1       3.127   2.967  18.933  0.00  0.00    +0.000 NA
ATOM     25  C   UNL     1       2.680   4.159  18.488  0.00  0.00    +0.000 A 
ENDBRANCH  19  20
ENDBRANCH  16  19
ENDBRANCH   2  13
BRANCH   1  26
ATOM     26  C   UNL     1      -0.636  11.567  19.123  0.00  0.00    +0.000 C 
BRANCH  26  32
ATOM     27  N   UNL     1      -5.040  12.298  17.449  0.00  0.00    +0.000 N 
ATOM     28  C   UNL     1      -3.888  11.521  17.399  0.00  0.00    +0.000 A 
ATOM     29  C   UNL     1      -3.754  10.485  16.489  0.00  0.00    +0.000 A 
ATOM     30  C   UNL     1      -2.584   9.735  16.491  0.00  0.00    +0.000 A 
ATOM     31  C   UNL     1      -1.591  10.054  17.402  0.00  0.00    +0.000 A 
ATOM     32  C   UNL     1      -1.792  11.128  18.271  0.00  0.00    +0.000 A 
ATOM     33  N   UNL     1      -2.920  11.864  18.255  0.00  0.00    +0.000 NA
ATOM     34  H   UNL     1      -5.862  11.726  17.591  0.00  0.00    +0.000 HD
ATOM     35  H   UNL     1      -4.896  12.942  18.228  0.00  0.00    +0.000 HD
ENDBRANCH  26  32
ENDBRANCH   1  26
TORSDOF 6
ENDMDL
MODEL 9
REMARK VINA RESULT:      -7.6      1.263      1.531
REMARK  Name = 
REMARK  6 active torsions:
REMARK  status: ('A' for Active; 'I' for Inactive)
REMARK    1  A    between atoms: C_6  and  C_7
REMARK    2  A    between atoms: C_7  and  N_8
REMARK    3  A    between atoms: C_9  and  C_10
REMARK    4  A    between atoms: C_13  and  O_14
REMARK    5  A    between atoms: O_14  and  C_15
REMARK    6  A    between atoms: C_25  and  C_26
REMARK                            x       y       z     vdW  Elec       q    Type
REMARK                         _______ _______ _______ _____ _____    ______ ____
ROOT
ATOM      1  N   UNL     1      -0.173  11.712  20.072  0.00  0.00    +0.000 N 
ATOM      2  C   UNL     1      -0.234  10.559  19.272  0.00  0.00    +0.000 A 
ATOM      3  C   UNL     1      -1.481  10.560  18.680  0.00  0.00    +0.000 A 
ATOM      4  C   UNL     1      -2.124  11.769  19.011  0.00  0.00    +0.000 A 
ATOM      5  C   UNL     1      -1.308  12.508  19.860  0.00  0.00    +0.000 A 
ENDROOT
BRANCH   5   6
ATOM      6  C   UNL     1      -1.588  13.838  20.472  0.00  0.00    +0.000 A 
ATOM      7  C   UNL     1      -1.042  15.001  19.895  0.00  0.00    +0.000 A 
ATOM      8  C   UNL     1      -1.212  16.269  20.465  0.00  0.00    +0.000 A 
ATOM      9  C   UNL     1      -2.018  16.425  21.582  0.00  0.00    +0.000 A 
ATOM     10  C   UNL     1      -2.627  15.307  22.142  0.00  0.00    +0.000 A 
ATOM     11  C   UNL     1      -2.397  14.022  21.616  0.00  0.00    +0.000 A 
ATOM     12 CL   UNL     1      -3.138  12.726  22.497  0.00  0.00    +0.000 Cl
ENDBRANCH   5   6
BRANCH   2  13
ATOM     13  C   UNL     1       0.817   9.527  19.175  0.00  0.00    +0.000 A 
ATOM     14  C   UNL     1       1.501   9.293  17.973  0.00  0.00    +0.000 A 
ATOM     15  C   UNL     1       2.392   8.214  17.858  0.00  0.00    +0.000 A 
ATOM     16  C   UNL     1       2.575   7.338  18.930  0.00  0.00    +0.000 A 
ATOM     17  C   UNL     1       1.889   7.566  20.121  0.00  0.00    +0.000 A 
ATOM     18  C   UNL     1       1.115   8.711  20.271  0.00  0.00    +0.000 A 
BRANCH  16  19
ATOM     19  O   UNL     1       3.417   6.266  18.731  0.00  0.00    +0.000 OA
BRANCH  19  20
ATOM     20  C   UNL     1       2.888   5.005  18.765  0.00  0.00    +0.000 A 
ATOM     21  C   UNL     1       1.944   4.643  17.827  0.00  0.00    +0.000 A 
ATOM     22  N   UNL     1       1.336   3.437  17.802  0.00  0.00    +0.000 NA
ATOM     23  C   UNL     1       1.700   2.580  18.772  0.00  0.00    +0.000 A 
ATOM     24  N   UNL     1       2.622   2.808  19.722  0.00  0.00    +0.000 NA
ATOM     25  C   UNL     1       3.215   4.018  19.675  0.00  0.00    +0.000 A 
ENDBRANCH  19  20
ENDBRANCH  16  19
ENDBRANCH   2  13
BRANCH   1  26
ATOM     26  C   UNL     1       0.986  12.046  20.913  0.00  0.00    +0.000 C 
BRANCH  26  32
ATOM     27  N   UNL     1       4.532  15.129  21.719  0.00  0.00    +0.000 N 
ATOM     28  C   UNL     1       3.750  14.473  20.775  0.00  0.00    +0.000 A 
ATOM     29  C   UNL     1       3.988  14.613  19.417  0.00  0.00    +0.000 A 
ATOM     30  C   UNL     1       3.167  13.941  18.519  0.00  0.00    +0.000 A 
ATOM     31  C   UNL     1       2.143  13.152  19.014  0.00  0.00    +0.000 A 
ATOM     32  C   UNL     1       1.984  13.044  20.398  0.00  0.00    +0.000 A 
ATOM     33  N   UNL     1       2.791  13.682  21.266  0.00  0.00    +0.000 NA
ATOM     34  H   UNL     1       4.535  16.129  21.562  0.00  0.00    +0.000 HD
ATOM     35  H   UNL     1       4.115  14.897  22.621  0.00  0.00    +0.000 HD
ENDBRANCH  26  32
ENDBRANCH   1  26
TORSDOF 6
ENDMDL
