MODEL 1
REMARK VINA RESULT:      -7.8      0.000      0.000
REMARK  Name = 
REMARK  6 active torsions:
REMARK  status: ('A' for Active; 'I' for Inactive)
REMARK    1  A    between atoms: C_1  and  C_2
REMARK    2  A    between atoms: N_4  and  C_5
REMARK    3  A    between atoms: C_5  and  C_6
REMARK    4  A    between atoms: C_5  and  C_7
REMARK    5  A    between atoms: C_10  and  O_11
REMARK    6  A    between atoms: O_11  and  C_12
REMARK                            x       y       z     vdW  Elec       q    Type
REMARK                         _______ _______ _______ _____ _____    ______ ____
ROOT
ATOM      1  C   UNL     1       5.584   4.487  14.923  0.00  0.00    +0.000 A 
ATOM      2  C   UNL     1       5.285   3.650  16.007  0.00  0.00    +0.000 A 
ATOM      3  C   UNL     1       4.842   4.188  17.220  0.00  0.00    +0.000 A 
ATOM      4  C   UNL     1       4.701   5.566  17.375  0.00  0.00    +0.000 A 
ATOM      5  C   UNL     1       4.968   6.408  16.297  0.00  0.00    +0.000 A 
ATOM      6  C   UNL     1       5.410   5.872  15.083  0.00  0.00    +0.000 A 
ENDROOT
BRANCH   1   7
ATOM      7  C   UNL     1       6.110   3.910  13.616  0.00  0.00    +0.000 C 
ATOM      8  C   UNL     1       7.329   4.714  13.148  0.00  0.00    +0.000 C 
BRANCH   7  12
ATOM      9  C   UNL     1       3.752   3.060  10.769  0.00  0.00    +0.000 C 
ATOM     10  C   UNL     1       4.945   2.899  11.671  0.00  0.00    +0.000 C 
ATOM     11  O   UNL     1       5.733   1.968  11.556  0.00  0.00    +0.000 OA
ATOM     12  N   UNL     1       5.047   3.891  12.619  0.00  0.00    +0.000 N 
ATOM     13  H   UNL     1       4.215   4.431  12.820  0.00  0.00    +0.000 HD
ENDBRANCH   7  12
ENDBRANCH   1   7
BRANCH   4  14
ATOM     14  O   UNL     1       4.254   5.992  18.602  0.00  0.00    +0.000 OA
BRANCH  14  15
ATOM     15  C   UNL     1       2.898   6.489  18.702  0.00  0.00    +0.000 C 
ATOM     16  C   UNL     1       2.331   6.620  20.130  0.00  0.00    +0.000 C 
ATOM     17  N   UNL     1       1.818   7.887  19.740  0.00  0.00    +0.000 N 
ATOM     18  C   UNL     1       1.131   8.875  20.444  0.00  0.00    +0.000 A 
ATOM     19  C   UNL     1       0.626   8.611  21.719  0.00  0.00    +0.000 A 
ATOM     20  C   UNL     1      -0.108   9.587  22.395  0.00  0.00    +0.000 A 
ATOM     21  C   UNL     1      -0.328  10.809  21.778  0.00  0.00    +0.000 A 
ATOM     22 BR   UNL     1      -1.327  12.156  22.635  0.00  0.00    +0.000 Br
ATOM     23  C   UNL     1       0.200  11.003  20.515  0.00  0.00    +0.000 A 
ATOM     24  N   UNL     1       0.924  10.070  19.845  0.00  0.00    +0.000 NA
ATOM     25  C   UNL     1       2.675   8.014  18.608  0.00  0.00    +0.000 C 
ENDBRANCH  14  15
ENDBRANCH   4  14
TORSDOF 4
ENDMDL
MODEL 2
REMARK VINA RESULT:      -7.2      4.269      5.316
REMARK  Name = 
REMARK  6 active torsions:
REMARK  status: ('A' for Active; 'I' for Inactive)
REMARK    1  A    between atoms: C_1  and  C_2
REMARK    2  A    between atoms: N_4  and  C_5
REMARK    3  A    between atoms: C_5  and  C_6
REMARK    4  A    between atoms: C_5  and  C_7
REMARK    5  A    between atoms: C_10  and  O_11
REMARK    6  A    between atoms: O_11  and  C_12
REMARK                            x       y       z     vdW  Elec       q    Type
REMARK                         _______ _______ _______ _____ _____    ______ ____
ROOT
ATOM      1  C   UNL     1       5.869   3.682  12.338  0.00  0.00    +0.000 A 
ATOM      2  C   UNL     1       7.029   4.438  12.119  0.00  0.00    +0.000 A 
ATOM      3  C   UNL     1       7.644   5.118  13.177  0.00  0.00    +0.000 A 
ATOM      4  C   UNL     1       7.108   5.063  14.462  0.00  0.00    +0.000 A 
ATOM      5  C   UNL     1       5.971   4.292  14.699  0.00  0.00    +0.000 A 
ATOM      6  C   UNL     1       5.356   3.611  13.644  0.00  0.00    +0.000 A 
ENDROOT
BRANCH   1   7
ATOM      7  C   UNL     1       5.171   2.977  11.183  0.00  0.00    +0.000 C 
ATOM      8  C   UNL     1       3.729   3.484  11.063  0.00  0.00    +0.000 C 
BRANCH   7  12
ATOM      9  C   UNL     1       6.222  -0.659  11.421  0.00  0.00    +0.000 C 
ATOM     10  C   UNL     1       6.375   0.807  11.124  0.00  0.00    +0.000 C 
ATOM     11  O   UNL     1       7.421   1.286  10.705  0.00  0.00    +0.000 OA
ATOM     12  N   UNL     1       5.232   1.533  11.372  0.00  0.00    +0.000 N 
ATOM     13  H   UNL     1       4.538   1.117  11.978  0.00  0.00    +0.000 HD
ENDBRANCH   7  12
ENDBRANCH   1   7
BRANCH   4  14
ATOM     14  O   UNL     1       7.790   5.760  15.430  0.00  0.00    +0.000 OA
BRANCH  14  15
ATOM     15  C   UNL     1       7.154   5.946  16.716  0.00  0.00    +0.000 C 
ATOM     16  C   UNL     1       5.613   6.002  16.705  0.00  0.00    +0.000 C 
ATOM     17  N   UNL     1       5.638   5.147  17.841  0.00  0.00    +0.000 N 
ATOM     18  C   UNL     1       4.621   4.550  18.585  0.00  0.00    +0.000 A 
ATOM     19  C   UNL     1       3.292   4.936  18.400  0.00  0.00    +0.000 A 
ATOM     20  C   UNL     1       2.285   4.373  19.187  0.00  0.00    +0.000 A 
ATOM     21  C   UNL     1       2.631   3.437  20.149  0.00  0.00    +0.000 A 
ATOM     22 BR   UNL     1       1.319   2.658  21.252  0.00  0.00    +0.000 Br
ATOM     23  C   UNL     1       3.966   3.101  20.279  0.00  0.00    +0.000 A 
ATOM     24  N   UNL     1       4.958   3.631  19.518  0.00  0.00    +0.000 NA
ATOM     25  C   UNL     1       6.977   4.710  17.625  0.00  0.00    +0.000 C 
ENDBRANCH  14  15
ENDBRANCH   4  14
TORSDOF 4
ENDMDL
MODEL 3
REMARK VINA RESULT:      -7.2      1.255      1.402
REMARK  Name = 
REMARK  6 active torsions:
REMARK  status: ('A' for Active; 'I' for Inactive)
REMARK    1  A    between atoms: C_1  and  C_2
REMARK    2  A    between atoms: N_4  and  C_5
REMARK    3  A    between atoms: C_5  and  C_6
REMARK    4  A    between atoms: C_5  and  C_7
REMARK    5  A    between atoms: C_10  and  O_11
REMARK    6  A    between atoms: O_11  and  C_12
REMARK                            x       y       z     vdW  Elec       q    Type
REMARK                         _______ _______ _______ _____ _____    ______ ____
ROOT
ATOM      1  C   UNL     1       5.649   4.071  15.938  0.00  0.00    +0.000 A 
ATOM      2  C   UNL     1       4.336   3.614  16.116  0.00  0.00    +0.000 A 
ATOM      3  C   UNL     1       3.712   3.713  17.364  0.00  0.00    +0.000 A 
ATOM      4  C   UNL     1       4.389   4.260  18.454  0.00  0.00    +0.000 A 
ATOM      5  C   UNL     1       5.685   4.744  18.284  0.00  0.00    +0.000 A 
ATOM      6  C   UNL     1       6.310   4.645  17.037  0.00  0.00    +0.000 A 
ENDROOT
BRANCH   1   7
ATOM      7  C   UNL     1       6.349   3.923  14.594  0.00  0.00    +0.000 C 
ATOM      8  C   UNL     1       7.281   5.119  14.360  0.00  0.00    +0.000 C 
BRANCH   7  12
ATOM      9  C   UNL     1       4.482   3.127  11.390  0.00  0.00    +0.000 C 
ATOM     10  C   UNL     1       5.662   3.203  12.320  0.00  0.00    +0.000 C 
ATOM     11  O   UNL     1       6.770   2.785  12.009  0.00  0.00    +0.000 OA
ATOM     12  N   UNL     1       5.361   3.780  13.533  0.00  0.00    +0.000 N 
ATOM     13  H   UNL     1       4.386   3.820  13.801  0.00  0.00    +0.000 HD
ENDBRANCH   7  12
ENDBRANCH   1   7
BRANCH   4  14
ATOM     14  O   UNL     1       3.685   4.318  19.632  0.00  0.00    +0.000 OA
BRANCH  14  15
ATOM     15  C   UNL     1       2.457   5.084  19.659  0.00  0.00    +0.000 C 
ATOM     16  C   UNL     1       2.157   5.832  20.973  0.00  0.00    +0.000 C 
ATOM     17  N   UNL     1       1.790   6.951  20.177  0.00  0.00    +0.000 N 
ATOM     18  C   UNL     1       1.387   8.244  20.508  0.00  0.00    +0.000 A 
ATOM     19  C   UNL     1       1.062   8.565  21.828  0.00  0.00    +0.000 A 
ATOM     20  C   UNL     1       0.607   9.847  22.143  0.00  0.00    +0.000 A 
ATOM     21  C   UNL     1       0.482  10.782  21.128  0.00  0.00    +0.000 A 
ATOM     22 BR   UNL     1      -0.143  12.521  21.492  0.00  0.00    +0.000 Br
ATOM     23  C   UNL     1       0.821  10.398  19.844  0.00  0.00    +0.000 A 
ATOM     24  N   UNL     1       1.273   9.159  19.520  0.00  0.00    +0.000 NA
ATOM     25  C   UNL     1       2.460   6.484  19.009  0.00  0.00    +0.000 C 
ENDBRANCH  14  15
ENDBRANCH   4  14
TORSDOF 4
ENDMDL
MODEL 4
REMARK VINA RESULT:      -7.2      3.876      5.901
REMARK  Name = 
REMARK  6 active torsions:
REMARK  status: ('A' for Active; 'I' for Inactive)
REMARK    1  A    between atoms: C_1  and  C_2
REMARK    2  A    between atoms: N_4  and  C_5
REMARK    3  A    between atoms: C_5  and  C_6
REMARK    4  A    between atoms: C_5  and  C_7
REMARK    5  A    between atoms: C_10  and  O_11
REMARK    6  A    between atoms: O_11  and  C_12
REMARK                            x       y       z     vdW  Elec       q    Type
REMARK                         _______ _______ _______ _____ _____    ______ ____
ROOT
ATOM      1  C   UNL     1       2.955   6.789  18.305  0.00  0.00    +0.000 A 
ATOM      2  C   UNL     1       2.443   6.538  19.586  0.00  0.00    +0.000 A 
ATOM      3  C   UNL     1       1.698   7.514  20.257  0.00  0.00    +0.000 A 
ATOM      4  C   UNL     1       1.462   8.756  19.669  0.00  0.00    +0.000 A 
ATOM      5  C   UNL     1       1.942   9.008  18.385  0.00  0.00    +0.000 A 
ATOM      6  C   UNL     1       2.685   8.034  17.712  0.00  0.00    +0.000 A 
ENDROOT
BRANCH   1   7
ATOM      7  C   UNL     1       3.804   5.748  17.589  0.00  0.00    +0.000 C 
ATOM      8  C   UNL     1       3.281   4.343  17.909  0.00  0.00    +0.000 C 
BRANCH   7  12
ATOM      9  C   UNL     1       7.489   6.635  17.736  0.00  0.00    +0.000 C 
ATOM     10  C   UNL     1       6.110   6.550  17.140  0.00  0.00    +0.000 C 
ATOM     11  O   UNL     1       5.843   7.010  16.038  0.00  0.00    +0.000 OA
ATOM     12  N   UNL     1       5.204   5.912  17.957  0.00  0.00    +0.000 N 
ATOM     13  H   UNL     1       5.436   5.834  18.938  0.00  0.00    +0.000 HD
ENDBRANCH   7  12
ENDBRANCH   1   7
BRANCH   4  14
ATOM     14  O   UNL     1       0.715   9.640  20.408  0.00  0.00    +0.000 OA
BRANCH  14  15
ATOM     15  C   UNL     1       0.029  10.706  19.710  0.00  0.00    +0.000 C 
ATOM     16  C   UNL     1      -1.053  10.267  18.703  0.00  0.00    +0.000 C 
ATOM     17  N   UNL     1      -1.878  11.293  19.239  0.00  0.00    +0.000 N 
ATOM     18  C   UNL     1      -3.192  11.673  18.972  0.00  0.00    +0.000 A 
ATOM     19  C   UNL     1      -3.865  11.152  17.864  0.00  0.00    +0.000 A 
ATOM     20  C   UNL     1      -5.162  11.579  17.571  0.00  0.00    +0.000 A 
ATOM     21  C   UNL     1      -5.759  12.523  18.392  0.00  0.00    +0.000 A 
ATOM     22 BR   UNL     1      -7.500  13.147  18.036  0.00  0.00    +0.000 Br
ATOM     23  C   UNL     1      -5.036  12.996  19.472  0.00  0.00    +0.000 A 
ATOM     24  N   UNL     1      -3.778  12.587  19.777  0.00  0.00    +0.000 NA
ATOM     25  C   UNL     1      -1.124  11.429  20.441  0.00  0.00    +0.000 C 
ENDBRANCH  14  15
ENDBRANCH   4  14
TORSDOF 4
ENDMDL
MODEL 5
REMARK VINA RESULT:      -7.1      6.494      8.164
REMARK  Name = 
REMARK  6 active torsions:
REMARK  status: ('A' for Active; 'I' for Inactive)
REMARK    1  A    between atoms: C_1  and  C_2
REMARK    2  A    between atoms: N_4  and  C_5
REMARK    3  A    between atoms: C_5  and  C_6
REMARK    4  A    between atoms: C_5  and  C_7
REMARK    5  A    between atoms: C_10  and  O_11
REMARK    6  A    between atoms: O_11  and  C_12
REMARK                            x       y       z     vdW  Elec       q    Type
REMARK                         _______ _______ _______ _____ _____    ______ ____
ROOT
ATOM      1  C   UNL     1       5.364   5.039  18.024  0.00  0.00    +0.000 A 
ATOM      2  C   UNL     1       5.044   6.101  17.167  0.00  0.00    +0.000 A 
ATOM      3  C   UNL     1       5.963   7.133  16.941  0.00  0.00    +0.000 A 
ATOM      4  C   UNL     1       7.206   7.126  17.572  0.00  0.00    +0.000 A 
ATOM      5  C   UNL     1       7.546   6.062  18.405  0.00  0.00    +0.000 A 
ATOM      6  C   UNL     1       6.630   5.030  18.632  0.00  0.00    +0.000 A 
ENDROOT
BRANCH   1   7
ATOM      7  C   UNL     1       4.351   3.938  18.310  0.00  0.00    +0.000 C 
ATOM      8  C   UNL     1       3.537   3.642  17.045  0.00  0.00    +0.000 C 
BRANCH   7  12
ATOM      9  C   UNL     1       2.122   4.014  21.377  0.00  0.00    +0.000 C 
ATOM     10  C   UNL     1       2.924   3.393  20.266  0.00  0.00    +0.000 C 
ATOM     11  O   UNL     1       3.037   2.181  20.137  0.00  0.00    +0.000 OA
ATOM     12  N   UNL     1       3.505   4.321  19.432  0.00  0.00    +0.000 N 
ATOM     13  H   UNL     1       3.599   5.266  19.780  0.00  0.00    +0.000 HD
ENDBRANCH   7  12
ENDBRANCH   1   7
BRANCH   4  14
ATOM     14  O   UNL     1       8.036   8.180  17.278  0.00  0.00    +0.000 OA
BRANCH  14  15
ATOM     15  C   UNL     1       7.991   9.346  18.135  0.00  0.00    +0.000 C 
ATOM     16  C   UNL     1       9.272   9.639  18.942  0.00  0.00    +0.000 C 
ATOM     17  N   UNL     1       9.111  11.004  18.578  0.00  0.00    +0.000 N 
ATOM     18  C   UNL     1       9.889  12.136  18.822  0.00  0.00    +0.000 A 
ATOM     19  C   UNL     1      10.940  12.084  19.741  0.00  0.00    +0.000 A 
ATOM     20  C   UNL     1      11.679  13.235  20.020  0.00  0.00    +0.000 A 
ATOM     21  C   UNL     1      11.347  14.418  19.378  0.00  0.00    +0.000 A 
ATOM     22 BR   UNL     1      12.298  16.005  19.730  0.00  0.00    +0.000 Br
ATOM     23  C   UNL     1      10.295  14.398  18.481  0.00  0.00    +0.000 A 
ATOM     24  N   UNL     1       9.570  13.287  18.190  0.00  0.00    +0.000 NA
ATOM     25  C   UNL     1       8.230  10.729  17.492  0.00  0.00    +0.000 C 
ENDBRANCH  14  15
ENDBRANCH   4  14
TORSDOF 4
ENDMDL
MODEL 6
REMARK VINA RESULT:      -7.1      2.346      3.609
REMARK  Name = 
REMARK  6 active torsions:
REMARK  status: ('A' for Active; 'I' for Inactive)
REMARK    1  A    between atoms: C_1  and  C_2
REMARK    2  A    between atoms: N_4  and  C_5
REMARK    3  A    between atoms: C_5  and  C_6
REMARK    4  A    between atoms: C_5  and  C_7
REMARK    5  A    between atoms: C_10  and  O_11
REMARK    6  A    between atoms: O_11  and  C_12
REMARK                            x       y       z     vdW  Elec       q    Type
REMARK                         _______ _______ _______ _____ _____    ______ ____
ROOT
ATOM      1  C   UNL     1       5.395   5.792  17.869  0.00  0.00    +0.000 A 
ATOM      2  C   UNL     1       5.146   7.014  17.230  0.00  0.00    +0.000 A 
ATOM      3  C   UNL     1       3.906   7.648  17.366  0.00  0.00    +0.000 A 
ATOM      4  C   UNL     1       2.895   7.070  18.132  0.00  0.00    +0.000 A 
ATOM      5  C   UNL     1       3.139   5.869  18.796  0.00  0.00    +0.000 A 
ATOM      6  C   UNL     1       4.378   5.235  18.661  0.00  0.00    +0.000 A 
ENDROOT
BRANCH   1   7
ATOM      7  C   UNL     1       6.727   5.076  17.687  0.00  0.00    +0.000 C 
ATOM      8  C   UNL     1       7.731   5.576  18.731  0.00  0.00    +0.000 C 
BRANCH   7  12
ATOM      9  C   UNL     1       7.395   4.862  13.959  0.00  0.00    +0.000 C 
ATOM     10  C   UNL     1       6.798   4.465  15.282  0.00  0.00    +0.000 C 
ATOM     11  O   UNL     1       6.025   3.522  15.396  0.00  0.00    +0.000 OA
ATOM     12  N   UNL     1       7.209   5.264  16.325  0.00  0.00    +0.000 N 
ATOM     13  H   UNL     1       7.598   6.168  16.093  0.00  0.00    +0.000 HD
ENDBRANCH   7  12
ENDBRANCH   1   7
BRANCH   4  14
ATOM     14  O   UNL     1       1.718   7.775  18.208  0.00  0.00    +0.000 OA
BRANCH  14  15
ATOM     15  C   UNL     1       1.693   8.979  19.010  0.00  0.00    +0.000 C 
ATOM     16  C   UNL     1       0.510   9.935  18.755  0.00  0.00    +0.000 C 
ATOM     17  N   UNL     1       0.391  10.060  20.166  0.00  0.00    +0.000 N 
ATOM     18  C   UNL     1      -0.519  10.745  20.972  0.00  0.00    +0.000 A 
ATOM     19  C   UNL     1      -1.405  11.665  20.408  0.00  0.00    +0.000 A 
ATOM     20  C   UNL     1      -2.276  12.387  21.228  0.00  0.00    +0.000 A 
ATOM     21  C   UNL     1      -2.238  12.175  22.598  0.00  0.00    +0.000 A 
ATOM     22 BR   UNL     1      -3.376  13.133  23.753  0.00  0.00    +0.000 Br
ATOM     23  C   UNL     1      -1.336  11.249  23.088  0.00  0.00    +0.000 A 
ATOM     24  N   UNL     1      -0.488  10.532  22.306  0.00  0.00    +0.000 NA
ATOM     25  C   UNL     1       1.141   8.882  20.449  0.00  0.00    +0.000 C 
ENDBRANCH  14  15
ENDBRANCH   4  14
TORSDOF 4
ENDMDL
MODEL 7
REMARK VINA RESULT:      -7.1      2.992      4.620
REMARK  Name = 
REMARK  6 active torsions:
REMARK  status: ('A' for Active; 'I' for Inactive)
REMARK    1  A    between atoms: C_1  and  C_2
REMARK    2  A    between atoms: N_4  and  C_5
REMARK    3  A    between atoms: C_5  and  C_6
REMARK    4  A    between atoms: C_5  and  C_7
REMARK    5  A    between atoms: C_10  and  O_11
REMARK    6  A    between atoms: O_11  and  C_12
REMARK                            x       y       z     vdW  Elec       q    Type
REMARK                         _______ _______ _______ _____ _____    ______ ____
ROOT
ATOM      1  C   UNL     1       3.064   4.587  18.660  0.00  0.00    +0.000 A 
ATOM      2  C   UNL     1       3.230   5.979  18.657  0.00  0.00    +0.000 A 
ATOM      3  C   UNL     1       2.533   6.780  19.570  0.00  0.00    +0.000 A 
ATOM      4  C   UNL     1       1.655   6.207  20.489  0.00  0.00    +0.000 A 
ATOM      5  C   UNL     1       1.501   4.823  20.519  0.00  0.00    +0.000 A 
ATOM      6  C   UNL     1       2.197   4.021  19.609  0.00  0.00    +0.000 A 
ENDROOT
BRANCH   1   7
ATOM      7  C   UNL     1       3.784   3.716  17.640  0.00  0.00    +0.000 C 
ATOM      8  C   UNL     1       3.367   2.252  17.822  0.00  0.00    +0.000 C 
BRANCH   7  12
ATOM      9  C   UNL     1       7.445   4.552  17.104  0.00  0.00    +0.000 C 
ATOM     10  C   UNL     1       5.990   4.422  16.746  0.00  0.00    +0.000 C 
ATOM     11  O   UNL     1       5.551   4.757  15.653  0.00  0.00    +0.000 OA
ATOM     12  N   UNL     1       5.225   3.897  17.763  0.00  0.00    +0.000 N 
ATOM     13  H   UNL     1       5.609   3.928  18.698  0.00  0.00    +0.000 HD
ENDBRANCH   7  12
ENDBRANCH   1   7
BRANCH   4  14
ATOM     14  O   UNL     1       1.025   7.079  21.344  0.00  0.00    +0.000 OA
BRANCH  14  15
ATOM     15  C   UNL     1       1.209   8.499  21.130  0.00  0.00    +0.000 C 
ATOM     16  C   UNL     1       0.074   9.220  20.375  0.00  0.00    +0.000 C 
ATOM     17  N   UNL     1       0.179  10.258  21.341  0.00  0.00    +0.000 N 
ATOM     18  C   UNL     1      -0.547  11.433  21.535  0.00  0.00    +0.000 A 
ATOM     19  C   UNL     1      -1.438  11.880  20.557  0.00  0.00    +0.000 A 
ATOM     20  C   UNL     1      -2.121  13.086  20.734  0.00  0.00    +0.000 A 
ATOM     21  C   UNL     1      -1.892  13.823  21.885  0.00  0.00    +0.000 A 
ATOM     22 BR   UNL     1      -2.770  15.465  22.168  0.00  0.00    +0.000 Br
ATOM     23  C   UNL     1      -0.996  13.322  22.811  0.00  0.00    +0.000 A 
ATOM     24  N   UNL     1      -0.330  12.148  22.661  0.00  0.00    +0.000 NA
ATOM     25  C   UNL     1       0.875   9.458  22.293  0.00  0.00    +0.000 C 
ENDBRANCH  14  15
ENDBRANCH   4  14
TORSDOF 4
ENDMDL
MODEL 8
REMARK VINA RESULT:      -6.9      3.447      4.743
REMARK  Name = 
REMARK  6 active torsions:
REMARK  status: ('A' for Active; 'I' for Inactive)
REMARK    1  A    between atoms: C_1  and  C_2
REMARK    2  A    between atoms: N_4  and  C_5
REMARK    3  A    between atoms: C_5  and  C_6
REMARK    4  A    between atoms: C_5  and  C_7
REMARK    5  A    between atoms: C_10  and  O_11
REMARK    6  A    between atoms: O_11  and  C_12
REMARK                            x       y       z     vdW  Elec       q    Type
REMARK                         _______ _______ _______ _____ _____    ______ ____
ROOT
ATOM      1  C   UNL     1       2.977   4.959  18.415  0.00  0.00    +0.000 A 
ATOM      2  C   UNL     1       2.503   4.488  19.647  0.00  0.00    +0.000 A 
ATOM      3  C   UNL     1       1.970   5.374  20.589  0.00  0.00    +0.000 A 
ATOM      4  C   UNL     1       1.911   6.741  20.323  0.00  0.00    +0.000 A 
ATOM      5  C   UNL     1       2.353   7.219  19.091  0.00  0.00    +0.000 A 
ATOM      6  C   UNL     1       2.886   6.335  18.148  0.00  0.00    +0.000 A 
ENDROOT
BRANCH   1   7
ATOM      7  C   UNL     1       3.600   4.006  17.404  0.00  0.00    +0.000 C 
ATOM      8  C   UNL     1       3.536   2.570  17.937  0.00  0.00    +0.000 C 
BRANCH   7  12
ATOM      9  C   UNL     1       7.304   4.816  17.508  0.00  0.00    +0.000 C 
ATOM     10  C   UNL     1       5.970   4.374  18.045  0.00  0.00    +0.000 C 
ATOM     11  O   UNL     1       5.817   4.011  19.204  0.00  0.00    +0.000 OA
ATOM     12  N   UNL     1       4.965   4.422  17.106  0.00  0.00    +0.000 N 
ATOM     13  H   UNL     1       5.237   4.447  16.132  0.00  0.00    +0.000 HD
ENDBRANCH   7  12
ENDBRANCH   1   7
BRANCH   4  14
ATOM     14  O   UNL     1       1.364   7.524  21.311  0.00  0.00    +0.000 OA
BRANCH  14  15
ATOM     15  C   UNL     1       0.535   8.643  20.917  0.00  0.00    +0.000 C 
ATOM     16  C   UNL     1      -0.570   9.048  21.913  0.00  0.00    +0.000 C 
ATOM     17  N   UNL     1      -0.189  10.399  21.686  0.00  0.00    +0.000 N 
ATOM     18  C   UNL     1      -0.630  11.601  22.238  0.00  0.00    +0.000 A 
ATOM     19  C   UNL     1      -1.781  11.634  23.028  0.00  0.00    +0.000 A 
ATOM     20  C   UNL     1      -2.247  12.850  23.532  0.00  0.00    +0.000 A 
ATOM     21  C   UNL     1      -1.553  14.011  23.230  0.00  0.00    +0.000 A 
ATOM     22 BR   UNL     1      -2.146  15.682  23.867  0.00  0.00    +0.000 Br
ATOM     23  C   UNL     1      -0.422  13.907  22.442  0.00  0.00    +0.000 A 
ATOM     24  N   UNL     1       0.052  12.733  21.950  0.00  0.00    +0.000 NA
ATOM     25  C   UNL     1       1.085  10.068  21.140  0.00  0.00    +0.000 C 
ENDBRANCH  14  15
ENDBRANCH   4  14
TORSDOF 4
ENDMDL
MODEL 9
REMARK VINA RESULT:      -6.9      6.738      8.252
REMARK  Name = 
REMARK  6 active torsions:
REMARK  status: ('A' for Active; 'I' for Inactive)
REMARK    1  A    between atoms: C_1  and  C_2
REMARK    2  A    between atoms: N_4  and  C_5
REMARK    3  A    between atoms: C_5  and  C_6
REMARK    4  A    between atoms: C_5  and  C_7
REMARK    5  A    between atoms: C_10  and  O_11
REMARK    6  A    between atoms: O_11  and  C_12
REMARK                            x       y       z     vdW  Elec       q    Type
REMARK                         _______ _______ _______ _____ _____    ______ ____
ROOT
ATOM      1  C   UNL     1       5.778   5.381  18.316  0.00  0.00    +0.000 A 
ATOM      2  C   UNL     1       6.973   5.468  19.044  0.00  0.00    +0.000 A 
ATOM      3  C   UNL     1       7.867   6.522  18.821  0.00  0.00    +0.000 A 
ATOM      4  C   UNL     1       7.589   7.496  17.863  0.00  0.00    +0.000 A 
ATOM      5  C   UNL     1       6.392   7.436  17.151  0.00  0.00    +0.000 A 
ATOM      6  C   UNL     1       5.498   6.385  17.374  0.00  0.00    +0.000 A 
ENDROOT
BRANCH   1   7
ATOM      7  C   UNL     1       4.824   4.213  18.522  0.00  0.00    +0.000 C 
ATOM      8  C   UNL     1       4.342   3.691  17.164  0.00  0.00    +0.000 C 
BRANCH   7  12
ATOM      9  C   UNL     1       1.995   4.389  21.043  0.00  0.00    +0.000 C 
ATOM     10  C   UNL     1       3.082   3.744  20.228  0.00  0.00    +0.000 C 
ATOM     11  O   UNL     1       3.358   2.555  20.328  0.00  0.00    +0.000 OA
ATOM     12  N   UNL     1       3.718   4.621  19.379  0.00  0.00    +0.000 N 
ATOM     13  H   UNL     1       3.627   5.609  19.576  0.00  0.00    +0.000 HD
ENDBRANCH   7  12
ENDBRANCH   1   7
BRANCH   4  14
ATOM     14  O   UNL     1       8.527   8.490  17.726  0.00  0.00    +0.000 OA
BRANCH  14  15
ATOM     15  C   UNL     1       8.304   9.741  18.418  0.00  0.00    +0.000 C 
ATOM     16  C   UNL     1       9.475  10.253  19.281  0.00  0.00    +0.000 C 
ATOM     17  N   UNL     1       9.233  11.541  18.732  0.00  0.00    +0.000 N 
ATOM     18  C   UNL     1       9.885  12.764  18.889  0.00  0.00    +0.000 A 
ATOM     19  C   UNL     1      10.847  12.925  19.888  0.00  0.00    +0.000 A 
ATOM     20  C   UNL     1      11.457  14.168  20.075  0.00  0.00    +0.000 A 
ATOM     21  C   UNL     1      11.086  15.226  19.261  0.00  0.00    +0.000 A 
ATOM     22 BR   UNL     1      11.861  16.929  19.480  0.00  0.00    +0.000 Br
ATOM     23  C   UNL     1      10.126  14.996  18.292  0.00  0.00    +0.000 A 
ATOM     24  N   UNL     1       9.529  13.794  18.089  0.00  0.00    +0.000 NA
ATOM     25  C   UNL     1       8.482  11.053  17.623  0.00  0.00    +0.000 C 
ENDBRANCH  14  15
ENDBRANCH   4  14
TORSDOF 4
ENDMDL
