MODEL 1
REMARK VINA RESULT:      -8.4      0.000      0.000
REMARK  Name = 
REMARK  5 active torsions:
REMARK  status: ('A' for Active; 'I' for Inactive)
REMARK    1  A    between atoms: C_1  and  N_2
REMARK    2  A    between atoms: C_4  and  N_5
REMARK    3  A    between atoms: C_11  and  N_12
REMARK    4  A    between atoms: N_12  and  C_13
REMARK    5  A    between atoms: C_14  and  C_15
REMARK                            x       y       z     vdW  Elec       q    Type
REMARK                         _______ _______ _______ _____ _____    ______ ____
ROOT
ATOM      1  N   UNL     1       1.910   6.069  20.506  0.00  0.00    +0.000 N 
ATOM      2  C   UNL     1       2.592   4.854  20.444  0.00  0.00    +0.000 A 
ATOM      3  N   UNL     1       2.205   3.898  21.297  0.00  0.00    +0.000 NA
ATOM      4  C   UNL     1       2.935   2.760  21.296  0.00  0.00    +0.000 A 
ATOM      5  C   UNL     1       4.066   2.574  20.530  0.00  0.00    +0.000 A 
ATOM      6 CL   UNL     1       5.031   1.166  20.731  0.00  0.00    +0.000 Cl
ATOM      7  C   UNL     1       4.419   3.628  19.701  0.00  0.00    +0.000 A 
ATOM      8  N   UNL     1       3.651   4.728  19.629  0.00  0.00    +0.000 NA
ATOM      9  H   UNL     1       1.480   6.161  21.418  0.00  0.00    +0.000 HD
ENDROOT
BRANCH   1  13
ATOM     10  C   UNL     1       1.639  10.486  18.460  0.00  0.00    +0.000 C 
ATOM     11  N   UNL     1       1.886   9.089  18.733  0.00  0.00    +0.000 N 
ATOM     12  C   UNL     1       1.540   8.392  19.853  0.00  0.00    +0.000 A 
ATOM     13  C   UNL     1       2.020   7.117  19.660  0.00  0.00    +0.000 A 
ATOM     14  C   UNL     1       2.607   7.143  18.379  0.00  0.00    +0.000 A 
ATOM     15  N   UNL     1       2.518   8.349  17.805  0.00  0.00    +0.000 NA
ENDBRANCH   1  13
BRANCH   7  16
ATOM     16  N   UNL     1       5.617   3.581  18.904  0.00  0.00    +0.000 N 
ATOM     17  H   UNL     1       6.376   3.865  19.536  0.00  0.00    +0.000 HD
BRANCH  16  18
ATOM     18  C   UNL     1       5.513   4.581  17.818  0.00  0.00    +0.000 C 
ATOM     19  C   UNL     1       6.280   5.923  18.000  0.00  0.00    +0.000 C 
ATOM     20  C   UNL     1       6.571   6.285  16.508  0.00  0.00    +0.000 C 
ATOM     21  C   UNL     1       5.311   6.229  15.651  0.00  0.00    +0.000 C 
ATOM     22  C   UNL     1       4.973   4.937  15.505  0.00  0.00    +0.000 C 
ATOM     23  C   UNL     1       5.935   4.150  16.372  0.00  0.00    +0.000 C 
ATOM     24  C   UNL     1       7.189   4.967  16.038  0.00  0.00    +0.000 C 
BRANCH  19  25
ATOM     25  C   UNL     1       7.606   5.930  18.757  0.00  0.00    +0.000 C 
ATOM     26  N   UNL     1       8.301   7.096  18.829  0.00  0.00    +0.000 N 
ATOM     27  O   UNL     1       8.044   4.923  19.314  0.00  0.00    +0.000 OA
ATOM     28  H   UNL     1       7.935   7.965  18.446  0.00  0.00    +0.000 HD
ATOM     29  H   UNL     1       9.138   7.129  19.398  0.00  0.00    +0.000 HD
ENDBRANCH  19  25
ENDBRANCH  16  18
ENDBRANCH   7  16
TORSDOF 4
ENDMDL
MODEL 2
REMARK VINA RESULT:      -8.1      2.762      5.146
REMARK  Name = 
REMARK  5 active torsions:
REMARK  status: ('A' for Active; 'I' for Inactive)
REMARK    1  A    between atoms: C_1  and  N_2
REMARK    2  A    between atoms: C_4  and  N_5
REMARK    3  A    between atoms: C_11  and  N_12
REMARK    4  A    between atoms: N_12  and  C_13
REMARK    5  A    between atoms: C_14  and  C_15
REMARK                            x       y       z     vdW  Elec       q    Type
REMARK                         _______ _______ _______ _____ _____    ______ ____
ROOT
ATOM      1  N   UNL     1       0.743   9.539  19.112  0.00  0.00    +0.000 N 
ATOM      2  C   UNL     1       1.804   8.723  18.719  0.00  0.00    +0.000 A 
ATOM      3  N   UNL     1       2.266   8.886  17.474  0.00  0.00    +0.000 NA
ATOM      4  C   UNL     1       3.227   8.025  17.072  0.00  0.00    +0.000 A 
ATOM      5  C   UNL     1       3.687   6.975  17.837  0.00  0.00    +0.000 A 
ATOM      6 CL   UNL     1       4.778   5.825  17.173  0.00  0.00    +0.000 Cl
ATOM      7  C   UNL     1       3.130   6.854  19.101  0.00  0.00    +0.000 A 
ATOM      8  N   UNL     1       2.239   7.757  19.544  0.00  0.00    +0.000 NA
ATOM      9  H   UNL     1       0.258   9.869  18.288  0.00  0.00    +0.000 HD
ENDROOT
BRANCH   1  13
ATOM     10  C   UNL     1      -1.366  11.256  23.158  0.00  0.00    +0.000 C 
ATOM     11  N   UNL     1      -0.716  10.427  22.169  0.00  0.00    +0.000 N 
ATOM     12  C   UNL     1      -0.314  10.795  20.919  0.00  0.00    +0.000 A 
ATOM     13  C   UNL     1       0.212   9.659  20.349  0.00  0.00    +0.000 A 
ATOM     14  C   UNL     1       0.111   8.673  21.351  0.00  0.00    +0.000 A 
ATOM     15  N   UNL     1      -0.450   9.145  22.471  0.00  0.00    +0.000 NA
ENDBRANCH   1  13
BRANCH   7  16
ATOM     16  N   UNL     1       3.479   5.760  19.969  0.00  0.00    +0.000 N 
ATOM     17  H   UNL     1       4.438   5.501  19.708  0.00  0.00    +0.000 HD
BRANCH  16  18
ATOM     18  C   UNL     1       2.589   4.613  19.681  0.00  0.00    +0.000 C 
ATOM     19  C   UNL     1       3.243   3.322  19.108  0.00  0.00    +0.000 C 
ATOM     20  C   UNL     1       2.264   2.240  19.665  0.00  0.00    +0.000 C 
ATOM     21  C   UNL     1       0.808   2.570  19.350  0.00  0.00    +0.000 C 
ATOM     22  C   UNL     1       0.451   3.612  20.119  0.00  0.00    +0.000 C 
ATOM     23  C   UNL     1       1.706   4.049  20.846  0.00  0.00    +0.000 C 
ATOM     24  C   UNL     1       2.244   2.645  21.141  0.00  0.00    +0.000 C 
BRANCH  19  25
ATOM     25  C   UNL     1       4.659   2.946  19.539  0.00  0.00    +0.000 C 
ATOM     26  N   UNL     1       4.947   1.632  19.734  0.00  0.00    +0.000 N 
ATOM     27  O   UNL     1       5.541   3.793  19.689  0.00  0.00    +0.000 OA
ATOM     28  H   UNL     1       4.265   0.899  19.546  0.00  0.00    +0.000 HD
ATOM     29  H   UNL     1       5.902   1.368  19.938  0.00  0.00    +0.000 HD
ENDBRANCH  19  25
ENDBRANCH  16  18
ENDBRANCH   7  16
TORSDOF 4
ENDMDL
MODEL 3
REMARK VINA RESULT:      -8.0      3.795      6.907
REMARK  Name = 
REMARK  5 active torsions:
REMARK  status: ('A' for Active; 'I' for Inactive)
REMARK    1  A    between atoms: C_1  and  N_2
REMARK    2  A    between atoms: C_4  and  N_5
REMARK    3  A    between atoms: C_11  and  N_12
REMARK    4  A    between atoms: N_12  and  C_13
REMARK    5  A    between atoms: C_14  and  C_15
REMARK                            x       y       z     vdW  Elec       q    Type
REMARK                         _______ _______ _______ _____ _____    ______ ____
ROOT
ATOM      1  N   UNL     1       7.010   4.510  13.405  0.00  0.00    +0.000 N 
ATOM      2  C   UNL     1       6.837   4.824  14.754  0.00  0.00    +0.000 A 
ATOM      3  N   UNL     1       7.677   5.723  15.279  0.00  0.00    +0.000 NA
ATOM      4  C   UNL     1       7.563   5.946  16.608  0.00  0.00    +0.000 A 
ATOM      5  C   UNL     1       6.696   5.259  17.431  0.00  0.00    +0.000 A 
ATOM      6 CL   UNL     1       6.751   5.482  19.134  0.00  0.00    +0.000 Cl
ATOM      7  C   UNL     1       5.888   4.317  16.812  0.00  0.00    +0.000 A 
ATOM      8  N   UNL     1       5.931   4.151  15.480  0.00  0.00    +0.000 NA
ATOM      9  H   UNL     1       7.959   4.737  13.133  0.00  0.00    +0.000 HD
ENDROOT
BRANCH   1  13
ATOM     10  C   UNL     1       3.277   2.850  10.747  0.00  0.00    +0.000 C 
ATOM     11  N   UNL     1       4.530   2.999  11.450  0.00  0.00    +0.000 N 
ATOM     12  C   UNL     1       4.936   4.064  12.198  0.00  0.00    +0.000 A 
ATOM     13  C   UNL     1       6.206   3.754  12.627  0.00  0.00    +0.000 A 
ATOM     14  C   UNL     1       6.456   2.466  12.110  0.00  0.00    +0.000 A 
ATOM     15  N   UNL     1       5.426   1.998  11.396  0.00  0.00    +0.000 NA
ENDBRANCH   1  13
BRANCH   7  16
ATOM     16  N   UNL     1       4.990   3.488  17.573  0.00  0.00    +0.000 N 
ATOM     17  H   UNL     1       4.884   2.627  17.024  0.00  0.00    +0.000 HD
BRANCH  16  18
ATOM     18  C   UNL     1       3.673   4.156  17.658  0.00  0.00    +0.000 C 
ATOM     19  C   UNL     1       2.408   3.250  17.707  0.00  0.00    +0.000 C 
ATOM     20  C   UNL     1       1.442   4.159  18.531  0.00  0.00    +0.000 C 
ATOM     21  C   UNL     1       1.355   5.569  17.957  0.00  0.00    +0.000 C 
ATOM     22  C   UNL     1       2.519   6.187  18.217  0.00  0.00    +0.000 C 
ATOM     23  C   UNL     1       3.419   5.144  18.848  0.00  0.00    +0.000 C 
ATOM     24  C   UNL     1       2.346   4.485  19.722  0.00  0.00    +0.000 C 
BRANCH  19  25
ATOM     25  C   UNL     1       2.488   1.891  18.401  0.00  0.00    +0.000 C 
ATOM     26  N   UNL     1       1.353   1.377  18.944  0.00  0.00    +0.000 N 
ATOM     27  O   UNL     1       3.538   1.250  18.459  0.00  0.00    +0.000 OA
ATOM     28  H   UNL     1       0.453   1.843  18.850  0.00  0.00    +0.000 HD
ATOM     29  H   UNL     1       1.379   0.442  19.332  0.00  0.00    +0.000 HD
ENDBRANCH  19  25
ENDBRANCH  16  18
ENDBRANCH   7  16
TORSDOF 4
ENDMDL
MODEL 4
REMARK VINA RESULT:      -7.9      2.557      5.840
REMARK  Name = 
REMARK  5 active torsions:
REMARK  status: ('A' for Active; 'I' for Inactive)
REMARK    1  A    between atoms: C_1  and  N_2
REMARK    2  A    between atoms: C_4  and  N_5
REMARK    3  A    between atoms: C_11  and  N_12
REMARK    4  A    between atoms: N_12  and  C_13
REMARK    5  A    between atoms: C_14  and  C_15
REMARK                            x       y       z     vdW  Elec       q    Type
REMARK                         _______ _______ _______ _____ _____    ______ ____
ROOT
ATOM      1  N   UNL     1       4.682   7.524  16.381  0.00  0.00    +0.000 N 
ATOM      2  C   UNL     1       3.732   7.528  17.403  0.00  0.00    +0.000 A 
ATOM      3  N   UNL     1       2.976   8.625  17.522  0.00  0.00    +0.000 NA
ATOM      4  C   UNL     1       2.127   8.657  18.574  0.00  0.00    +0.000 A 
ATOM      5  C   UNL     1       2.059   7.674  19.538  0.00  0.00    +0.000 A 
ATOM      6 CL   UNL     1       1.081   7.888  20.934  0.00  0.00    +0.000 Cl
ATOM      7  C   UNL     1       2.904   6.589  19.358  0.00  0.00    +0.000 A 
ATOM      8  N   UNL     1       3.687   6.504  18.270  0.00  0.00    +0.000 NA
ATOM      9  H   UNL     1       4.896   8.480  16.125  0.00  0.00    +0.000 HD
ENDROOT
BRANCH   1  13
ATOM     10  C   UNL     1       6.469   3.675  13.982  0.00  0.00    +0.000 C 
ATOM     11  N   UNL     1       6.245   4.754  14.916  0.00  0.00    +0.000 N 
ATOM     12  C   UNL     1       5.200   5.630  14.930  0.00  0.00    +0.000 A 
ATOM     13  C   UNL     1       5.450   6.488  15.976  0.00  0.00    +0.000 A 
ATOM     14  C   UNL     1       6.651   6.021  16.546  0.00  0.00    +0.000 A 
ATOM     15  N   UNL     1       7.135   4.952  15.903  0.00  0.00    +0.000 NA
ENDBRANCH   1  13
BRANCH   7  16
ATOM     16  N   UNL     1       2.974   5.529  20.331  0.00  0.00    +0.000 N 
ATOM     17  H   UNL     1       3.973   5.306  20.418  0.00  0.00    +0.000 HD
BRANCH  16  18
ATOM     18  C   UNL     1       2.272   4.340  19.800  0.00  0.00    +0.000 C 
ATOM     19  C   UNL     1       3.131   3.257  19.084  0.00  0.00    +0.000 C 
ATOM     20  C   UNL     1       2.286   1.980  19.389  0.00  0.00    +0.000 C 
ATOM     21  C   UNL     1       0.818   2.165  19.020  0.00  0.00    +0.000 C 
ATOM     22  C   UNL     1       0.276   3.009  19.912  0.00  0.00    +0.000 C 
ATOM     23  C   UNL     1       1.416   3.481  20.792  0.00  0.00    +0.000 C 
ATOM     24  C   UNL     1       2.130   2.129  20.904  0.00  0.00    +0.000 C 
BRANCH  19  25
ATOM     25  C   UNL     1       4.561   3.004  19.557  0.00  0.00    +0.000 C 
ATOM     26  N   UNL     1       4.923   1.730  19.861  0.00  0.00    +0.000 N 
ATOM     27  O   UNL     1       5.388   3.911  19.647  0.00  0.00    +0.000 OA
ATOM     28  H   UNL     1       4.289   0.944  19.727  0.00  0.00    +0.000 HD
ATOM     29  H   UNL     1       5.890   1.541  20.095  0.00  0.00    +0.000 HD
ENDBRANCH  19  25
ENDBRANCH  16  18
ENDBRANCH   7  16
TORSDOF 4
ENDMDL
MODEL 5
REMARK VINA RESULT:      -7.8      2.205      4.901
REMARK  Name = 
REMARK  5 active torsions:
REMARK  status: ('A' for Active; 'I' for Inactive)
REMARK    1  A    between atoms: C_1  and  N_2
REMARK    2  A    between atoms: C_4  and  N_5
REMARK    3  A    between atoms: C_11  and  N_12
REMARK    4  A    between atoms: N_12  and  C_13
REMARK    5  A    between atoms: C_14  and  C_15
REMARK                            x       y       z     vdW  Elec       q    Type
REMARK                         _______ _______ _______ _____ _____    ______ ____
ROOT
ATOM      1  N   UNL     1       2.427   8.632  17.477  0.00  0.00    +0.000 N 
ATOM      2  C   UNL     1       3.453   7.686  17.494  0.00  0.00    +0.000 A 
ATOM      3  N   UNL     1       4.215   7.600  16.398  0.00  0.00    +0.000 NA
ATOM      4  C   UNL     1       5.142   6.615  16.387  0.00  0.00    +0.000 A 
ATOM      5  C   UNL     1       5.284   5.682  17.392  0.00  0.00    +0.000 A 
ATOM      6 CL   UNL     1       6.365   4.359  17.206  0.00  0.00    +0.000 Cl
ATOM      7  C   UNL     1       4.428   5.820  18.475  0.00  0.00    +0.000 A 
ATOM      8  N   UNL     1       3.564   6.847  18.536  0.00  0.00    +0.000 NA
ATOM      9  H   UNL     1       2.195   8.849  16.516  0.00  0.00    +0.000 HD
ENDROOT
BRANCH   1  13
ATOM     10  C   UNL     1       0.257   8.984  21.828  0.00  0.00    +0.000 C 
ATOM     11  N   UNL     1       0.645   9.150  20.446  0.00  0.00    +0.000 N 
ATOM     12  C   UNL     1       1.608   8.461  19.770  0.00  0.00    +0.000 A 
ATOM     13  C   UNL     1       1.632   9.000  18.505  0.00  0.00    +0.000 A 
ATOM     14  C   UNL     1       0.621   9.982  18.513  0.00  0.00    +0.000 A 
ATOM     15  N   UNL     1       0.008  10.069  19.700  0.00  0.00    +0.000 NA
ENDBRANCH   1  13
BRANCH   7  16
ATOM     16  N   UNL     1       4.433   4.869  19.555  0.00  0.00    +0.000 N 
ATOM     17  H   UNL     1       5.142   4.171  19.300  0.00  0.00    +0.000 HD
BRANCH  16  18
ATOM     18  C   UNL     1       3.115   4.199  19.613  0.00  0.00    +0.000 C 
ATOM     19  C   UNL     1       3.048   2.704  19.181  0.00  0.00    +0.000 C 
ATOM     20  C   UNL     1       1.858   2.209  20.064  0.00  0.00    +0.000 C 
ATOM     21  C   UNL     1       0.632   3.105  19.924  0.00  0.00    +0.000 C 
ATOM     22  C   UNL     1       0.902   4.266  20.544  0.00  0.00    +0.000 C 
ATOM     23  C   UNL     1       2.351   4.183  20.981  0.00  0.00    +0.000 C 
ATOM     24  C   UNL     1       2.321   2.718  21.431  0.00  0.00    +0.000 C 
BRANCH  19  25
ATOM     25  C   UNL     1       4.246   1.795  19.448  0.00  0.00    +0.000 C 
ATOM     26  N   UNL     1       4.353   0.643  18.734  0.00  0.00    +0.000 N 
ATOM     27  O   UNL     1       5.118   2.088  20.267  0.00  0.00    +0.000 OA
ATOM     28  H   UNL     1       3.692   0.405  17.996  0.00  0.00    +0.000 HD
ATOM     29  H   UNL     1       5.185   0.077  18.845  0.00  0.00    +0.000 HD
ENDBRANCH  19  25
ENDBRANCH  16  18
ENDBRANCH   7  16
TORSDOF 4
ENDMDL
MODEL 6
REMARK VINA RESULT:      -7.7      0.685      1.003
REMARK  Name = 
REMARK  5 active torsions:
REMARK  status: ('A' for Active; 'I' for Inactive)
REMARK    1  A    between atoms: C_1  and  N_2
REMARK    2  A    between atoms: C_4  and  N_5
REMARK    3  A    between atoms: C_11  and  N_12
REMARK    4  A    between atoms: N_12  and  C_13
REMARK    5  A    between atoms: C_14  and  C_15
REMARK                            x       y       z     vdW  Elec       q    Type
REMARK                         _______ _______ _______ _____ _____    ______ ____
ROOT
ATOM      1  N   UNL     1       1.788   5.587  20.947  0.00  0.00    +0.000 N 
ATOM      2  C   UNL     1       2.534   4.429  20.729  0.00  0.00    +0.000 A 
ATOM      3  N   UNL     1       2.190   3.345  21.433  0.00  0.00    +0.000 NA
ATOM      4  C   UNL     1       2.980   2.257  21.286  0.00  0.00    +0.000 A 
ATOM      5  C   UNL     1       4.127   2.238  20.523  0.00  0.00    +0.000 A 
ATOM      6 CL   UNL     1       5.164   0.868  20.543  0.00  0.00    +0.000 Cl
ATOM      7  C   UNL     1       4.432   3.415  19.856  0.00  0.00    +0.000 A 
ATOM      8  N   UNL     1       3.608   4.473  19.924  0.00  0.00    +0.000 NA
ATOM      9  H   UNL     1       1.344   5.528  21.855  0.00  0.00    +0.000 HD
ENDROOT
BRANCH   1  13
ATOM     10  C   UNL     1       2.557   8.960  17.513  0.00  0.00    +0.000 C 
ATOM     11  N   UNL     1       2.209   8.264  18.730  0.00  0.00    +0.000 N 
ATOM     12  C   UNL     1       2.356   6.934  18.992  0.00  0.00    +0.000 A 
ATOM     13  C   UNL     1       1.851   6.748  20.258  0.00  0.00    +0.000 A 
ATOM     14  C   UNL     1       1.458   8.033  20.683  0.00  0.00    +0.000 A 
ATOM     15  N   UNL     1       1.686   8.966  19.751  0.00  0.00    +0.000 NA
ENDBRANCH   1  13
BRANCH   7  16
ATOM     16  N   UNL     1       5.640   3.542  19.081  0.00  0.00    +0.000 N 
ATOM     17  H   UNL     1       6.364   3.824  19.753  0.00  0.00    +0.000 HD
BRANCH  16  18
ATOM     18  C   UNL     1       5.466   4.629  18.093  0.00  0.00    +0.000 C 
ATOM     19  C   UNL     1       6.143   5.997  18.402  0.00  0.00    +0.000 C 
ATOM     20  C   UNL     1       6.405   6.515  16.952  0.00  0.00    +0.000 C 
ATOM     21  C   UNL     1       5.150   6.456  16.088  0.00  0.00    +0.000 C 
ATOM     22  C   UNL     1       4.898   5.164  15.822  0.00  0.00    +0.000 C 
ATOM     23  C   UNL     1       5.913   4.365  16.615  0.00  0.00    +0.000 C 
ATOM     24  C   UNL     1       7.109   5.290  16.363  0.00  0.00    +0.000 C 
BRANCH  19  25
ATOM     25  C   UNL     1       7.468   6.021  19.161  0.00  0.00    +0.000 C 
ATOM     26  N   UNL     1       8.352   7.016  18.883  0.00  0.00    +0.000 N 
ATOM     27  O   UNL     1       7.741   5.185  20.023  0.00  0.00    +0.000 OA
ATOM     28  H   UNL     1       8.130   7.767  18.232  0.00  0.00    +0.000 HD
ATOM     29  H   UNL     1       9.195   7.087  19.439  0.00  0.00    +0.000 HD
ENDBRANCH  19  25
ENDBRANCH  16  18
ENDBRANCH   7  16
TORSDOF 4
ENDMDL
MODEL 7
REMARK VINA RESULT:      -7.7      3.426      6.682
REMARK  Name = 
REMARK  5 active torsions:
REMARK  status: ('A' for Active; 'I' for Inactive)
REMARK    1  A    between atoms: C_1  and  N_2
REMARK    2  A    between atoms: C_4  and  N_5
REMARK    3  A    between atoms: C_11  and  N_12
REMARK    4  A    between atoms: N_12  and  C_13
REMARK    5  A    between atoms: C_14  and  C_15
REMARK                            x       y       z     vdW  Elec       q    Type
REMARK                         _______ _______ _______ _____ _____    ______ ____
ROOT
ATOM      1  N   UNL     1       6.963   4.903  13.934  0.00  0.00    +0.000 N 
ATOM      2  C   UNL     1       6.762   5.097  15.301  0.00  0.00    +0.000 A 
ATOM      3  N   UNL     1       7.401   6.127  15.867  0.00  0.00    +0.000 NA
ATOM      4  C   UNL     1       7.276   6.247  17.208  0.00  0.00    +0.000 A 
ATOM      5  C   UNL     1       6.601   5.344  18.001  0.00  0.00    +0.000 A 
ATOM      6 CL   UNL     1       6.651   5.481  19.713  0.00  0.00    +0.000 Cl
ATOM      7  C   UNL     1       5.999   4.285  17.338  0.00  0.00    +0.000 A 
ATOM      8  N   UNL     1       6.041   4.205  15.998  0.00  0.00    +0.000 NA
ATOM      9  H   UNL     1       7.832   5.344  13.662  0.00  0.00    +0.000 HD
ENDROOT
BRANCH   1  13
ATOM     10  C   UNL     1       5.880   1.189  10.968  0.00  0.00    +0.000 C 
ATOM     11  N   UNL     1       5.835   2.383  11.781  0.00  0.00    +0.000 N 
ATOM     12  C   UNL     1       6.861   2.942  12.483  0.00  0.00    +0.000 A 
ATOM     13  C   UNL     1       6.320   4.034  13.123  0.00  0.00    +0.000 A 
ATOM     14  C   UNL     1       4.972   4.062  12.712  0.00  0.00    +0.000 A 
ATOM     15  N   UNL     1       4.675   3.055  11.882  0.00  0.00    +0.000 NA
ENDBRANCH   1  13
BRANCH   7  16
ATOM     16  N   UNL     1       5.321   3.241  18.062  0.00  0.00    +0.000 N 
ATOM     17  H   UNL     1       5.439   2.394  17.492  0.00  0.00    +0.000 HD
BRANCH  16  18
ATOM     18  C   UNL     1       3.879   3.561  18.133  0.00  0.00    +0.000 C 
ATOM     19  C   UNL     1       3.025   2.805  19.193  0.00  0.00    +0.000 C 
ATOM     20  C   UNL     1       1.924   3.875  19.483  0.00  0.00    +0.000 C 
ATOM     21  C   UNL     1       1.278   4.392  18.202  0.00  0.00    +0.000 C 
ATOM     22  C   UNL     1       2.180   5.164  17.573  0.00  0.00    +0.000 C 
ATOM     23  C   UNL     1       3.462   5.052  18.373  0.00  0.00    +0.000 C 
ATOM     24  C   UNL     1       2.813   5.090  19.762  0.00  0.00    +0.000 C 
BRANCH  19  25
ATOM     25  C   UNL     1       3.663   2.408  20.522  0.00  0.00    +0.000 C 
ATOM     26  N   UNL     1       2.890   2.427  21.640  0.00  0.00    +0.000 N 
ATOM     27  O   UNL     1       4.840   2.055  20.601  0.00  0.00    +0.000 OA
ATOM     28  H   UNL     1       1.895   2.641  21.602  0.00  0.00    +0.000 HD
ATOM     29  H   UNL     1       3.282   2.087  22.509  0.00  0.00    +0.000 HD
ENDBRANCH  19  25
ENDBRANCH  16  18
ENDBRANCH   7  16
TORSDOF 4
ENDMDL
MODEL 8
REMARK VINA RESULT:      -7.6      1.983      2.719
REMARK  Name = 
REMARK  5 active torsions:
REMARK  status: ('A' for Active; 'I' for Inactive)
REMARK    1  A    between atoms: C_1  and  N_2
REMARK    2  A    between atoms: C_4  and  N_5
REMARK    3  A    between atoms: C_11  and  N_12
REMARK    4  A    between atoms: N_12  and  C_13
REMARK    5  A    between atoms: C_14  and  C_15
REMARK                            x       y       z     vdW  Elec       q    Type
REMARK                         _______ _______ _______ _____ _____    ______ ____
ROOT
ATOM      1  N   UNL     1       1.640   6.257  20.997  0.00  0.00    +0.000 N 
ATOM      2  C   UNL     1       2.017   5.078  20.354  0.00  0.00    +0.000 A 
ATOM      3  N   UNL     1       1.906   3.944  21.054  0.00  0.00    +0.000 NA
ATOM      4  C   UNL     1       2.365   2.821  20.456  0.00  0.00    +0.000 A 
ATOM      5  C   UNL     1       2.986   2.805  19.226  0.00  0.00    +0.000 A 
ATOM      6 CL   UNL     1       3.699   1.360  18.629  0.00  0.00    +0.000 Cl
ATOM      7  C   UNL     1       3.094   4.029  18.584  0.00  0.00    +0.000 A 
ATOM      8  N   UNL     1       2.563   5.136  19.128  0.00  0.00    +0.000 NA
ATOM      9  H   UNL     1       1.686   6.116  21.998  0.00  0.00    +0.000 HD
ENDROOT
BRANCH   1  13
ATOM     10  C   UNL     1       1.916  10.111  18.024  0.00  0.00    +0.000 C 
ATOM     11  N   UNL     1       1.661   9.222  19.134  0.00  0.00    +0.000 N 
ATOM     12  C   UNL     1       2.019   7.911  19.241  0.00  0.00    +0.000 A 
ATOM     13  C   UNL     1       1.525   7.489  20.454  0.00  0.00    +0.000 A 
ATOM     14  C   UNL     1       0.918   8.632  21.013  0.00  0.00    +0.000 A 
ATOM     15  N   UNL     1       1.008   9.698  20.208  0.00  0.00    +0.000 NA
ENDBRANCH   1  13
BRANCH   7  16
ATOM     16  N   UNL     1       3.782   4.153  17.325  0.00  0.00    +0.000 N 
ATOM     17  H   UNL     1       3.671   3.242  16.863  0.00  0.00    +0.000 HD
BRANCH  16  18
ATOM     18  C   UNL     1       5.222   4.376  17.582  0.00  0.00    +0.000 C 
ATOM     19  C   UNL     1       6.217   4.053  16.430  0.00  0.00    +0.000 C 
ATOM     20  C   UNL     1       7.358   5.072  16.750  0.00  0.00    +0.000 C 
ATOM     21  C   UNL     1       7.810   4.985  18.203  0.00  0.00    +0.000 C 
ATOM     22  C   UNL     1       6.832   5.498  18.967  0.00  0.00    +0.000 C 
ATOM     23  C   UNL     1       5.682   5.805  18.029  0.00  0.00    +0.000 C 
ATOM     24  C   UNL     1       6.531   6.354  16.876  0.00  0.00    +0.000 C 
BRANCH  19  25
ATOM     25  C   UNL     1       5.781   4.270  14.982  0.00  0.00    +0.000 C 
ATOM     26  N   UNL     1       6.366   3.519  14.013  0.00  0.00    +0.000 N 
ATOM     27  O   UNL     1       4.906   5.083  14.680  0.00  0.00    +0.000 OA
ATOM     28  H   UNL     1       7.038   2.786  14.233  0.00  0.00    +0.000 HD
ATOM     29  H   UNL     1       6.025   3.597  13.063  0.00  0.00    +0.000 HD
ENDBRANCH  19  25
ENDBRANCH  16  18
ENDBRANCH   7  16
TORSDOF 4
ENDMDL
MODEL 9
REMARK VINA RESULT:      -7.5      2.908      6.020
REMARK  Name = 
REMARK  5 active torsions:
REMARK  status: ('A' for Active; 'I' for Inactive)
REMARK    1  A    between atoms: C_1  and  N_2
REMARK    2  A    between atoms: C_4  and  N_5
REMARK    3  A    between atoms: C_11  and  N_12
REMARK    4  A    between atoms: N_12  and  C_13
REMARK    5  A    between atoms: C_14  and  C_15
REMARK                            x       y       z     vdW  Elec       q    Type
REMARK                         _______ _______ _______ _____ _____    ______ ____
ROOT
ATOM      1  N   UNL     1       4.761   7.402  16.251  0.00  0.00    +0.000 N 
ATOM      2  C   UNL     1       3.839   7.378  17.298  0.00  0.00    +0.000 A 
ATOM      3  N   UNL     1       3.072   8.462  17.455  0.00  0.00    +0.000 NA
ATOM      4  C   UNL     1       2.252   8.467  18.530  0.00  0.00    +0.000 A 
ATOM      5  C   UNL     1       2.223   7.468  19.479  0.00  0.00    +0.000 A 
ATOM      6 CL   UNL     1       1.280   7.648  20.905  0.00  0.00    +0.000 Cl
ATOM      7  C   UNL     1       3.076   6.397  19.260  0.00  0.00    +0.000 A 
ATOM      8  N   UNL     1       3.831   6.340  18.150  0.00  0.00    +0.000 NA
ATOM      9  H   UNL     1       4.955   8.364  16.004  0.00  0.00    +0.000 HD
ENDROOT
BRANCH   1  13
ATOM     10  C   UNL     1       6.541   3.626  13.733  0.00  0.00    +0.000 C 
ATOM     11  N   UNL     1       6.323   4.682  14.696  0.00  0.00    +0.000 N 
ATOM     12  C   UNL     1       5.271   5.547  14.748  0.00  0.00    +0.000 A 
ATOM     13  C   UNL     1       5.531   6.383  15.809  0.00  0.00    +0.000 A 
ATOM     14  C   UNL     1       6.746   5.914  16.349  0.00  0.00    +0.000 A 
ATOM     15  N   UNL     1       7.228   4.865  15.672  0.00  0.00    +0.000 NA
ENDBRANCH   1  13
BRANCH   7  16
ATOM     16  N   UNL     1       3.187   5.324  20.214  0.00  0.00    +0.000 N 
ATOM     17  H   UNL     1       4.149   5.376  20.570  0.00  0.00    +0.000 HD
BRANCH  16  18
ATOM     18  C   UNL     1       3.015   4.034  19.511  0.00  0.00    +0.000 C 
ATOM     19  C   UNL     1       2.877   2.752  20.383  0.00  0.00    +0.000 C 
ATOM     20  C   UNL     1       1.992   1.869  19.446  0.00  0.00    +0.000 C 
ATOM     21  C   UNL     1       2.565   1.781  18.035  0.00  0.00    +0.000 C 
ATOM     22  C   UNL     1       2.387   2.976  17.448  0.00  0.00    +0.000 C 
ATOM     23  C   UNL     1       1.815   3.889  18.514  0.00  0.00    +0.000 C 
ATOM     24  C   UNL     1       0.867   2.861  19.142  0.00  0.00    +0.000 C 
BRANCH  19  25
ATOM     25  C   UNL     1       2.185   2.843  21.741  0.00  0.00    +0.000 C 
ATOM     26  N   UNL     1       1.537   1.743  22.209  0.00  0.00    +0.000 N 
ATOM     27  O   UNL     1       2.219   3.867  22.423  0.00  0.00    +0.000 OA
ATOM     28  H   UNL     1       1.552   0.856  21.708  0.00  0.00    +0.000 HD
ATOM     29  H   UNL     1       1.148   1.768  23.143  0.00  0.00    +0.000 HD
ENDBRANCH  19  25
ENDBRANCH  16  18
ENDBRANCH   7  16
TORSDOF 4
ENDMDL
