MODEL 1
REMARK VINA RESULT:      -8.1      0.000      0.000
REMARK  Name = 
REMARK  6 active torsions:
REMARK  status: ('A' for Active; 'I' for Inactive)
REMARK    1  A    between atoms: C_1  and  C_2
REMARK    2  A    between atoms: C_2  and  C_3
REMARK    3  A    between atoms: C_7  and  N_8
REMARK    4  A    between atoms: N_8  and  C_9
REMARK    5  A    between atoms: N_23  and  C_24
REMARK    6  A    between atoms: C_26  and  C_27
REMARK                            x       y       z     vdW  Elec       q    Type
REMARK                         _______ _______ _______ _____ _____    ______ ____
ROOT
ATOM      1  C   UNL     1       1.069  12.739  20.915  0.00  0.00    +0.000 C 
ATOM      2  C   UNL     1       0.745  12.742  19.411  0.00  0.00    +0.000 C 
ATOM      3  C   UNL     1      -0.763  12.586  19.199  0.00  0.00    +0.000 C 
ATOM      4  C   UNL     1       1.328  13.971  18.752  0.00  0.00    +0.000 A 
ATOM      5  N   UNL     1       1.000  15.259  18.689  0.00  0.00    +0.000 NA
ATOM      6  N   UNL     1       2.077  15.806  18.038  0.00  0.00    +0.000 N 
ATOM      7  C   UNL     1       3.113  14.919  17.842  0.00  0.00    +0.000 A 
ATOM      8  C   UNL     1       2.550  13.702  18.142  0.00  0.00    +0.000 A 
ATOM      9  C   UNL     1       2.854  12.269  18.156  0.00  0.00    +0.000 C 
ATOM     10  N   UNL     1       1.593  11.692  18.710  0.00  0.00    +0.000 N 
ATOM     11  C   UNL     1       1.350  10.329  18.823  0.00  0.00    +0.000 C 
ATOM     12  O   UNL     1       0.449   9.851  19.505  0.00  0.00    +0.000 OA
ATOM     13  N   UNL     1       2.221   9.547  18.092  0.00  0.00    +0.000 N 
ATOM     14  H   UNL     1       2.048  16.790  17.811  0.00  0.00    +0.000 HD
ATOM     15  H   UNL     1       2.595  10.005  17.266  0.00  0.00    +0.000 HD
ENDROOT
BRANCH  13  16
ATOM     16  C   UNL     1       2.143   8.121  17.957  0.00  0.00    +0.000 C 
ATOM     17  C   UNL     1       2.190   7.133  19.082  0.00  0.00    +0.000 C 
ATOM     18  C   UNL     1       3.434   7.376  18.274  0.00  0.00    +0.000 C 
BRANCH  18  19
ATOM     19  C   UNL     1       4.001   6.375  17.296  0.00  0.00    +0.000 A 
ATOM     20  C   UNL     1       4.869   6.779  16.259  0.00  0.00    +0.000 A 
ATOM     21  C   UNL     1       5.479   5.847  15.405  0.00  0.00    +0.000 A 
ATOM     22  C   UNL     1       5.244   4.495  15.600  0.00  0.00    +0.000 A 
ATOM     23  C   UNL     1       4.389   4.065  16.617  0.00  0.00    +0.000 A 
ATOM     24  C   UNL     1       3.778   5.005  17.450  0.00  0.00    +0.000 A 
ENDBRANCH  18  19
ENDBRANCH  13  16
BRANCH   7  25
ATOM     25  N   UNL     1       4.386  15.192  17.495  0.00  0.00    +0.000 N 
ATOM     26  H   UNL     1       4.541  15.462  16.523  0.00  0.00    +0.000 HD
BRANCH  25  27
ATOM     27  C   UNL     1       5.658  15.340  18.070  0.00  0.00    +0.000 A 
ATOM     28  N   UNL     1       5.792  16.591  18.600  0.00  0.00    +0.000 NA
ATOM     29  C   UNL     1       6.846  16.881  19.371  0.00  0.00    +0.000 A 
ATOM     30  N   UNL     1       7.722  16.015  19.859  0.00  0.00    +0.000 NA
ATOM     31  C   UNL     1       7.680  14.854  19.193  0.00  0.00    +0.000 A 
ATOM     32  S   UNL     1       8.847  13.656  19.501  0.00  0.00    +0.000 S 
ATOM     33  C   UNL     1       8.609  13.028  17.930  0.00  0.00    +0.000 A 
ATOM     34  C   UNL     1       7.432  13.496  17.369  0.00  0.00    +0.000 A 
ATOM     35  C   UNL     1       6.795  14.507  18.172  0.00  0.00    +0.000 A 
ENDBRANCH  25  27
ENDBRANCH   7  25
TORSDOF 4
ENDMDL
MODEL 2
REMARK VINA RESULT:      -8.0      5.294      8.299
REMARK  Name = 
REMARK  6 active torsions:
REMARK  status: ('A' for Active; 'I' for Inactive)
REMARK    1  A    between atoms: C_1  and  C_2
REMARK    2  A    between atoms: C_2  and  C_3
REMARK    3  A    between atoms: C_7  and  N_8
REMARK    4  A    between atoms: N_8  and  C_9
REMARK    5  A    between atoms: N_23  and  C_24
REMARK    6  A    between atoms: C_26  and  C_27
REMARK                            x       y       z     vdW  Elec       q    Type
REMARK                         _______ _______ _______ _____ _____    ______ ____
ROOT
ATOM      1  C   UNL     1       4.032   2.552  20.117  0.00  0.00    +0.000 C 
ATOM      2  C   UNL     1       3.101   3.082  19.012  0.00  0.00    +0.000 C 
ATOM      3  C   UNL     1       2.418   1.915  18.297  0.00  0.00    +0.000 C 
ATOM      4  C   UNL     1       2.136   4.096  19.582  0.00  0.00    +0.000 A 
ATOM      5  N   UNL     1       1.022   4.040  20.309  0.00  0.00    +0.000 NA
ATOM      6  N   UNL     1       0.779   5.364  20.577  0.00  0.00    +0.000 N 
ATOM      7  C   UNL     1       1.790   6.205  20.167  0.00  0.00    +0.000 A 
ATOM      8  C   UNL     1       2.570   5.401  19.372  0.00  0.00    +0.000 A 
ATOM      9  C   UNL     1       3.752   5.442  18.508  0.00  0.00    +0.000 C 
ATOM     10  N   UNL     1       3.883   4.012  18.098  0.00  0.00    +0.000 N 
ATOM     11  C   UNL     1       4.818   3.554  17.177  0.00  0.00    +0.000 C 
ATOM     12  O   UNL     1       5.107   2.371  17.031  0.00  0.00    +0.000 OA
ATOM     13  N   UNL     1       5.400   4.558  16.431  0.00  0.00    +0.000 N 
ATOM     14  H   UNL     1      -0.065   5.601  21.080  0.00  0.00    +0.000 HD
ATOM     15  H   UNL     1       4.810   5.375  16.303  0.00  0.00    +0.000 HD
ENDROOT
BRANCH  13  16
ATOM     16  C   UNL     1       6.326   4.360  15.353  0.00  0.00    +0.000 C 
ATOM     17  C   UNL     1       6.997   5.445  14.569  0.00  0.00    +0.000 C 
ATOM     18  C   UNL     1       5.801   4.754  13.977  0.00  0.00    +0.000 C 
BRANCH  18  19
ATOM     19  C   UNL     1       5.883   3.788  12.820  0.00  0.00    +0.000 A 
ATOM     20  C   UNL     1       7.127   3.306  12.359  0.00  0.00    +0.000 A 
ATOM     21  C   UNL     1       7.211   2.334  11.349  0.00  0.00    +0.000 A 
ATOM     22  C   UNL     1       6.044   1.815  10.810  0.00  0.00    +0.000 A 
ATOM     23  C   UNL     1       4.799   2.273  11.246  0.00  0.00    +0.000 A 
ATOM     24  C   UNL     1       4.731   3.251  12.241  0.00  0.00    +0.000 A 
ENDBRANCH  18  19
ENDBRANCH  13  16
BRANCH   7  25
ATOM     25  N   UNL     1       1.992   7.492  20.515  0.00  0.00    +0.000 N 
ATOM     26  H   UNL     1       2.952   7.832  20.443  0.00  0.00    +0.000 HD
BRANCH  25  27
ATOM     27  C   UNL     1       1.275   8.643  20.877  0.00  0.00    +0.000 A 
ATOM     28  N   UNL     1       0.649   8.450  22.075  0.00  0.00    +0.000 NA
ATOM     29  C   UNL     1       0.076   9.483  22.702  0.00  0.00    +0.000 A 
ATOM     30  N   UNL     1       0.205  10.764  22.384  0.00  0.00    +0.000 NA
ATOM     31  C   UNL     1       0.657  10.909  21.133  0.00  0.00    +0.000 A 
ATOM     32  S   UNL     1       0.714  12.455  20.426  0.00  0.00    +0.000 S 
ATOM     33  C   UNL     1       0.603  11.744  18.876  0.00  0.00    +0.000 A 
ATOM     34  C   UNL     1       0.889  10.389  18.917  0.00  0.00    +0.000 A 
ATOM     35  C   UNL     1       1.046   9.893  20.260  0.00  0.00    +0.000 A 
ENDBRANCH  25  27
ENDBRANCH   7  25
TORSDOF 4
ENDMDL
MODEL 3
REMARK VINA RESULT:      -8.0      3.285      7.831
REMARK  Name = 
REMARK  6 active torsions:
REMARK  status: ('A' for Active; 'I' for Inactive)
REMARK    1  A    between atoms: C_1  and  C_2
REMARK    2  A    between atoms: C_2  and  C_3
REMARK    3  A    between atoms: C_7  and  N_8
REMARK    4  A    between atoms: N_8  and  C_9
REMARK    5  A    between atoms: N_23  and  C_24
REMARK    6  A    between atoms: C_26  and  C_27
REMARK                            x       y       z     vdW  Elec       q    Type
REMARK                         _______ _______ _______ _____ _____    ______ ____
ROOT
ATOM      1  C   UNL     1       2.513  17.052  17.365  0.00  0.00    +0.000 C 
ATOM      2  C   UNL     1       2.660  16.405  18.754  0.00  0.00    +0.000 C 
ATOM      3  C   UNL     1       2.628  17.482  19.840  0.00  0.00    +0.000 C 
ATOM      4  C   UNL     1       1.623  15.321  18.940  0.00  0.00    +0.000 A 
ATOM      5  N   UNL     1       0.321  15.292  19.212  0.00  0.00    +0.000 NA
ATOM      6  N   UNL     1       0.021  13.960  19.078  0.00  0.00    +0.000 N 
ATOM      7  C   UNL     1       1.065  13.206  18.586  0.00  0.00    +0.000 A 
ATOM      8  C   UNL     1       2.140  14.057  18.671  0.00  0.00    +0.000 A 
ATOM      9  C   UNL     1       3.587  14.104  18.451  0.00  0.00    +0.000 C 
ATOM     10  N   UNL     1       3.902  15.528  18.773  0.00  0.00    +0.000 N 
ATOM     11  C   UNL     1       5.191  16.046  18.809  0.00  0.00    +0.000 C 
ATOM     12  O   UNL     1       5.443  17.246  18.812  0.00  0.00    +0.000 OA
ATOM     13  N   UNL     1       6.176  15.080  18.841  0.00  0.00    +0.000 N 
ATOM     14  H   UNL     1      -0.919  13.658  19.293  0.00  0.00    +0.000 HD
ATOM     15  H   UNL     1       5.888  14.208  19.274  0.00  0.00    +0.000 HD
ENDROOT
BRANCH  13  16
ATOM     16  C   UNL     1       7.582  15.334  18.972  0.00  0.00    +0.000 C 
ATOM     17  C   UNL     1       8.485  15.830  17.885  0.00  0.00    +0.000 C 
ATOM     18  C   UNL     1       8.482  14.364  18.215  0.00  0.00    +0.000 C 
BRANCH  18  19
ATOM     19  C   UNL     1       9.619  13.665  18.919  0.00  0.00    +0.000 A 
ATOM     20  C   UNL     1       9.421  12.438  19.587  0.00  0.00    +0.000 A 
ATOM     21  C   UNL     1      10.490  11.731  20.161  0.00  0.00    +0.000 A 
ATOM     22  C   UNL     1      11.775  12.238  20.048  0.00  0.00    +0.000 A 
ATOM     23  C   UNL     1      12.003  13.451  19.394  0.00  0.00    +0.000 A 
ATOM     24  C   UNL     1      10.928  14.150  18.840  0.00  0.00    +0.000 A 
ENDBRANCH  18  19
ENDBRANCH  13  16
BRANCH   7  25
ATOM     25  N   UNL     1       1.022  11.955  18.086  0.00  0.00    +0.000 N 
ATOM     26  H   UNL     1       0.951  11.878  17.071  0.00  0.00    +0.000 HD
BRANCH  25  27
ATOM     27  C   UNL     1       1.150  10.619  18.497  0.00  0.00    +0.000 A 
ATOM     28  N   UNL     1       1.774   9.887  17.529  0.00  0.00    +0.000 NA
ATOM     29  C   UNL     1       2.176   8.638  17.791  0.00  0.00    +0.000 A 
ATOM     30  N   UNL     1       2.214   8.060  18.983  0.00  0.00    +0.000 NA
ATOM     31  C   UNL     1       1.444   8.713  19.863  0.00  0.00    +0.000 A 
ATOM     32  S   UNL     1       1.169   8.051  21.405  0.00  0.00    +0.000 S 
ATOM     33  C   UNL     1      -0.301   8.915  21.508  0.00  0.00    +0.000 A 
ATOM     34  C   UNL     1      -0.360   9.930  20.566  0.00  0.00    +0.000 A 
ATOM     35  C   UNL     1       0.744   9.900  19.643  0.00  0.00    +0.000 A 
ENDBRANCH  25  27
ENDBRANCH   7  25
TORSDOF 4
ENDMDL
MODEL 4
REMARK VINA RESULT:      -7.8      1.062      1.990
REMARK  Name = 
REMARK  6 active torsions:
REMARK  status: ('A' for Active; 'I' for Inactive)
REMARK    1  A    between atoms: C_1  and  C_2
REMARK    2  A    between atoms: C_2  and  C_3
REMARK    3  A    between atoms: C_7  and  N_8
REMARK    4  A    between atoms: N_8  and  C_9
REMARK    5  A    between atoms: N_23  and  C_24
REMARK    6  A    between atoms: C_26  and  C_27
REMARK                            x       y       z     vdW  Elec       q    Type
REMARK                         _______ _______ _______ _____ _____    ______ ____
ROOT
ATOM      1  C   UNL     1       0.933  12.461  20.937  0.00  0.00    +0.000 C 
ATOM      2  C   UNL     1       0.573  12.475  19.440  0.00  0.00    +0.000 C 
ATOM      3  C   UNL     1      -0.929  12.244  19.261  0.00  0.00    +0.000 C 
ATOM      4  C   UNL     1       1.076  13.744  18.792  0.00  0.00    +0.000 A 
ATOM      5  N   UNL     1       0.680  15.014  18.762  0.00  0.00    +0.000 NA
ATOM      6  N   UNL     1       1.711  15.629  18.097  0.00  0.00    +0.000 N 
ATOM      7  C   UNL     1       2.786  14.800  17.859  0.00  0.00    +0.000 A 
ATOM      8  C   UNL     1       2.295  13.550  18.149  0.00  0.00    +0.000 A 
ATOM      9  C   UNL     1       2.673  12.135  18.128  0.00  0.00    +0.000 C 
ATOM     10  N   UNL     1       1.457  11.483  18.700  0.00  0.00    +0.000 N 
ATOM     11  C   UNL     1       1.288  10.107  18.792  0.00  0.00    +0.000 C 
ATOM     12  O   UNL     1       0.430   9.571  19.485  0.00  0.00    +0.000 OA
ATOM     13  N   UNL     1       2.181   9.386  18.026  0.00  0.00    +0.000 N 
ATOM     14  H   UNL     1       1.625  16.614  17.889  0.00  0.00    +0.000 HD
ATOM     15  H   UNL     1       2.511   9.877  17.200  0.00  0.00    +0.000 HD
ENDROOT
BRANCH  13  16
ATOM     16  C   UNL     1       2.173   7.961  17.865  0.00  0.00    +0.000 C 
ATOM     17  C   UNL     1       2.154   6.956  18.976  0.00  0.00    +0.000 C 
ATOM     18  C   UNL     1       3.458   7.260  18.292  0.00  0.00    +0.000 C 
BRANCH  18  19
ATOM     19  C   UNL     1       4.154   6.300  17.359  0.00  0.00    +0.000 A 
ATOM     20  C   UNL     1       3.943   4.908  17.453  0.00  0.00    +0.000 A 
ATOM     21  C   UNL     1       4.507   4.013  16.530  0.00  0.00    +0.000 A 
ATOM     22  C   UNL     1       5.270   4.511  15.484  0.00  0.00    +0.000 A 
ATOM     23  C   UNL     1       5.497   5.884  15.365  0.00  0.00    +0.000 A 
ATOM     24  C   UNL     1       4.941   6.760  16.300  0.00  0.00    +0.000 A 
ENDBRANCH  18  19
ENDBRANCH  13  16
BRANCH   7  25
ATOM     25  N   UNL     1       4.035  15.145  17.488  0.00  0.00    +0.000 N 
ATOM     26  H   UNL     1       4.150  15.453  16.522  0.00  0.00    +0.000 HD
BRANCH  25  27
ATOM     27  C   UNL     1       5.314  15.339  18.034  0.00  0.00    +0.000 A 
ATOM     28  N   UNL     1       6.141  14.316  17.670  0.00  0.00    +0.000 NA
ATOM     29  C   UNL     1       7.454  14.400  17.912  0.00  0.00    +0.000 A 
ATOM     30  N   UNL     1       8.110  15.480  18.313  0.00  0.00    +0.000 NA
ATOM     31  C   UNL     1       7.275  16.391  18.828  0.00  0.00    +0.000 A 
ATOM     32  S   UNL     1       7.899  17.776  19.593  0.00  0.00    +0.000 S 
ATOM     33  C   UNL     1       6.468  17.902  20.518  0.00  0.00    +0.000 A 
ATOM     34  C   UNL     1       5.445  17.139  19.978  0.00  0.00    +0.000 A 
ATOM     35  C   UNL     1       5.884  16.315  18.882  0.00  0.00    +0.000 A 
ENDBRANCH  25  27
ENDBRANCH   7  25
TORSDOF 4
ENDMDL
MODEL 5
REMARK VINA RESULT:      -7.8      4.134      7.559
REMARK  Name = 
REMARK  6 active torsions:
REMARK  status: ('A' for Active; 'I' for Inactive)
REMARK    1  A    between atoms: C_1  and  C_2
REMARK    2  A    between atoms: C_2  and  C_3
REMARK    3  A    between atoms: C_7  and  N_8
REMARK    4  A    between atoms: N_8  and  C_9
REMARK    5  A    between atoms: N_23  and  C_24
REMARK    6  A    between atoms: C_26  and  C_27
REMARK                            x       y       z     vdW  Elec       q    Type
REMARK                         _______ _______ _______ _____ _____    ______ ____
ROOT
ATOM      1  C   UNL     1       5.898   5.433  19.656  0.00  0.00    +0.000 C 
ATOM      2  C   UNL     1       4.757   5.049  18.698  0.00  0.00    +0.000 C 
ATOM      3  C   UNL     1       4.421   3.564  18.851  0.00  0.00    +0.000 C 
ATOM      4  C   UNL     1       3.572   5.965  18.901  0.00  0.00    +0.000 A 
ATOM      5  N   UNL     1       2.600   6.072  19.804  0.00  0.00    +0.000 NA
ATOM      6  N   UNL     1       1.973   7.232  19.426  0.00  0.00    +0.000 N 
ATOM      7  C   UNL     1       2.626   7.910  18.420  0.00  0.00    +0.000 A 
ATOM      8  C   UNL     1       3.550   6.999  17.970  0.00  0.00    +0.000 A 
ATOM      9  C   UNL     1       4.580   6.820  16.943  0.00  0.00    +0.000 C 
ATOM     10  N   UNL     1       5.122   5.470  17.284  0.00  0.00    +0.000 N 
ATOM     11  C   UNL     1       6.071   4.803  16.519  0.00  0.00    +0.000 C 
ATOM     12  O   UNL     1       6.707   3.833  16.917  0.00  0.00    +0.000 OA
ATOM     13  N   UNL     1       6.240   5.333  15.256  0.00  0.00    +0.000 N 
ATOM     14  H   UNL     1       1.144   7.513  19.931  0.00  0.00    +0.000 HD
ATOM     15  H   UNL     1       5.412   5.792  14.885  0.00  0.00    +0.000 HD
ENDROOT
BRANCH  13  16
ATOM     16  C   UNL     1       7.084   4.788  14.233  0.00  0.00    +0.000 C 
ATOM     17  C   UNL     1       7.697   5.558  13.104  0.00  0.00    +0.000 C 
ATOM     18  C   UNL     1       6.461   4.743  12.843  0.00  0.00    +0.000 C 
BRANCH  18  19
ATOM     19  C   UNL     1       6.459   3.463  12.045  0.00  0.00    +0.000 A 
ATOM     20  C   UNL     1       7.661   2.899  11.567  0.00  0.00    +0.000 A 
ATOM     21  C   UNL     1       7.683   1.659  10.908  0.00  0.00    +0.000 A 
ATOM     22  C   UNL     1       6.498   0.959  10.745  0.00  0.00    +0.000 A 
ATOM     23  C   UNL     1       5.292   1.492  11.206  0.00  0.00    +0.000 A 
ATOM     24  C   UNL     1       5.284   2.733  11.847  0.00  0.00    +0.000 A 
ENDBRANCH  18  19
ENDBRANCH  13  16
BRANCH   7  25
ATOM     25  N   UNL     1       2.439   9.183  18.019  0.00  0.00    +0.000 N 
ATOM     26  H   UNL     1       3.061   9.520  17.284  0.00  0.00    +0.000 HD
BRANCH  25  27
ATOM     27  C   UNL     1       1.557  10.260  18.204  0.00  0.00    +0.000 A 
ATOM     28  N   UNL     1       0.266   9.837  18.079  0.00  0.00    +0.000 NA
ATOM     29  C   UNL     1      -0.740  10.654  18.414  0.00  0.00    +0.000 A 
ATOM     30  N   UNL     1      -0.632  11.808  19.056  0.00  0.00    +0.000 NA
ATOM     31  C   UNL     1       0.621  12.277  19.003  0.00  0.00    +0.000 A 
ATOM     32  S   UNL     1       0.967  13.839  19.580  0.00  0.00    +0.000 S 
ATOM     33  C   UNL     1       2.319  13.918  18.539  0.00  0.00    +0.000 A 
ATOM     34  C   UNL     1       2.673  12.663  18.071  0.00  0.00    +0.000 A 
ATOM     35  C   UNL     1       1.729  11.642  18.443  0.00  0.00    +0.000 A 
ENDBRANCH  25  27
ENDBRANCH   7  25
TORSDOF 4
ENDMDL
MODEL 6
REMARK VINA RESULT:      -7.8      5.000      9.262
REMARK  Name = 
REMARK  6 active torsions:
REMARK  status: ('A' for Active; 'I' for Inactive)
REMARK    1  A    between atoms: C_1  and  C_2
REMARK    2  A    between atoms: C_2  and  C_3
REMARK    3  A    between atoms: C_7  and  N_8
REMARK    4  A    between atoms: N_8  and  C_9
REMARK    5  A    between atoms: N_23  and  C_24
REMARK    6  A    between atoms: C_26  and  C_27
REMARK                            x       y       z     vdW  Elec       q    Type
REMARK                         _______ _______ _______ _____ _____    ______ ____
ROOT
ATOM      1  C   UNL     1       0.279   3.189  19.059  0.00  0.00    +0.000 C 
ATOM      2  C   UNL     1       1.528   3.328  19.947  0.00  0.00    +0.000 C 
ATOM      3  C   UNL     1       1.214   2.859  21.370  0.00  0.00    +0.000 C 
ATOM      4  C   UNL     1       2.701   2.615  19.316  0.00  0.00    +0.000 A 
ATOM      5  N   UNL     1       3.089   1.347  19.200  0.00  0.00    +0.000 NA
ATOM      6  N   UNL     1       4.176   1.446  18.368  0.00  0.00    +0.000 N 
ATOM      7  C   UNL     1       4.365   2.711  17.856  0.00  0.00    +0.000 A 
ATOM      8  C   UNL     1       3.522   3.490  18.611  0.00  0.00    +0.000 A 
ATOM      9  C   UNL     1       3.123   4.884  18.816  0.00  0.00    +0.000 C 
ATOM     10  N   UNL     1       2.057   4.750  19.854  0.00  0.00    +0.000 N 
ATOM     11  C   UNL     1       1.429   5.830  20.461  0.00  0.00    +0.000 C 
ATOM     12  O   UNL     1       0.391   5.739  21.107  0.00  0.00    +0.000 OA
ATOM     13  N   UNL     1       2.082   7.031  20.271  0.00  0.00    +0.000 N 
ATOM     14  H   UNL     1       4.698   0.606  18.164  0.00  0.00    +0.000 HD
ATOM     15  H   UNL     1       3.086   6.941  20.140  0.00  0.00    +0.000 HD
ENDROOT
BRANCH  13  16
ATOM     16  C   UNL     1       1.704   8.283  20.860  0.00  0.00    +0.000 C 
ATOM     17  C   UNL     1       0.333   8.642  21.344  0.00  0.00    +0.000 C 
ATOM     18  C   UNL     1       0.784   9.144  20.001  0.00  0.00    +0.000 C 
BRANCH  18  19
ATOM     19  C   UNL     1       1.126  10.587  19.722  0.00  0.00    +0.000 A 
ATOM     20  C   UNL     1       0.875  11.595  20.677  0.00  0.00    +0.000 A 
ATOM     21  C   UNL     1       1.276  12.924  20.469  0.00  0.00    +0.000 A 
ATOM     22  C   UNL     1       1.959  13.250  19.307  0.00  0.00    +0.000 A 
ATOM     23  C   UNL     1       2.221  12.275  18.342  0.00  0.00    +0.000 A 
ATOM     24  C   UNL     1       1.802  10.959  18.557  0.00  0.00    +0.000 A 
ENDBRANCH  18  19
ENDBRANCH  13  16
BRANCH   7  25
ATOM     25  N   UNL     1       5.147   3.080  16.822  0.00  0.00    +0.000 N 
ATOM     26  H   UNL     1       5.016   2.564  15.951  0.00  0.00    +0.000 HD
BRANCH  25  27
ATOM     27  C   UNL     1       6.082   4.065  16.467  0.00  0.00    +0.000 A 
ATOM     28  N   UNL     1       6.445   3.921  15.159  0.00  0.00    +0.000 NA
ATOM     29  C   UNL     1       7.171   4.870  14.559  0.00  0.00    +0.000 A 
ATOM     30  N   UNL     1       7.438   6.076  15.040  0.00  0.00    +0.000 NA
ATOM     31  C   UNL     1       7.236   6.125  16.363  0.00  0.00    +0.000 A 
ATOM     32  S   UNL     1       7.703   7.504  17.242  0.00  0.00    +0.000 S 
ATOM     33  C   UNL     1       7.853   6.549  18.651  0.00  0.00    +0.000 A 
ATOM     34  C   UNL     1       7.213   5.329  18.508  0.00  0.00    +0.000 A 
ATOM     35  C   UNL     1       6.727   5.107  17.170  0.00  0.00    +0.000 A 
ENDBRANCH  25  27
ENDBRANCH   7  25
TORSDOF 4
ENDMDL
MODEL 7
REMARK VINA RESULT:      -7.7      4.523      9.977
REMARK  Name = 
REMARK  6 active torsions:
REMARK  status: ('A' for Active; 'I' for Inactive)
REMARK    1  A    between atoms: C_1  and  C_2
REMARK    2  A    between atoms: C_2  and  C_3
REMARK    3  A    between atoms: C_7  and  N_8
REMARK    4  A    between atoms: N_8  and  C_9
REMARK    5  A    between atoms: N_23  and  C_24
REMARK    6  A    between atoms: C_26  and  C_27
REMARK                            x       y       z     vdW  Elec       q    Type
REMARK                         _______ _______ _______ _____ _____    ______ ____
ROOT
ATOM      1  C   UNL     1       2.167  12.883  19.671  0.00  0.00    +0.000 C 
ATOM      2  C   UNL     1       0.903  12.137  19.208  0.00  0.00    +0.000 C 
ATOM      3  C   UNL     1       0.135  12.987  18.194  0.00  0.00    +0.000 C 
ATOM      4  C   UNL     1       1.264  10.761  18.700  0.00  0.00    +0.000 A 
ATOM      5  N   UNL     1       1.800  10.273  17.583  0.00  0.00    +0.000 NA
ATOM      6  N   UNL     1       1.969   8.947  17.892  0.00  0.00    +0.000 N 
ATOM      7  C   UNL     1       1.696   8.648  19.209  0.00  0.00    +0.000 A 
ATOM      8  C   UNL     1       1.074   9.782  19.671  0.00  0.00    +0.000 A 
ATOM      9  C   UNL     1       0.414  10.326  20.860  0.00  0.00    +0.000 C 
ATOM     10  N   UNL     1       0.091  11.718  20.424  0.00  0.00    +0.000 N 
ATOM     11  C   UNL     1      -0.643  12.617  21.186  0.00  0.00    +0.000 C 
ATOM     12  O   UNL     1      -0.691  13.821  20.962  0.00  0.00    +0.000 OA
ATOM     13  N   UNL     1      -1.325  12.029  22.233  0.00  0.00    +0.000 N 
ATOM     14  H   UNL     1       2.317   8.329  17.172  0.00  0.00    +0.000 HD
ATOM     15  H   UNL     1      -1.582  11.060  22.069  0.00  0.00    +0.000 HD
ENDROOT
BRANCH  13  16
ATOM     16  C   UNL     1      -2.227  12.706  23.119  0.00  0.00    +0.000 C 
ATOM     17  C   UNL     1      -3.355  12.069  23.871  0.00  0.00    +0.000 C 
ATOM     18  C   UNL     1      -3.658  12.826  22.608  0.00  0.00    +0.000 C 
BRANCH  18  19
ATOM     19  C   UNL     1      -4.354  14.166  22.586  0.00  0.00    +0.000 A 
ATOM     20  C   UNL     1      -4.398  14.946  21.412  0.00  0.00    +0.000 A 
ATOM     21  C   UNL     1      -5.124  16.147  21.352  0.00  0.00    +0.000 A 
ATOM     22  C   UNL     1      -5.836  16.563  22.466  0.00  0.00    +0.000 A 
ATOM     23  C   UNL     1      -5.811  15.812  23.643  0.00  0.00    +0.000 A 
ATOM     24  C   UNL     1      -5.072  14.628  23.692  0.00  0.00    +0.000 A 
ENDBRANCH  18  19
ENDBRANCH  13  16
BRANCH   7  25
ATOM     25  N   UNL     1       2.019   7.531  19.892  0.00  0.00    +0.000 N 
ATOM     26  H   UNL     1       1.762   7.516  20.879  0.00  0.00    +0.000 HD
BRANCH  25  27
ATOM     27  C   UNL     1       2.536   6.243  19.681  0.00  0.00    +0.000 A 
ATOM     28  N   UNL     1       3.565   6.290  18.785  0.00  0.00    +0.000 NA
ATOM     29  C   UNL     1       4.331   5.210  18.591  0.00  0.00    +0.000 A 
ATOM     30  N   UNL     1       4.334   4.107  19.326  0.00  0.00    +0.000 NA
ATOM     31  C   UNL     1       3.219   4.013  20.062  0.00  0.00    +0.000 A 
ATOM     32  S   UNL     1       2.897   2.589  20.935  0.00  0.00    +0.000 S 
ATOM     33  C   UNL     1       1.225   2.937  20.875  0.00  0.00    +0.000 A 
ATOM     34  C   UNL     1       0.994   4.259  20.531  0.00  0.00    +0.000 A 
ATOM     35  C   UNL     1       2.196   4.957  20.157  0.00  0.00    +0.000 A 
ENDBRANCH  25  27
ENDBRANCH   7  25
TORSDOF 4
ENDMDL
MODEL 8
REMARK VINA RESULT:      -7.7      4.952      9.519
REMARK  Name = 
REMARK  6 active torsions:
REMARK  status: ('A' for Active; 'I' for Inactive)
REMARK    1  A    between atoms: C_1  and  C_2
REMARK    2  A    between atoms: C_2  and  C_3
REMARK    3  A    between atoms: C_7  and  N_8
REMARK    4  A    between atoms: N_8  and  C_9
REMARK    5  A    between atoms: N_23  and  C_24
REMARK    6  A    between atoms: C_26  and  C_27
REMARK                            x       y       z     vdW  Elec       q    Type
REMARK                         _______ _______ _______ _____ _____    ______ ____
ROOT
ATOM      1  C   UNL     1       0.608   3.351  19.990  0.00  0.00    +0.000 C 
ATOM      2  C   UNL     1       2.012   3.822  20.409  0.00  0.00    +0.000 C 
ATOM      3  C   UNL     1       2.185   3.675  21.922  0.00  0.00    +0.000 C 
ATOM      4  C   UNL     1       3.068   3.102  19.603  0.00  0.00    +0.000 A 
ATOM      5  N   UNL     1       3.614   1.888  19.625  0.00  0.00    +0.000 NA
ATOM      6  N   UNL     1       4.397   1.896  18.499  0.00  0.00    +0.000 N 
ATOM      7  C   UNL     1       4.225   3.016  17.715  0.00  0.00    +0.000 A 
ATOM      8  C   UNL     1       3.506   3.862  18.523  0.00  0.00    +0.000 A 
ATOM      9  C   UNL     1       2.952   5.218  18.561  0.00  0.00    +0.000 C 
ATOM     10  N   UNL     1       2.251   5.228  19.880  0.00  0.00    +0.000 N 
ATOM     11  C   UNL     1       1.644   6.352  20.425  0.00  0.00    +0.000 C 
ATOM     12  O   UNL     1       0.855   6.313  21.362  0.00  0.00    +0.000 OA
ATOM     13  N   UNL     1       2.011   7.533  19.812  0.00  0.00    +0.000 N 
ATOM     14  H   UNL     1       4.975   1.088  18.314  0.00  0.00    +0.000 HD
ATOM     15  H   UNL     1       2.940   7.516  19.400  0.00  0.00    +0.000 HD
ENDROOT
BRANCH  13  16
ATOM     16  C   UNL     1       1.607   8.845  20.229  0.00  0.00    +0.000 C 
ATOM     17  C   UNL     1       0.210   9.259  20.577  0.00  0.00    +0.000 C 
ATOM     18  C   UNL     1       0.756   9.605  19.219  0.00  0.00    +0.000 C 
BRANCH  18  19
ATOM     19  C   UNL     1       1.129  11.007  18.803  0.00  0.00    +0.000 A 
ATOM     20  C   UNL     1       0.325  12.112  19.155  0.00  0.00    +0.000 A 
ATOM     21  C   UNL     1       0.712  13.428  18.859  0.00  0.00    +0.000 A 
ATOM     22  C   UNL     1       1.926  13.651  18.227  0.00  0.00    +0.000 A 
ATOM     23  C   UNL     1       2.744  12.578  17.866  0.00  0.00    +0.000 A 
ATOM     24  C   UNL     1       2.338  11.272  18.154  0.00  0.00    +0.000 A 
ENDBRANCH  18  19
ENDBRANCH  13  16
BRANCH   7  25
ATOM     25  N   UNL     1       4.619   3.206  16.440  0.00  0.00    +0.000 N 
ATOM     26  H   UNL     1       4.123   2.666  15.730  0.00  0.00    +0.000 HD
BRANCH  25  27
ATOM     27  C   UNL     1       5.472   4.020  15.678  0.00  0.00    +0.000 A 
ATOM     28  N   UNL     1       5.977   5.025  16.451  0.00  0.00    +0.000 NA
ATOM     29  C   UNL     1       6.964   5.797  15.983  0.00  0.00    +0.000 A 
ATOM     30  N   UNL     1       7.674   5.582  14.884  0.00  0.00    +0.000 NA
ATOM     31  C   UNL     1       7.055   4.719  14.069  0.00  0.00    +0.000 A 
ATOM     32  S   UNL     1       7.669   4.437  12.508  0.00  0.00    +0.000 S 
ATOM     33  C   UNL     1       6.109   3.984  11.982  0.00  0.00    +0.000 A 
ATOM     34  C   UNL     1       5.271   3.713  13.051  0.00  0.00    +0.000 A 
ATOM     35  C   UNL     1       5.867   4.033  14.322  0.00  0.00    +0.000 A 
ENDBRANCH  25  27
ENDBRANCH   7  25
TORSDOF 4
ENDMDL
MODEL 9
REMARK VINA RESULT:      -7.7      1.176      1.562
REMARK  Name = 
REMARK  6 active torsions:
REMARK  status: ('A' for Active; 'I' for Inactive)
REMARK    1  A    between atoms: C_1  and  C_2
REMARK    2  A    between atoms: C_2  and  C_3
REMARK    3  A    between atoms: C_7  and  N_8
REMARK    4  A    between atoms: N_8  and  C_9
REMARK    5  A    between atoms: N_23  and  C_24
REMARK    6  A    between atoms: C_26  and  C_27
REMARK                            x       y       z     vdW  Elec       q    Type
REMARK                         _______ _______ _______ _____ _____    ______ ____
ROOT
ATOM      1  C   UNL     1       0.742  12.490  20.830  0.00  0.00    +0.000 C 
ATOM      2  C   UNL     1       0.551  12.513  19.302  0.00  0.00    +0.000 C 
ATOM      3  C   UNL     1      -0.929  12.342  18.957  0.00  0.00    +0.000 C 
ATOM      4  C   UNL     1       1.173  13.759  18.716  0.00  0.00    +0.000 A 
ATOM      5  N   UNL     1       0.834  15.045  18.645  0.00  0.00    +0.000 NA
ATOM      6  N   UNL     1       1.956  15.616  18.099  0.00  0.00    +0.000 N 
ATOM      7  C   UNL     1       3.017  14.744  17.981  0.00  0.00    +0.000 A 
ATOM      8  C   UNL     1       2.447  13.516  18.212  0.00  0.00    +0.000 A 
ATOM      9  C   UNL     1       2.768  12.087  18.231  0.00  0.00    +0.000 C 
ATOM     10  N   UNL     1       1.472  11.485  18.663  0.00  0.00    +0.000 N 
ATOM     11  C   UNL     1       1.239  10.118  18.734  0.00  0.00    +0.000 C 
ATOM     12  O   UNL     1       0.288   9.618  19.326  0.00  0.00    +0.000 OA
ATOM     13  N   UNL     1       2.182   9.359  18.071  0.00  0.00    +0.000 N 
ATOM     14  H   UNL     1       1.933  16.603  17.885  0.00  0.00    +0.000 HD
ATOM     15  H   UNL     1       2.621   9.835  17.287  0.00  0.00    +0.000 HD
ENDROOT
BRANCH  13  16
ATOM     16  C   UNL     1       2.136   7.935  17.907  0.00  0.00    +0.000 C 
ATOM     17  C   UNL     1       2.183   6.926  19.014  0.00  0.00    +0.000 C 
ATOM     18  C   UNL     1       3.436   7.209  18.233  0.00  0.00    +0.000 C 
BRANCH  18  19
ATOM     19  C   UNL     1       4.040   6.240  17.247  0.00  0.00    +0.000 A 
ATOM     20  C   UNL     1       4.912   6.682  16.229  0.00  0.00    +0.000 A 
ATOM     21  C   UNL     1       5.556   5.779  15.368  0.00  0.00    +0.000 A 
ATOM     22  C   UNL     1       5.352   4.418  15.537  0.00  0.00    +0.000 A 
ATOM     23  C   UNL     1       4.494   3.951  16.535  0.00  0.00    +0.000 A 
ATOM     24  C   UNL     1       3.849   4.862  17.375  0.00  0.00    +0.000 A 
ENDBRANCH  18  19
ENDBRANCH  13  16
BRANCH   7  25
ATOM     25  N   UNL     1       4.312  15.039  17.752  0.00  0.00    +0.000 N 
ATOM     26  H   UNL     1       4.528  15.445  16.841  0.00  0.00    +0.000 HD
BRANCH  25  27
ATOM     27  C   UNL     1       5.549  15.076  18.414  0.00  0.00    +0.000 A 
ATOM     28  N   UNL     1       6.565  14.875  17.525  0.00  0.00    +0.000 NA
ATOM     29  C   UNL     1       7.833  15.069  17.906  0.00  0.00    +0.000 A 
ATOM     30  N   UNL     1       8.236  15.637  19.034  0.00  0.00    +0.000 NA
ATOM     31  C   UNL     1       7.255  15.655  19.944  0.00  0.00    +0.000 A 
ATOM     32  S   UNL     1       7.585  16.148  21.538  0.00  0.00    +0.000 S 
ATOM     33  C   UNL     1       6.264  15.218  22.094  0.00  0.00    +0.000 A 
ATOM     34  C   UNL     1       5.416  14.869  21.056  0.00  0.00    +0.000 A 
ATOM     35  C   UNL     1       5.938  15.232  19.764  0.00  0.00    +0.000 A 
ENDBRANCH  25  27
ENDBRANCH   7  25
TORSDOF 4
ENDMDL
