MODEL 1
REMARK VINA RESULT:      -8.3      0.000      0.000
REMARK  Name = 
REMARK  15 active torsions:
REMARK  status: ('A' for Active; 'I' for Inactive)
REMARK    1  A    between atoms: C_1  and  O_2
REMARK    2  A    between atoms: O_2  and  C_3
REMARK    3  A    between atoms: C_6  and  C_7
REMARK    4  A    between atoms: C_8  and  C_9
REMARK    5  A    between atoms: C_9  and  C_10
REMARK    6  A    between atoms: C_10  and  C_11
REMARK    7  A    between atoms: C_12  and  C_13
REMARK    8  A    between atoms: C_14  and  C_15
REMARK    9  A    between atoms: C_14  and  C_16
REMARK   10  A    between atoms: C_16  and  C_17
REMARK   11  A    between atoms: C_17  and  C_18
REMARK   12  A    between atoms: C_18  and  O_19
REMARK   13  A    between atoms: C_18  and  C_20
REMARK   14  A    between atoms: C_29  and  O_30
REMARK   15  A    between atoms: O_30  and  C_31
REMARK                            x       y       z     vdW  Elec       q    Type
REMARK                         _______ _______ _______ _____ _____    ______ ____
ROOT
ATOM      1  C   UNL     1       7.866   8.133  17.609  0.00  0.00    +0.000 C 
ATOM      2  C   UNL     1       7.615   6.813  17.723  0.00  0.00    +0.000 C 
ATOM      3  C   UNL     1       7.751   6.027  19.009  0.00  0.00    +0.000 C 
ENDROOT
BRANCH   1   5
ATOM      4  C   UNL     1       9.021  10.152  18.386  0.00  0.00    +0.000 C 
ATOM      5  C   UNL     1       8.380   9.004  18.649  0.00  0.00    +0.000 C 
BRANCH   4   6
ATOM      6  C   UNL     1       9.659  11.025  19.442  0.00  0.00    +0.000 C 
BRANCH   6   7
ATOM      7  C   UNL     1      11.030  11.510  18.946  0.00  0.00    +0.000 C 
BRANCH   7   9
ATOM      8  C   UNL     1      10.976  13.143  17.028  0.00  0.00    +0.000 C 
ATOM      9  C   UNL     1      11.095  11.885  17.490  0.00  0.00    +0.000 C 
BRANCH   8  13
ATOM     10  C   UNL     1      10.666  16.503  19.662  0.00  0.00    +0.000 A 
ATOM     11  C   UNL     1      11.891  16.133  19.113  0.00  0.00    +0.000 A 
ATOM     12  C   UNL     1      11.969  15.040  18.242  0.00  0.00    +0.000 A 
ATOM     13  C   UNL     1      10.815  14.325  17.896  0.00  0.00    +0.000 A 
ATOM     14  C   UNL     1       9.571  14.725  18.408  0.00  0.00    +0.000 A 
ATOM     15  C   UNL     1       9.507  15.821  19.285  0.00  0.00    +0.000 A 
BRANCH  10  17
ATOM     16  C   UNL     1      11.576  18.630  20.110  0.00  0.00    +0.000 C 
ATOM     17  O   UNL     1      10.684  17.586  20.499  0.00  0.00    +0.000 OA
ENDBRANCH  10  17
BRANCH  14  18
ATOM     18  O   UNL     1       8.461  14.042  17.973  0.00  0.00    +0.000 OA
ATOM     19  C   UNL     1       7.315  14.820  17.639  0.00  0.00    +0.000 C 
ENDBRANCH  14  18
ENDBRANCH   8  13
ENDBRANCH   7   9
ENDBRANCH   6   7
ENDBRANCH   4   6
ENDBRANCH   1   5
BRANCH   2  20
ATOM     20  C   UNL     1       7.103   5.959  16.569  0.00  0.00    +0.000 C 
BRANCH  20  21
ATOM     21  C   UNL     1       6.971   4.427  16.751  0.00  0.00    +0.000 C 
BRANCH  21  22
ATOM     22  C   UNL     1       5.609   3.977  16.212  0.00  0.00    +0.000 C 
BRANCH  22  23
ATOM     23  C   UNL     1       4.445   3.959  17.146  0.00  0.00    +0.000 A 
ATOM     24  C   UNL     1       3.170   3.465  16.948  0.00  0.00    +0.000 A 
ATOM     25  C   UNL     1       2.489   3.552  18.182  0.00  0.00    +0.000 A 
ATOM     26  C   UNL     1       1.210   3.186  18.641  0.00  0.00    +0.000 A 
ATOM     27  C   UNL     1       0.880   3.426  19.978  0.00  0.00    +0.000 A 
ATOM     28  C   UNL     1       1.799   4.027  20.843  0.00  0.00    +0.000 A 
ATOM     29  C   UNL     1       3.082   4.390  20.406  0.00  0.00    +0.000 A 
ATOM     30  C   UNL     1       3.390   4.130  19.071  0.00  0.00    +0.000 A 
ATOM     31  O   UNL     1       4.589   4.371  18.443  0.00  0.00    +0.000 OA
ENDBRANCH  22  23
BRANCH  22  32
ATOM     32  O   UNL     1       5.719   2.648  15.695  0.00  0.00    +0.000 OA
ATOM     33  H   UNL     1       5.639   2.724  14.728  0.00  0.00    +0.000 HD
ENDBRANCH  22  32
ENDBRANCH  21  22
ENDBRANCH  20  21
ENDBRANCH   2  20
TORSDOF 12
ENDMDL
MODEL 2
REMARK VINA RESULT:      -8.3      6.136      9.500
REMARK  Name = 
REMARK  15 active torsions:
REMARK  status: ('A' for Active; 'I' for Inactive)
REMARK    1  A    between atoms: C_1  and  O_2
REMARK    2  A    between atoms: O_2  and  C_3
REMARK    3  A    between atoms: C_6  and  C_7
REMARK    4  A    between atoms: C_8  and  C_9
REMARK    5  A    between atoms: C_9  and  C_10
REMARK    6  A    between atoms: C_10  and  C_11
REMARK    7  A    between atoms: C_12  and  C_13
REMARK    8  A    between atoms: C_14  and  C_15
REMARK    9  A    between atoms: C_14  and  C_16
REMARK   10  A    between atoms: C_16  and  C_17
REMARK   11  A    between atoms: C_17  and  C_18
REMARK   12  A    between atoms: C_18  and  O_19
REMARK   13  A    between atoms: C_18  and  C_20
REMARK   14  A    between atoms: C_29  and  O_30
REMARK   15  A    between atoms: O_30  and  C_31
REMARK                            x       y       z     vdW  Elec       q    Type
REMARK                         _______ _______ _______ _____ _____    ______ ____
ROOT
ATOM      1  C   UNL     1       1.636   4.705  20.391  0.00  0.00    +0.000 C 
ATOM      2  C   UNL     1       1.536   4.398  19.081  0.00  0.00    +0.000 C 
ATOM      3  C   UNL     1       1.794   5.376  17.955  0.00  0.00    +0.000 C 
ENDROOT
BRANCH   1   5
ATOM      4  C   UNL     1       1.053   7.034  20.891  0.00  0.00    +0.000 C 
ATOM      5  C   UNL     1       1.921   6.013  20.949  0.00  0.00    +0.000 C 
BRANCH   4   6
ATOM      6  C   UNL     1       1.362   8.433  21.368  0.00  0.00    +0.000 C 
BRANCH   6   7
ATOM      7  C   UNL     1       0.055   9.233  21.492  0.00  0.00    +0.000 C 
BRANCH   7   9
ATOM      8  C   UNL     1      -0.218  11.554  20.550  0.00  0.00    +0.000 C 
ATOM      9  C   UNL     1       0.214  10.730  21.521  0.00  0.00    +0.000 C 
BRANCH   8  13
ATOM     10  C   UNL     1      -2.483  10.157  17.197  0.00  0.00    +0.000 A 
ATOM     11  C   UNL     1      -3.086  10.895  18.212  0.00  0.00    +0.000 A 
ATOM     12  C   UNL     1      -2.325  11.355  19.293  0.00  0.00    +0.000 A 
ATOM     13  C   UNL     1      -0.949  11.100  19.351  0.00  0.00    +0.000 A 
ATOM     14  C   UNL     1      -0.328  10.399  18.307  0.00  0.00    +0.000 A 
ATOM     15  C   UNL     1      -1.104   9.938  17.229  0.00  0.00    +0.000 A 
BRANCH  10  17
ATOM     16  C   UNL     1      -2.935  10.230  14.886  0.00  0.00    +0.000 C 
ATOM     17  O   UNL     1      -3.303   9.752  16.179  0.00  0.00    +0.000 OA
ENDBRANCH  10  17
BRANCH  14  18
ATOM     18  O   UNL     1       1.036  10.246  18.372  0.00  0.00    +0.000 OA
ATOM     19  C   UNL     1       1.583   9.072  17.780  0.00  0.00    +0.000 C 
ENDBRANCH  14  18
ENDBRANCH   8  13
ENDBRANCH   7   9
ENDBRANCH   6   7
ENDBRANCH   4   6
ENDBRANCH   1   5
BRANCH   2  20
ATOM     20  C   UNL     1       1.202   3.000  18.576  0.00  0.00    +0.000 C 
BRANCH  20  21
ATOM     21  C   UNL     1       2.263   2.202  17.778  0.00  0.00    +0.000 C 
BRANCH  21  22
ATOM     22  C   UNL     1       3.577   2.192  18.568  0.00  0.00    +0.000 C 
BRANCH  22  23
ATOM     23  C   UNL     1       4.608   3.222  18.247  0.00  0.00    +0.000 A 
ATOM     24  C   UNL     1       4.860   3.867  17.051  0.00  0.00    +0.000 A 
ATOM     25  C   UNL     1       5.835   4.856  17.304  0.00  0.00    +0.000 A 
ATOM     26  C   UNL     1       6.470   5.847  16.534  0.00  0.00    +0.000 A 
ATOM     27  C   UNL     1       7.410   6.679  17.149  0.00  0.00    +0.000 A 
ATOM     28  C   UNL     1       7.722   6.526  18.503  0.00  0.00    +0.000 A 
ATOM     29  C   UNL     1       7.093   5.548  19.289  0.00  0.00    +0.000 A 
ATOM     30  C   UNL     1       6.151   4.739  18.655  0.00  0.00    +0.000 A 
ATOM     31  O   UNL     1       5.395   3.748  19.235  0.00  0.00    +0.000 OA
ENDBRANCH  22  23
BRANCH  22  32
ATOM     32  O   UNL     1       4.220   0.926  18.400  0.00  0.00    +0.000 OA
ATOM     33  H   UNL     1       3.510   0.277  18.245  0.00  0.00    +0.000 HD
ENDBRANCH  22  32
ENDBRANCH  21  22
ENDBRANCH  20  21
ENDBRANCH   2  20
TORSDOF 12
ENDMDL
MODEL 3
REMARK VINA RESULT:      -8.2      1.746      2.575
REMARK  Name = 
REMARK  15 active torsions:
REMARK  status: ('A' for Active; 'I' for Inactive)
REMARK    1  A    between atoms: C_1  and  O_2
REMARK    2  A    between atoms: O_2  and  C_3
REMARK    3  A    between atoms: C_6  and  C_7
REMARK    4  A    between atoms: C_8  and  C_9
REMARK    5  A    between atoms: C_9  and  C_10
REMARK    6  A    between atoms: C_10  and  C_11
REMARK    7  A    between atoms: C_12  and  C_13
REMARK    8  A    between atoms: C_14  and  C_15
REMARK    9  A    between atoms: C_14  and  C_16
REMARK   10  A    between atoms: C_16  and  C_17
REMARK   11  A    between atoms: C_17  and  C_18
REMARK   12  A    between atoms: C_18  and  O_19
REMARK   13  A    between atoms: C_18  and  C_20
REMARK   14  A    between atoms: C_29  and  O_30
REMARK   15  A    between atoms: O_30  and  C_31
REMARK                            x       y       z     vdW  Elec       q    Type
REMARK                         _______ _______ _______ _____ _____    ______ ____
ROOT
ATOM      1  C   UNL     1       7.599   7.791  17.397  0.00  0.00    +0.000 C 
ATOM      2  C   UNL     1       7.291   6.479  17.403  0.00  0.00    +0.000 C 
ATOM      3  C   UNL     1       7.657   5.523  18.518  0.00  0.00    +0.000 C 
ENDROOT
BRANCH   1   5
ATOM      4  C   UNL     1       8.660   9.806  18.310  0.00  0.00    +0.000 C 
ATOM      5  C   UNL     1       8.389   8.495  18.390  0.00  0.00    +0.000 C 
BRANCH   4   6
ATOM      6  C   UNL     1       9.565  10.542  19.268  0.00  0.00    +0.000 C 
BRANCH   6   7
ATOM      7  C   UNL     1      10.498  11.474  18.480  0.00  0.00    +0.000 C 
BRANCH   7   9
ATOM      8  C   UNL     1      12.109  12.948  19.738  0.00  0.00    +0.000 C 
ATOM      9  C   UNL     1      11.816  11.780  19.141  0.00  0.00    +0.000 C 
BRANCH   8  13
ATOM     10  C   UNL     1       9.197  16.057  20.168  0.00  0.00    +0.000 A 
ATOM     11  C   UNL     1       9.412  15.130  21.185  0.00  0.00    +0.000 A 
ATOM     12  C   UNL     1      10.378  14.131  21.031  0.00  0.00    +0.000 A 
ATOM     13  C   UNL     1      11.155  14.067  19.867  0.00  0.00    +0.000 A 
ATOM     14  C   UNL     1      10.975  15.028  18.860  0.00  0.00    +0.000 A 
ATOM     15  C   UNL     1       9.998  16.024  19.024  0.00  0.00    +0.000 A 
BRANCH  10  17
ATOM     16  C   UNL     1       7.202  17.068  19.425  0.00  0.00    +0.000 C 
ATOM     17  O   UNL     1       8.235  17.000  20.407  0.00  0.00    +0.000 OA
ENDBRANCH  10  17
BRANCH  14  18
ATOM     18  O   UNL     1      11.817  14.971  17.775  0.00  0.00    +0.000 OA
ATOM     19  C   UNL     1      12.330  16.209  17.291  0.00  0.00    +0.000 C 
ENDBRANCH  14  18
ENDBRANCH   8  13
ENDBRANCH   7   9
ENDBRANCH   6   7
ENDBRANCH   4   6
ENDBRANCH   1   5
BRANCH   2  20
ATOM     20  C   UNL     1       6.479   5.808  16.303  0.00  0.00    +0.000 C 
BRANCH  20  21
ATOM     21  C   UNL     1       5.084   6.370  15.930  0.00  0.00    +0.000 C 
BRANCH  21  22
ATOM     22  C   UNL     1       4.380   6.842  17.208  0.00  0.00    +0.000 C 
BRANCH  22  23
ATOM     23  C   UNL     1       3.568   5.855  17.978  0.00  0.00    +0.000 A 
ATOM     24  C   UNL     1       2.958   5.994  19.210  0.00  0.00    +0.000 A 
ATOM     25  C   UNL     1       2.189   4.830  19.432  0.00  0.00    +0.000 A 
ATOM     26  C   UNL     1       1.326   4.388  20.451  0.00  0.00    +0.000 A 
ATOM     27  C   UNL     1       0.712   3.138  20.318  0.00  0.00    +0.000 A 
ATOM     28  C   UNL     1       0.958   2.338  19.200  0.00  0.00    +0.000 A 
ATOM     29  C   UNL     1       1.809   2.766  18.169  0.00  0.00    +0.000 A 
ATOM     30  C   UNL     1       2.399   4.020  18.320  0.00  0.00    +0.000 A 
ATOM     31  O   UNL     1       3.234   4.648  17.426  0.00  0.00    +0.000 OA
ENDBRANCH  22  23
BRANCH  22  32
ATOM     32  O   UNL     1       3.494   7.918  16.890  0.00  0.00    +0.000 OA
ATOM     33  H   UNL     1       3.748   8.228  16.002  0.00  0.00    +0.000 HD
ENDBRANCH  22  32
ENDBRANCH  21  22
ENDBRANCH  20  21
ENDBRANCH   2  20
TORSDOF 12
ENDMDL
MODEL 4
REMARK VINA RESULT:      -8.2      1.980      2.788
REMARK  Name = 
REMARK  15 active torsions:
REMARK  status: ('A' for Active; 'I' for Inactive)
REMARK    1  A    between atoms: C_1  and  O_2
REMARK    2  A    between atoms: O_2  and  C_3
REMARK    3  A    between atoms: C_6  and  C_7
REMARK    4  A    between atoms: C_8  and  C_9
REMARK    5  A    between atoms: C_9  and  C_10
REMARK    6  A    between atoms: C_10  and  C_11
REMARK    7  A    between atoms: C_12  and  C_13
REMARK    8  A    between atoms: C_14  and  C_15
REMARK    9  A    between atoms: C_14  and  C_16
REMARK   10  A    between atoms: C_16  and  C_17
REMARK   11  A    between atoms: C_17  and  C_18
REMARK   12  A    between atoms: C_18  and  O_19
REMARK   13  A    between atoms: C_18  and  C_20
REMARK   14  A    between atoms: C_29  and  O_30
REMARK   15  A    between atoms: O_30  and  C_31
REMARK                            x       y       z     vdW  Elec       q    Type
REMARK                         _______ _______ _______ _____ _____    ______ ____
ROOT
ATOM      1  C   UNL     1       7.716   7.654  17.387  0.00  0.00    +0.000 C 
ATOM      2  C   UNL     1       7.446   6.333  17.392  0.00  0.00    +0.000 C 
ATOM      3  C   UNL     1       7.583   5.439  18.606  0.00  0.00    +0.000 C 
ENDROOT
BRANCH   1   5
ATOM      4  C   UNL     1       8.737   9.668  18.343  0.00  0.00    +0.000 C 
ATOM      5  C   UNL     1       8.253   8.427  18.491  0.00  0.00    +0.000 C 
BRANCH   4   6
ATOM      6  C   UNL     1       9.398  10.456  19.450  0.00  0.00    +0.000 C 
BRANCH   6   7
ATOM      7  C   UNL     1      10.417  11.434  18.846  0.00  0.00    +0.000 C 
BRANCH   7   9
ATOM      8  C   UNL     1      10.874  13.250  20.532  0.00  0.00    +0.000 C 
ATOM      9  C   UNL     1      11.276  12.169  19.841  0.00  0.00    +0.000 C 
BRANCH   8  13
ATOM     10  C   UNL     1       7.030  15.104  20.209  0.00  0.00    +0.000 A 
ATOM     11  C   UNL     1       7.952  15.180  19.168  0.00  0.00    +0.000 A 
ATOM     12  C   UNL     1       9.197  14.554  19.288  0.00  0.00    +0.000 A 
ATOM     13  C   UNL     1       9.519  13.828  20.441  0.00  0.00    +0.000 A 
ATOM     14  C   UNL     1       8.574  13.708  21.472  0.00  0.00    +0.000 A 
ATOM     15  C   UNL     1       7.328  14.345  21.342  0.00  0.00    +0.000 A 
BRANCH  10  17
ATOM     16  C   UNL     1       5.240  15.503  18.728  0.00  0.00    +0.000 C 
ATOM     17  O   UNL     1       5.836  15.742  20.002  0.00  0.00    +0.000 OA
ENDBRANCH  10  17
BRANCH  14  18
ATOM     18  O   UNL     1       8.908  12.917  22.545  0.00  0.00    +0.000 OA
ATOM     19  C   UNL     1       8.158  11.718  22.720  0.00  0.00    +0.000 C 
ENDBRANCH  14  18
ENDBRANCH   8  13
ENDBRANCH   7   9
ENDBRANCH   6   7
ENDBRANCH   4   6
ENDBRANCH   1   5
BRANCH   2  20
ATOM     20  C   UNL     1       6.910   5.587  16.176  0.00  0.00    +0.000 C 
BRANCH  20  21
ATOM     21  C   UNL     1       5.396   5.639  15.853  0.00  0.00    +0.000 C 
BRANCH  21  22
ATOM     22  C   UNL     1       4.816   4.224  15.959  0.00  0.00    +0.000 C 
BRANCH  22  23
ATOM     23  C   UNL     1       3.837   3.936  17.049  0.00  0.00    +0.000 A 
ATOM     24  C   UNL     1       3.459   2.722  17.589  0.00  0.00    +0.000 A 
ATOM     25  C   UNL     1       2.620   2.995  18.691  0.00  0.00    +0.000 A 
ATOM     26  C   UNL     1       1.959   2.213  19.656  0.00  0.00    +0.000 A 
ATOM     27  C   UNL     1       1.197   2.856  20.637  0.00  0.00    +0.000 A 
ATOM     28  C   UNL     1       1.085   4.248  20.655  0.00  0.00    +0.000 A 
ATOM     29  C   UNL     1       1.744   5.045  19.706  0.00  0.00    +0.000 A 
ATOM     30  C   UNL     1       2.507   4.381  18.746  0.00  0.00    +0.000 A 
ATOM     31  O   UNL     1       3.257   4.959  17.749  0.00  0.00    +0.000 OA
ENDBRANCH  22  23
BRANCH  22  32
ATOM     32  O   UNL     1       5.882   3.287  16.130  0.00  0.00    +0.000 OA
ATOM     33  H   UNL     1       5.528   2.569  16.683  0.00  0.00    +0.000 HD
ENDBRANCH  22  32
ENDBRANCH  21  22
ENDBRANCH  20  21
ENDBRANCH   2  20
TORSDOF 12
ENDMDL
MODEL 5
REMARK VINA RESULT:      -8.0      1.969      2.999
REMARK  Name = 
REMARK  15 active torsions:
REMARK  status: ('A' for Active; 'I' for Inactive)
REMARK    1  A    between atoms: C_1  and  O_2
REMARK    2  A    between atoms: O_2  and  C_3
REMARK    3  A    between atoms: C_6  and  C_7
REMARK    4  A    between atoms: C_8  and  C_9
REMARK    5  A    between atoms: C_9  and  C_10
REMARK    6  A    between atoms: C_10  and  C_11
REMARK    7  A    between atoms: C_12  and  C_13
REMARK    8  A    between atoms: C_14  and  C_15
REMARK    9  A    between atoms: C_14  and  C_16
REMARK   10  A    between atoms: C_16  and  C_17
REMARK   11  A    between atoms: C_17  and  C_18
REMARK   12  A    between atoms: C_18  and  O_19
REMARK   13  A    between atoms: C_18  and  C_20
REMARK   14  A    between atoms: C_29  and  O_30
REMARK   15  A    between atoms: O_30  and  C_31
REMARK                            x       y       z     vdW  Elec       q    Type
REMARK                         _______ _______ _______ _____ _____    ______ ____
ROOT
ATOM      1  C   UNL     1       7.418   8.028  17.532  0.00  0.00    +0.000 C 
ATOM      2  C   UNL     1       7.034   6.742  17.658  0.00  0.00    +0.000 C 
ATOM      3  C   UNL     1       7.587   5.785  18.691  0.00  0.00    +0.000 C 
ENDROOT
BRANCH   1   5
ATOM      4  C   UNL     1       8.713  10.006  18.185  0.00  0.00    +0.000 C 
ATOM      5  C   UNL     1       8.462   8.693  18.288  0.00  0.00    +0.000 C 
BRANCH   4   6
ATOM      6  C   UNL     1       9.859  10.705  18.877  0.00  0.00    +0.000 C 
BRANCH   6   7
ATOM      7  C   UNL     1      10.333  11.887  18.018  0.00  0.00    +0.000 C 
BRANCH   7   9
ATOM      8  C   UNL     1      10.941  14.058  19.144  0.00  0.00    +0.000 C 
ATOM      9  C   UNL     1      11.284  12.838  18.695  0.00  0.00    +0.000 C 
BRANCH   8  13
ATOM     10  C   UNL     1       6.896  15.449  18.968  0.00  0.00    +0.000 A 
ATOM     11  C   UNL     1       7.327  14.628  20.007  0.00  0.00    +0.000 A 
ATOM     12  C   UNL     1       8.657  14.196  20.054  0.00  0.00    +0.000 A 
ATOM     13  C   UNL     1       9.571  14.604  19.074  0.00  0.00    +0.000 A 
ATOM     14  C   UNL     1       9.153  15.471  18.053  0.00  0.00    +0.000 A 
ATOM     15  C   UNL     1       7.813  15.894  18.014  0.00  0.00    +0.000 A 
BRANCH  10  17
ATOM     16  C   UNL     1       4.764  15.259  17.982  0.00  0.00    +0.000 C 
ATOM     17  O   UNL     1       5.581  15.826  19.006  0.00  0.00    +0.000 OA
ENDBRANCH  10  17
BRANCH  14  18
ATOM     18  O   UNL     1      10.106  15.907  17.164  0.00  0.00    +0.000 OA
ATOM     19  C   UNL     1      10.498  17.273  17.258  0.00  0.00    +0.000 C 
ENDBRANCH  14  18
ENDBRANCH   8  13
ENDBRANCH   7   9
ENDBRANCH   6   7
ENDBRANCH   4   6
ENDBRANCH   1   5
BRANCH   2  20
ATOM     20  C   UNL     1       5.944   6.110  16.801  0.00  0.00    +0.000 C 
BRANCH  20  21
ATOM     21  C   UNL     1       4.714   6.953  16.381  0.00  0.00    +0.000 C 
BRANCH  21  22
ATOM     22  C   UNL     1       3.912   7.320  17.634  0.00  0.00    +0.000 C 
BRANCH  22  23
ATOM     23  C   UNL     1       3.140   6.244  18.325  0.00  0.00    +0.000 A 
ATOM     24  C   UNL     1       2.295   5.291  17.791  0.00  0.00    +0.000 A 
ATOM     25  C   UNL     1       1.932   4.417  18.838  0.00  0.00    +0.000 A 
ATOM     26  C   UNL     1       1.149   3.252  18.935  0.00  0.00    +0.000 A 
ATOM     27  C   UNL     1       1.019   2.630  20.181  0.00  0.00    +0.000 A 
ATOM     28  C   UNL     1       1.647   3.158  21.312  0.00  0.00    +0.000 A 
ATOM     29  C   UNL     1       2.438   4.315  21.233  0.00  0.00    +0.000 A 
ATOM     30  C   UNL     1       2.561   4.910  19.977  0.00  0.00    +0.000 A 
ATOM     31  O   UNL     1       3.308   6.021  19.664  0.00  0.00    +0.000 OA
ENDBRANCH  22  23
BRANCH  22  32
ATOM     32  O   UNL     1       2.962   8.337  17.307  0.00  0.00    +0.000 OA
ATOM     33  H   UNL     1       2.950   8.396  16.335  0.00  0.00    +0.000 HD
ENDBRANCH  22  32
ENDBRANCH  21  22
ENDBRANCH  20  21
ENDBRANCH   2  20
TORSDOF 12
ENDMDL
MODEL 6
REMARK VINA RESULT:      -8.0      6.088      8.628
REMARK  Name = 
REMARK  15 active torsions:
REMARK  status: ('A' for Active; 'I' for Inactive)
REMARK    1  A    between atoms: C_1  and  O_2
REMARK    2  A    between atoms: O_2  and  C_3
REMARK    3  A    between atoms: C_6  and  C_7
REMARK    4  A    between atoms: C_8  and  C_9
REMARK    5  A    between atoms: C_9  and  C_10
REMARK    6  A    between atoms: C_10  and  C_11
REMARK    7  A    between atoms: C_12  and  C_13
REMARK    8  A    between atoms: C_14  and  C_15
REMARK    9  A    between atoms: C_14  and  C_16
REMARK   10  A    between atoms: C_16  and  C_17
REMARK   11  A    between atoms: C_17  and  C_18
REMARK   12  A    between atoms: C_18  and  O_19
REMARK   13  A    between atoms: C_18  and  C_20
REMARK   14  A    between atoms: C_29  and  O_30
REMARK   15  A    between atoms: O_30  and  C_31
REMARK                            x       y       z     vdW  Elec       q    Type
REMARK                         _______ _______ _______ _____ _____    ______ ____
ROOT
ATOM      1  C   UNL     1       2.342   5.622  18.528  0.00  0.00    +0.000 C 
ATOM      2  C   UNL     1       1.886   4.950  19.605  0.00  0.00    +0.000 C 
ATOM      3  C   UNL     1       1.607   5.585  20.950  0.00  0.00    +0.000 C 
ENDROOT
BRANCH   1   5
ATOM      4  C   UNL     1       1.885   7.988  18.068  0.00  0.00    +0.000 C 
ATOM      5  C   UNL     1       2.718   7.023  18.484  0.00  0.00    +0.000 C 
BRANCH   4   6
ATOM      6  C   UNL     1       2.280   9.437  17.911  0.00  0.00    +0.000 C 
BRANCH   6   7
ATOM      7  C   UNL     1       1.291  10.325  18.679  0.00  0.00    +0.000 C 
BRANCH   7   9
ATOM      8  C   UNL     1      -1.180  10.588  19.101  0.00  0.00    +0.000 C 
ATOM      9  C   UNL     1      -0.165  10.083  18.378  0.00  0.00    +0.000 C 
BRANCH   8  13
ATOM     10  C   UNL     1      -0.814  13.107  22.543  0.00  0.00    +0.000 A 
ATOM     11  C   UNL     1      -0.897  11.723  22.673  0.00  0.00    +0.000 A 
ATOM     12  C   UNL     1      -1.002  10.916  21.535  0.00  0.00    +0.000 A 
ATOM     13  C   UNL     1      -0.998  11.488  20.256  0.00  0.00    +0.000 A 
ATOM     14  C   UNL     1      -0.865  12.879  20.119  0.00  0.00    +0.000 A 
ATOM     15  C   UNL     1      -0.766  13.679  21.270  0.00  0.00    +0.000 A 
BRANCH  10  17
ATOM     16  C   UNL     1      -1.926  14.413  24.159  0.00  0.00    +0.000 C 
ATOM     17  O   UNL     1      -0.710  13.815  23.710  0.00  0.00    +0.000 OA
ENDBRANCH  10  17
BRANCH  14  18
ATOM     18  O   UNL     1      -0.785  13.382  18.843  0.00  0.00    +0.000 OA
ATOM     19  C   UNL     1       0.427  14.039  18.484  0.00  0.00    +0.000 C 
ENDBRANCH  14  18
ENDBRANCH   8  13
ENDBRANCH   7   9
ENDBRANCH   6   7
ENDBRANCH   4   6
ENDBRANCH   1   5
BRANCH   2  20
ATOM     20  C   UNL     1       1.540   3.467  19.576  0.00  0.00    +0.000 C 
BRANCH  20  21
ATOM     21  C   UNL     1       2.045   2.586  18.406  0.00  0.00    +0.000 C 
BRANCH  21  22
ATOM     22  C   UNL     1       3.518   2.236  18.646  0.00  0.00    +0.000 C 
BRANCH  22  23
ATOM     23  C   UNL     1       4.557   3.247  18.289  0.00  0.00    +0.000 A 
ATOM     24  C   UNL     1       4.805   3.858  17.075  0.00  0.00    +0.000 A 
ATOM     25  C   UNL     1       5.793   4.843  17.294  0.00  0.00    +0.000 A 
ATOM     26  C   UNL     1       6.431   5.807  16.492  0.00  0.00    +0.000 A 
ATOM     27  C   UNL     1       7.384   6.645  17.078  0.00  0.00    +0.000 A 
ATOM     28  C   UNL     1       7.706   6.524  18.432  0.00  0.00    +0.000 A 
ATOM     29  C   UNL     1       7.074   5.574  19.250  0.00  0.00    +0.000 A 
ATOM     30  C   UNL     1       6.118   4.758  18.644  0.00  0.00    +0.000 A 
ATOM     31  O   UNL     1       5.358   3.790  19.257  0.00  0.00    +0.000 OA
ENDBRANCH  22  23
BRANCH  22  32
ATOM     32  O   UNL     1       3.850   1.055  17.911  0.00  0.00    +0.000 OA
ATOM     33  H   UNL     1       3.783   0.315  18.539  0.00  0.00    +0.000 HD
ENDBRANCH  22  32
ENDBRANCH  21  22
ENDBRANCH  20  21
ENDBRANCH   2  20
TORSDOF 12
ENDMDL
MODEL 7
REMARK VINA RESULT:      -8.0      6.370      9.411
REMARK  Name = 
REMARK  15 active torsions:
REMARK  status: ('A' for Active; 'I' for Inactive)
REMARK    1  A    between atoms: C_1  and  O_2
REMARK    2  A    between atoms: O_2  and  C_3
REMARK    3  A    between atoms: C_6  and  C_7
REMARK    4  A    between atoms: C_8  and  C_9
REMARK    5  A    between atoms: C_9  and  C_10
REMARK    6  A    between atoms: C_10  and  C_11
REMARK    7  A    between atoms: C_12  and  C_13
REMARK    8  A    between atoms: C_14  and  C_15
REMARK    9  A    between atoms: C_14  and  C_16
REMARK   10  A    between atoms: C_16  and  C_17
REMARK   11  A    between atoms: C_17  and  C_18
REMARK   12  A    between atoms: C_18  and  O_19
REMARK   13  A    between atoms: C_18  and  C_20
REMARK   14  A    between atoms: C_29  and  O_30
REMARK   15  A    between atoms: O_30  and  C_31
REMARK                            x       y       z     vdW  Elec       q    Type
REMARK                         _______ _______ _______ _____ _____    ______ ____
ROOT
ATOM      1  C   UNL     1       1.551   4.839  17.964  0.00  0.00    +0.000 C 
ATOM      2  C   UNL     1       1.432   4.161  19.123  0.00  0.00    +0.000 C 
ATOM      3  C   UNL     1       1.312   4.812  20.484  0.00  0.00    +0.000 C 
ENDROOT
BRANCH   1   5
ATOM      4  C   UNL     1       2.827   6.933  17.957  0.00  0.00    +0.000 C 
ATOM      5  C   UNL     1       1.666   6.278  17.817  0.00  0.00    +0.000 C 
BRANCH   4   6
ATOM      6  C   UNL     1       2.960   8.437  17.915  0.00  0.00    +0.000 C 
BRANCH   6   7
ATOM      7  C   UNL     1       1.593   9.081  18.196  0.00  0.00    +0.000 C 
BRANCH   7   9
ATOM      8  C   UNL     1       0.151   9.905  20.092  0.00  0.00    +0.000 C 
ATOM      9  C   UNL     1       1.274   9.311  19.650  0.00  0.00    +0.000 C 
BRANCH   8  13
ATOM     10  C   UNL     1      -2.876  11.225  17.369  0.00  0.00    +0.000 A 
ATOM     11  C   UNL     1      -2.126  10.083  17.107  0.00  0.00    +0.000 A 
ATOM     12  C   UNL     1      -1.151   9.659  18.016  0.00  0.00    +0.000 A 
ATOM     13  C   UNL     1      -0.938  10.364  19.208  0.00  0.00    +0.000 A 
ATOM     14  C   UNL     1      -1.726  11.488  19.500  0.00  0.00    +0.000 A 
ATOM     15  C   UNL     1      -2.699  11.906  18.576  0.00  0.00    +0.000 A 
BRANCH  10  17
ATOM     16  C   UNL     1      -5.117  11.817  16.939  0.00  0.00    +0.000 C 
ATOM     17  O   UNL     1      -3.810  11.562  16.426  0.00  0.00    +0.000 OA
ENDBRANCH  10  17
BRANCH  14  18
ATOM     18  O   UNL     1      -1.534  12.095  20.718  0.00  0.00    +0.000 OA
ATOM     19  C   UNL     1      -0.974  13.404  20.704  0.00  0.00    +0.000 C 
ENDBRANCH  14  18
ENDBRANCH   8  13
ENDBRANCH   7   9
ENDBRANCH   6   7
ENDBRANCH   4   6
ENDBRANCH   1   5
BRANCH   2  20
ATOM     20  C   UNL     1       1.347   2.641  19.194  0.00  0.00    +0.000 C 
BRANCH  20  21
ATOM     21  C   UNL     1       2.293   1.780  18.321  0.00  0.00    +0.000 C 
BRANCH  21  22
ATOM     22  C   UNL     1       3.713   1.864  18.892  0.00  0.00    +0.000 C 
BRANCH  22  23
ATOM     23  C   UNL     1       4.604   2.966  18.422  0.00  0.00    +0.000 A 
ATOM     24  C   UNL     1       4.675   3.565  17.179  0.00  0.00    +0.000 A 
ATOM     25  C   UNL     1       5.572   4.651  17.287  0.00  0.00    +0.000 A 
ATOM     26  C   UNL     1       6.030   5.653  16.412  0.00  0.00    +0.000 A 
ATOM     27  C   UNL     1       6.942   6.599  16.891  0.00  0.00    +0.000 A 
ATOM     28  C   UNL     1       7.398   6.547  18.210  0.00  0.00    +0.000 A 
ATOM     29  C   UNL     1       6.946   5.560  19.100  0.00  0.00    +0.000 A 
ATOM     30  C   UNL     1       6.028   4.636  18.602  0.00  0.00    +0.000 A 
ATOM     31  O   UNL     1       5.431   3.612  19.300  0.00  0.00    +0.000 OA
ENDBRANCH  22  23
BRANCH  22  32
ATOM     32  O   UNL     1       4.409   0.647  18.612  0.00  0.00    +0.000 OA
ATOM     33  H   UNL     1       5.073   0.863  17.933  0.00  0.00    +0.000 HD
ENDBRANCH  22  32
ENDBRANCH  21  22
ENDBRANCH  20  21
ENDBRANCH   2  20
TORSDOF 12
ENDMDL
MODEL 8
REMARK VINA RESULT:      -7.9      2.210      2.871
REMARK  Name = 
REMARK  15 active torsions:
REMARK  status: ('A' for Active; 'I' for Inactive)
REMARK    1  A    between atoms: C_1  and  O_2
REMARK    2  A    between atoms: O_2  and  C_3
REMARK    3  A    between atoms: C_6  and  C_7
REMARK    4  A    between atoms: C_8  and  C_9
REMARK    5  A    between atoms: C_9  and  C_10
REMARK    6  A    between atoms: C_10  and  C_11
REMARK    7  A    between atoms: C_12  and  C_13
REMARK    8  A    between atoms: C_14  and  C_15
REMARK    9  A    between atoms: C_14  and  C_16
REMARK   10  A    between atoms: C_16  and  C_17
REMARK   11  A    between atoms: C_17  and  C_18
REMARK   12  A    between atoms: C_18  and  O_19
REMARK   13  A    between atoms: C_18  and  C_20
REMARK   14  A    between atoms: C_29  and  O_30
REMARK   15  A    between atoms: O_30  and  C_31
REMARK                            x       y       z     vdW  Elec       q    Type
REMARK                         _______ _______ _______ _____ _____    ______ ____
ROOT
ATOM      1  C   UNL     1       7.724   7.247  17.670  0.00  0.00    +0.000 C 
ATOM      2  C   UNL     1       7.680   6.023  18.234  0.00  0.00    +0.000 C 
ATOM      3  C   UNL     1       8.029   5.738  19.679  0.00  0.00    +0.000 C 
ENDROOT
BRANCH   1   5
ATOM      4  C   UNL     1       8.358   9.616  17.627  0.00  0.00    +0.000 C 
ATOM      5  C   UNL     1       8.180   8.470  18.302  0.00  0.00    +0.000 C 
BRANCH   4   6
ATOM      6  C   UNL     1       8.932  10.874  18.235  0.00  0.00    +0.000 C 
BRANCH   6   7
ATOM      7  C   UNL     1       9.680  10.524  19.530  0.00  0.00    +0.000 C 
BRANCH   7   9
ATOM      8  C   UNL     1      10.773  12.575  20.504  0.00  0.00    +0.000 C 
ATOM      9  C   UNL     1      10.860  11.401  19.853  0.00  0.00    +0.000 C 
BRANCH   8  13
ATOM     10  C   UNL     1       7.059  13.994  22.091  0.00  0.00    +0.000 A 
ATOM     11  C   UNL     1       7.894  13.174  22.845  0.00  0.00    +0.000 A 
ATOM     12  C   UNL     1       9.110  12.733  22.314  0.00  0.00    +0.000 A 
ATOM     13  C   UNL     1       9.511  13.130  21.032  0.00  0.00    +0.000 A 
ATOM     14  C   UNL     1       8.695  13.996  20.287  0.00  0.00    +0.000 A 
ATOM     15  C   UNL     1       7.473  14.428  20.830  0.00  0.00    +0.000 A 
BRANCH  10  17
ATOM     16  C   UNL     1       6.035  15.397  23.684  0.00  0.00    +0.000 C 
ATOM     17  O   UNL     1       5.891  14.380  22.693  0.00  0.00    +0.000 OA
ENDBRANCH  10  17
BRANCH  14  18
ATOM     18  O   UNL     1       9.171  14.421  19.070  0.00  0.00    +0.000 OA
ATOM     19  C   UNL     1       8.477  15.496  18.446  0.00  0.00    +0.000 C 
ENDBRANCH  14  18
ENDBRANCH   8  13
ENDBRANCH   7   9
ENDBRANCH   6   7
ENDBRANCH   4   6
ENDBRANCH   1   5
BRANCH   2  20
ATOM     20  C   UNL     1       7.215   4.778  17.489  0.00  0.00    +0.000 C 
BRANCH  20  21
ATOM     21  C   UNL     1       6.729   4.900  16.023  0.00  0.00    +0.000 C 
BRANCH  21  22
ATOM     22  C   UNL     1       5.423   4.114  15.864  0.00  0.00    +0.000 C 
BRANCH  22  23
ATOM     23  C   UNL     1       4.430   4.152  16.978  0.00  0.00    +0.000 A 
ATOM     24  C   UNL     1       3.932   3.116  17.744  0.00  0.00    +0.000 A 
ATOM     25  C   UNL     1       3.137   3.688  18.761  0.00  0.00    +0.000 A 
ATOM     26  C   UNL     1       2.407   3.186  19.853  0.00  0.00    +0.000 A 
ATOM     27  C   UNL     1       1.726   4.087  20.679  0.00  0.00    +0.000 A 
ATOM     28  C   UNL     1       1.761   5.459  20.419  0.00  0.00    +0.000 A 
ATOM     29  C   UNL     1       2.490   5.979  19.339  0.00  0.00    +0.000 A 
ATOM     30  C   UNL     1       3.170   5.061  18.538  0.00  0.00    +0.000 A 
ATOM     31  O   UNL     1       3.967   5.348  17.455  0.00  0.00    +0.000 OA
ENDBRANCH  22  23
BRANCH  22  32
ATOM     32  O   UNL     1       5.724   2.732  15.652  0.00  0.00    +0.000 OA
ATOM     33  H   UNL     1       5.415   2.261  16.446  0.00  0.00    +0.000 HD
ENDBRANCH  22  32
ENDBRANCH  21  22
ENDBRANCH  20  21
ENDBRANCH   2  20
TORSDOF 12
ENDMDL
MODEL 9
REMARK VINA RESULT:      -7.9      7.208     10.554
REMARK  Name = 
REMARK  15 active torsions:
REMARK  status: ('A' for Active; 'I' for Inactive)
REMARK    1  A    between atoms: C_1  and  O_2
REMARK    2  A    between atoms: O_2  and  C_3
REMARK    3  A    between atoms: C_6  and  C_7
REMARK    4  A    between atoms: C_8  and  C_9
REMARK    5  A    between atoms: C_9  and  C_10
REMARK    6  A    between atoms: C_10  and  C_11
REMARK    7  A    between atoms: C_12  and  C_13
REMARK    8  A    between atoms: C_14  and  C_15
REMARK    9  A    between atoms: C_14  and  C_16
REMARK   10  A    between atoms: C_16  and  C_17
REMARK   11  A    between atoms: C_17  and  C_18
REMARK   12  A    between atoms: C_18  and  O_19
REMARK   13  A    between atoms: C_18  and  C_20
REMARK   14  A    between atoms: C_29  and  O_30
REMARK   15  A    between atoms: O_30  and  C_31
REMARK                            x       y       z     vdW  Elec       q    Type
REMARK                         _______ _______ _______ _____ _____    ______ ____
ROOT
ATOM      1  C   UNL     1       1.071   6.713  21.157  0.00  0.00    +0.000 C 
ATOM      2  C   UNL     1       1.983   5.930  20.547  0.00  0.00    +0.000 C 
ATOM      3  C   UNL     1       2.885   6.389  19.422  0.00  0.00    +0.000 C 
ENDROOT
BRANCH   1   5
ATOM      4  C   UNL     1       0.225   8.955  21.682  0.00  0.00    +0.000 C 
ATOM      5  C   UNL     1       0.736   8.079  20.803  0.00  0.00    +0.000 C 
BRANCH   4   6
ATOM      6  C   UNL     1      -0.232  10.348  21.319  0.00  0.00    +0.000 C 
BRANCH   6   7
ATOM      7  C   UNL     1      -0.587  10.399  19.825  0.00  0.00    +0.000 C 
BRANCH   7   9
ATOM      8  C   UNL     1      -1.299  12.417  18.495  0.00  0.00    +0.000 C 
ATOM      9  C   UNL     1      -0.350  11.723  19.149  0.00  0.00    +0.000 C 
BRANCH   8  13
ATOM     10  C   UNL     1      -5.376  11.117  18.410  0.00  0.00    +0.000 A 
ATOM     11  C   UNL     1      -4.903  11.924  19.440  0.00  0.00    +0.000 A 
ATOM     12  C   UNL     1      -3.570  12.351  19.442  0.00  0.00    +0.000 A 
ATOM     13  C   UNL     1      -2.708  11.992  18.398  0.00  0.00    +0.000 A 
ATOM     14  C   UNL     1      -3.195  11.219  17.332  0.00  0.00    +0.000 A 
ATOM     15  C   UNL     1      -4.534  10.793  17.344  0.00  0.00    +0.000 A 
BRANCH  10  17
ATOM     16  C   UNL     1      -6.958   9.637  19.338  0.00  0.00    +0.000 C 
ATOM     17  O   UNL     1      -6.693  10.752  18.488  0.00  0.00    +0.000 OA
ENDBRANCH  10  17
BRANCH  14  18
ATOM     18  O   UNL     1      -2.332  10.964  16.292  0.00  0.00    +0.000 OA
ATOM     19  C   UNL     1      -2.896  10.403  15.110  0.00  0.00    +0.000 C 
ENDBRANCH  14  18
ENDBRANCH   8  13
ENDBRANCH   7   9
ENDBRANCH   6   7
ENDBRANCH   4   6
ENDBRANCH   1   5
BRANCH   2  20
ATOM     20  C   UNL     1       2.255   4.489  20.962  0.00  0.00    +0.000 C 
BRANCH  20  21
ATOM     21  C   UNL     1       1.552   3.330  20.213  0.00  0.00    +0.000 C 
BRANCH  21  22
ATOM     22  C   UNL     1       2.616   2.431  19.574  0.00  0.00    +0.000 C 
BRANCH  22  23
ATOM     23  C   UNL     1       3.604   3.051  18.643  0.00  0.00    +0.000 A 
ATOM     24  C   UNL     1       3.462   3.385  17.310  0.00  0.00    +0.000 A 
ATOM     25  C   UNL     1       4.631   4.077  16.923  0.00  0.00    +0.000 A 
ATOM     26  C   UNL     1       5.073   4.698  15.741  0.00  0.00    +0.000 A 
ATOM     27  C   UNL     1       6.329   5.314  15.733  0.00  0.00    +0.000 A 
ATOM     28  C   UNL     1       7.135   5.306  16.875  0.00  0.00    +0.000 A 
ATOM     29  C   UNL     1       6.707   4.698  18.065  0.00  0.00    +0.000 A 
ATOM     30  C   UNL     1       5.446   4.102  18.050  0.00  0.00    +0.000 A 
ATOM     31  O   UNL     1       4.818   3.483  19.105  0.00  0.00    +0.000 OA
ENDBRANCH  22  23
BRANCH  22  32
ATOM     32  O   UNL     1       1.974   1.391  18.832  0.00  0.00    +0.000 OA
ATOM     33  H   UNL     1       2.151   1.577  17.893  0.00  0.00    +0.000 HD
ENDBRANCH  22  32
ENDBRANCH  21  22
ENDBRANCH  20  21
ENDBRANCH   2  20
TORSDOF 12
ENDMDL
