MODEL 1
REMARK VINA RESULT:      -8.1      0.000      0.000
REMARK  Name = 
REMARK  3 active torsions:
REMARK  status: ('A' for Active; 'I' for Inactive)
REMARK    1  A    between atoms: CB_1  and  CA_2
REMARK    2  A    between atoms: C_6  and  C_7
REMARK    3  A    between atoms: C_7  and  C_8
REMARK                            x       y       z     vdW  Elec       q    Type
REMARK                         _______ _______ _______ _____ _____    ______ ____
ROOT
ATOM      1  C   UNK A   2       3.157   5.680  18.494  0.00  0.00    +0.000 C 
ENDROOT
BRANCH   1   7
ATOM      2  CB  ALA A   1       7.218   4.491  16.001  0.00  0.00    +0.000 C 
ATOM      3  CA  ALA A   1       5.695   4.545  16.059  0.00  0.00    +0.000 C 
ATOM      4  N   ALA A   1       5.206   3.724  17.163  0.00  0.00    +0.000 N 
ATOM      5  C   UNK A   2       5.151   4.231  18.443  0.00  0.00    +0.000 C 
ATOM      6  O   UNK A   2       5.200   3.481  19.415  0.00  0.00    +0.000 OA
ATOM      7  C   UNK A   2       4.694   5.697  18.530  0.00  0.00    +0.000 C 
ATOM      8  N   UNK A   2       5.261   6.511  17.455  0.00  0.00    +0.000 N 
ATOM      9  C   ALA A   1       5.263   6.018  16.170  0.00  0.00    +0.000 C 
ATOM     10  O   ALA A   1       5.178   6.776  15.208  0.00  0.00    +0.000 OA
ATOM     11  H   ALA A   1       5.421   2.735  17.134  0.00  0.00    +0.000 HD
ATOM     12  H   UNK A   2       5.039   7.500  17.492  0.00  0.00    +0.000 HD
ENDBRANCH   1   7
BRANCH   1  13
ATOM     13  C   UNK A   2       2.529   6.920  19.047  0.00  0.00    +0.000 A 
ATOM     14  C   UNK A   2       2.140   8.084  18.412  0.00  0.00    +0.000 A 
ATOM     15  C   UNK A   2       1.457   8.890  19.360  0.00  0.00    +0.000 A 
ATOM     16  C   UNK A   2       0.791  10.129  19.288  0.00  0.00    +0.000 A 
ATOM     17  C   UNK A   2       0.140  10.620  20.427  0.00  0.00    +0.000 A 
ATOM     18  C   UNK A   2       0.165   9.901  21.619  0.00  0.00    +0.000 A 
ATOM     19 CL   UNK A   2      -0.678  10.510  22.993  0.00  0.00    +0.000 Cl
ATOM     20  C   UNK A   2       0.846   8.684  21.725  0.00  0.00    +0.000 A 
ATOM     21  C   UNK A   2       1.478   8.202  20.573  0.00  0.00    +0.000 A 
ATOM     22  N   UNK A   2       2.182   7.037  20.369  0.00  0.00    +0.000 N 
ATOM     23  H   UNK A   2       2.347   6.340  21.084  0.00  0.00    +0.000 HD
ENDBRANCH   1  13
TORSDOF 2
ENDMDL
MODEL 2
REMARK VINA RESULT:      -7.9      3.845      4.972
REMARK  Name = 
REMARK  3 active torsions:
REMARK  status: ('A' for Active; 'I' for Inactive)
REMARK    1  A    between atoms: CB_1  and  CA_2
REMARK    2  A    between atoms: C_6  and  C_7
REMARK    3  A    between atoms: C_7  and  C_8
REMARK                            x       y       z     vdW  Elec       q    Type
REMARK                         _______ _______ _______ _____ _____    ______ ____
ROOT
ATOM      1  C   UNK A   2       5.599   3.679  16.141  0.00  0.00    +0.000 C 
ENDROOT
BRANCH   1   7
ATOM      2  CB  ALA A   1       8.053   7.483  18.046  0.00  0.00    +0.000 C 
ATOM      3  CA  ALA A   1       6.715   6.838  17.703  0.00  0.00    +0.000 C 
ATOM      4  N   ALA A   1       6.610   6.639  16.259  0.00  0.00    +0.000 N 
ATOM      5  C   UNK A   2       7.162   5.526  15.663  0.00  0.00    +0.000 C 
ATOM      6  O   UNK A   2       7.497   5.552  14.482  0.00  0.00    +0.000 OA
ATOM      7  C   UNK A   2       7.000   4.225  16.467  0.00  0.00    +0.000 C 
ATOM      8  N   UNK A   2       7.186   4.442  17.902  0.00  0.00    +0.000 N 
ATOM      9  C   ALA A   1       6.586   5.528  18.499  0.00  0.00    +0.000 C 
ATOM     10  O   ALA A   1       6.224   5.477  19.672  0.00  0.00    +0.000 OA
ATOM     11  H   ALA A   1       6.648   7.466  15.675  0.00  0.00    +0.000 HD
ATOM     12  H   UNK A   2       7.145   3.609  18.479  0.00  0.00    +0.000 HD
ENDBRANCH   1   7
BRANCH   1  13
ATOM     13  C   UNK A   2       4.616   3.841  17.257  0.00  0.00    +0.000 A 
ATOM     14  C   UNK A   2       3.571   4.731  17.405  0.00  0.00    +0.000 A 
ATOM     15  C   UNK A   2       2.849   4.368  18.572  0.00  0.00    +0.000 A 
ATOM     16  C   UNK A   2       1.678   4.850  19.185  0.00  0.00    +0.000 A 
ATOM     17  C   UNK A   2       1.182   4.196  20.320  0.00  0.00    +0.000 A 
ATOM     18  C   UNK A   2       1.850   3.092  20.845  0.00  0.00    +0.000 A 
ATOM     19 CL   UNK A   2       1.197   2.282  22.219  0.00  0.00    +0.000 Cl
ATOM     20  C   UNK A   2       3.033   2.613  20.274  0.00  0.00    +0.000 A 
ATOM     21  C   UNK A   2       3.504   3.270  19.131  0.00  0.00    +0.000 A 
ATOM     22  N   UNK A   2       4.602   3.006  18.347  0.00  0.00    +0.000 N 
ATOM     23  H   UNK A   2       5.257   2.253  18.518  0.00  0.00    +0.000 HD
ENDBRANCH   1  13
TORSDOF 2
ENDMDL
MODEL 3
REMARK VINA RESULT:      -7.9      2.107      2.631
REMARK  Name = 
REMARK  3 active torsions:
REMARK  status: ('A' for Active; 'I' for Inactive)
REMARK    1  A    between atoms: CB_1  and  CA_2
REMARK    2  A    between atoms: C_6  and  C_7
REMARK    3  A    between atoms: C_7  and  C_8
REMARK                            x       y       z     vdW  Elec       q    Type
REMARK                         _______ _______ _______ _____ _____    ______ ____
ROOT
ATOM      1  C   UNK A   2       2.923   6.383  18.376  0.00  0.00    +0.000 C 
ENDROOT
BRANCH   1   7
ATOM      2  CB  ALA A   1       3.687   1.534  18.226  0.00  0.00    +0.000 C 
ATOM      3  CA  ALA A   1       4.081   2.928  17.753  0.00  0.00    +0.000 C 
ATOM      4  N   ALA A   1       2.966   3.551  17.044  0.00  0.00    +0.000 N 
ATOM      5  C   UNK A   2       1.969   4.200  17.738  0.00  0.00    +0.000 C 
ATOM      6  O   UNK A   2       0.844   4.312  17.258  0.00  0.00    +0.000 OA
ATOM      7  C   UNK A   2       2.461   5.028  18.938  0.00  0.00    +0.000 C 
ATOM      8  N   UNK A   2       3.525   4.344  19.673  0.00  0.00    +0.000 N 
ATOM      9  C   ALA A   1       4.546   3.744  18.972  0.00  0.00    +0.000 C 
ATOM     10  O   ALA A   1       5.675   3.670  19.450  0.00  0.00    +0.000 OA
ATOM     11  H   ALA A   1       2.634   3.086  16.208  0.00  0.00    +0.000 HD
ATOM     12  H   UNK A   2       3.853   4.818  20.509  0.00  0.00    +0.000 HD
ENDBRANCH   1   7
BRANCH   1  13
ATOM     13  C   UNK A   2       2.248   7.558  19.010  0.00  0.00    +0.000 A 
ATOM     14  C   UNK A   2       1.785   8.732  18.450  0.00  0.00    +0.000 A 
ATOM     15  C   UNK A   2       1.087   9.450  19.455  0.00  0.00    +0.000 A 
ATOM     16  C   UNK A   2       0.358  10.654  19.467  0.00  0.00    +0.000 A 
ATOM     17  C   UNK A   2      -0.289  11.050  20.644  0.00  0.00    +0.000 A 
ATOM     18  C   UNK A   2      -0.198  10.270  21.795  0.00  0.00    +0.000 A 
ATOM     19 CL   UNK A   2      -1.036  10.759  23.218  0.00  0.00    +0.000 Cl
ATOM     20  C   UNK A   2       0.546   9.086  21.818  0.00  0.00    +0.000 A 
ATOM     21  C   UNK A   2       1.172   8.699  20.627  0.00  0.00    +0.000 A 
ATOM     22  N   UNK A   2       1.928   7.585  20.345  0.00  0.00    +0.000 N 
ATOM     23  H   UNK A   2       2.146   6.860  21.016  0.00  0.00    +0.000 HD
ENDBRANCH   1  13
TORSDOF 2
ENDMDL
MODEL 4
REMARK VINA RESULT:      -7.6      5.253      6.455
REMARK  Name = 
REMARK  3 active torsions:
REMARK  status: ('A' for Active; 'I' for Inactive)
REMARK    1  A    between atoms: CB_1  and  CA_2
REMARK    2  A    between atoms: C_6  and  C_7
REMARK    3  A    between atoms: C_7  and  C_8
REMARK                            x       y       z     vdW  Elec       q    Type
REMARK                         _______ _______ _______ _____ _____    ______ ____
ROOT
ATOM      1  C   UNK A   2       7.760   6.894  18.144  0.00  0.00    +0.000 C 
ENDROOT
BRANCH   1   7
ATOM      2  CB  ALA A   1       4.109   3.880  16.837  0.00  0.00    +0.000 C 
ATOM      3  CA  ALA A   1       5.287   4.174  17.759  0.00  0.00    +0.000 C 
ATOM      4  N   ALA A   1       6.520   4.265  16.982  0.00  0.00    +0.000 N 
ATOM      5  C   UNK A   2       6.872   5.442  16.359  0.00  0.00    +0.000 C 
ATOM      6  O   UNK A   2       7.599   5.432  15.369  0.00  0.00    +0.000 OA
ATOM      7  C   UNK A   2       6.577   6.710  17.178  0.00  0.00    +0.000 C 
ATOM      8  N   UNK A   2       5.299   6.621  17.884  0.00  0.00    +0.000 N 
ATOM      9  C   ALA A   1       4.980   5.458  18.548  0.00  0.00    +0.000 C 
ATOM     10  O   ALA A   1       4.281   5.486  19.558  0.00  0.00    +0.000 OA
ATOM     11  H   ALA A   1       6.804   3.440  16.467  0.00  0.00    +0.000 HD
ATOM     12  H   UNK A   2       5.024   7.451  18.398  0.00  0.00    +0.000 HD
ENDBRANCH   1   7
BRANCH   1  13
ATOM     13  C   UNK A   2       8.241   8.307  18.243  0.00  0.00    +0.000 A 
ATOM     14  C   UNK A   2       7.987   9.396  17.433  0.00  0.00    +0.000 A 
ATOM     15  C   UNK A   2       8.556  10.541  18.050  0.00  0.00    +0.000 A 
ATOM     16  C   UNK A   2       8.568  11.914  17.738  0.00  0.00    +0.000 A 
ATOM     17  C   UNK A   2       9.175  12.810  18.626  0.00  0.00    +0.000 A 
ATOM     18  C   UNK A   2       9.776  12.347  19.795  0.00  0.00    +0.000 A 
ATOM     19 CL   UNK A   2      10.481  13.476  20.888  0.00  0.00    +0.000 Cl
ATOM     20  C   UNK A   2       9.806  10.986  20.111  0.00  0.00    +0.000 A 
ATOM     21  C   UNK A   2       9.180  10.107  19.220  0.00  0.00    +0.000 A 
ATOM     22  N   UNK A   2       9.022   8.742  19.284  0.00  0.00    +0.000 N 
ATOM     23  H   UNK A   2       9.373   8.164  20.037  0.00  0.00    +0.000 HD
ENDBRANCH   1  13
TORSDOF 2
ENDMDL
MODEL 5
REMARK VINA RESULT:      -7.5      1.792      2.296
REMARK  Name = 
REMARK  3 active torsions:
REMARK  status: ('A' for Active; 'I' for Inactive)
REMARK    1  A    between atoms: CB_1  and  CA_2
REMARK    2  A    between atoms: C_6  and  C_7
REMARK    3  A    between atoms: C_7  and  C_8
REMARK                            x       y       z     vdW  Elec       q    Type
REMARK                         _______ _______ _______ _____ _____    ______ ____
ROOT
ATOM      1  C   UNK A   2       3.091   6.566  18.094  0.00  0.00    +0.000 C 
ENDROOT
BRANCH   1   7
ATOM      2  CB  ALA A   1       3.489   1.674  18.268  0.00  0.00    +0.000 C 
ATOM      3  CA  ALA A   1       3.160   2.925  17.462  0.00  0.00    +0.000 C 
ATOM      4  N   ALA A   1       2.025   3.623  18.061  0.00  0.00    +0.000 N 
ATOM      5  C   UNK A   2       2.214   4.497  19.109  0.00  0.00    +0.000 C 
ATOM      6  O   UNK A   2       1.306   4.723  19.905  0.00  0.00    +0.000 OA
ATOM      7  C   UNK A   2       3.471   5.375  18.990  0.00  0.00    +0.000 C 
ATOM      8  N   UNK A   2       4.611   4.628  18.459  0.00  0.00    +0.000 N 
ATOM      9  C   ALA A   1       4.424   3.798  17.377  0.00  0.00    +0.000 C 
ATOM     10  O   ALA A   1       5.330   3.608  16.569  0.00  0.00    +0.000 OA
ATOM     11  H   ALA A   1       1.148   3.120  18.113  0.00  0.00    +0.000 HD
ATOM     12  H   UNK A   2       5.485   5.141  18.409  0.00  0.00    +0.000 HD
ENDBRANCH   1   7
BRANCH   1  13
ATOM     13  C   UNK A   2       2.356   7.651  18.816  0.00  0.00    +0.000 A 
ATOM     14  C   UNK A   2       1.783   8.812  18.338  0.00  0.00    +0.000 A 
ATOM     15  C   UNK A   2       1.075   9.421  19.407  0.00  0.00    +0.000 A 
ATOM     16  C   UNK A   2       0.258  10.563  19.512  0.00  0.00    +0.000 A 
ATOM     17  C   UNK A   2      -0.367  10.846  20.733  0.00  0.00    +0.000 A 
ATOM     18  C   UNK A   2      -0.169  10.017  21.835  0.00  0.00    +0.000 A 
ATOM     19 CL   UNK A   2      -0.981  10.367  23.313  0.00  0.00    +0.000 Cl
ATOM     20  C   UNK A   2       0.663   8.895  21.765  0.00  0.00    +0.000 A 
ATOM     21  C   UNK A   2       1.266   8.620  20.532  0.00  0.00    +0.000 A 
ATOM     22  N   UNK A   2       2.091   7.585  20.161  0.00  0.00    +0.000 N 
ATOM     23  H   UNK A   2       2.392   6.845  20.784  0.00  0.00    +0.000 HD
ENDBRANCH   1  13
TORSDOF 2
ENDMDL
MODEL 6
REMARK VINA RESULT:      -7.4      1.701      2.796
REMARK  Name = 
REMARK  3 active torsions:
REMARK  status: ('A' for Active; 'I' for Inactive)
REMARK    1  A    between atoms: CB_1  and  CA_2
REMARK    2  A    between atoms: C_6  and  C_7
REMARK    3  A    between atoms: C_7  and  C_8
REMARK                            x       y       z     vdW  Elec       q    Type
REMARK                         _______ _______ _______ _____ _____    ______ ____
ROOT
ATOM      1  C   UNK A   2       3.887   6.234  18.060  0.00  0.00    +0.000 C 
ENDROOT
BRANCH   1   7
ATOM      2  CB  ALA A   1       3.343   1.380  18.577  0.00  0.00    +0.000 C 
ATOM      3  CA  ALA A   1       3.994   2.675  19.051  0.00  0.00    +0.000 C 
ATOM      4  N   ALA A   1       4.812   3.244  17.983  0.00  0.00    +0.000 N 
ATOM      5  C   UNK A   2       4.241   4.032  17.007  0.00  0.00    +0.000 C 
ATOM      6  O   UNK A   2       4.761   4.130  15.899  0.00  0.00    +0.000 OA
ATOM      7  C   UNK A   2       3.155   4.995  17.518  0.00  0.00    +0.000 C 
ATOM      8  N   UNK A   2       2.305   4.371  18.531  0.00  0.00    +0.000 N 
ATOM      9  C   ALA A   1       2.889   3.629  19.533  0.00  0.00    +0.000 C 
ATOM     10  O   ALA A   1       2.376   3.569  20.648  0.00  0.00    +0.000 OA
ATOM     11  H   ALA A   1       5.584   2.684  17.643  0.00  0.00    +0.000 HD
ATOM     12  H   UNK A   2       1.535   4.940  18.867  0.00  0.00    +0.000 HD
ENDBRANCH   1   7
BRANCH   1  13
ATOM     13  C   UNK A   2       2.979   7.238  18.695  0.00  0.00    +0.000 A 
ATOM     14  C   UNK A   2       2.226   8.247  18.128  0.00  0.00    +0.000 A 
ATOM     15  C   UNK A   2       1.419   8.816  19.147  0.00  0.00    +0.000 A 
ATOM     16  C   UNK A   2       0.425   9.813  19.164  0.00  0.00    +0.000 A 
ATOM     17  C   UNK A   2      -0.246  10.088  20.362  0.00  0.00    +0.000 A 
ATOM     18  C   UNK A   2       0.078   9.396  21.527  0.00  0.00    +0.000 A 
ATOM     19 CL   UNK A   2      -0.791   9.727  22.977  0.00  0.00    +0.000 Cl
ATOM     20  C   UNK A   2       1.083   8.424  21.544  0.00  0.00    +0.000 A 
ATOM     21  C   UNK A   2       1.732   8.152  20.334  0.00  0.00    +0.000 A 
ATOM     22  N   UNK A   2       2.719   7.240  20.043  0.00  0.00    +0.000 N 
ATOM     23  H   UNK A   2       3.132   6.613  20.722  0.00  0.00    +0.000 HD
ENDBRANCH   1  13
TORSDOF 2
ENDMDL
MODEL 7
REMARK VINA RESULT:      -7.3      1.053      1.571
REMARK  Name = 
REMARK  3 active torsions:
REMARK  status: ('A' for Active; 'I' for Inactive)
REMARK    1  A    between atoms: CB_1  and  CA_2
REMARK    2  A    between atoms: C_6  and  C_7
REMARK    3  A    between atoms: C_7  and  C_8
REMARK                            x       y       z     vdW  Elec       q    Type
REMARK                         _______ _______ _______ _____ _____    ______ ____
ROOT
ATOM      1  C   UNK A   2       3.082   5.520  18.501  0.00  0.00    +0.000 C 
ENDROOT
BRANCH   1   7
ATOM      2  CB  ALA A   1       7.278   4.570  16.133  0.00  0.00    +0.000 C 
ATOM      3  CA  ALA A   1       5.754   4.543  16.142  0.00  0.00    +0.000 C 
ATOM      4  N   ALA A   1       5.274   3.687  17.225  0.00  0.00    +0.000 N 
ATOM      5  C   UNK A   2       5.152   4.180  18.506  0.00  0.00    +0.000 C 
ATOM      6  O   UNK A   2       5.209   3.425  19.473  0.00  0.00    +0.000 OA
ATOM      7  C   UNK A   2       4.614   5.618  18.587  0.00  0.00    +0.000 C 
ATOM      8  N   UNK A   2       5.171   6.471  17.537  0.00  0.00    +0.000 N 
ATOM      9  C   ALA A   1       5.241   5.989  16.249  0.00  0.00    +0.000 C 
ATOM     10  O   ALA A   1       5.146   6.750  15.290  0.00  0.00    +0.000 OA
ATOM     11  H   ALA A   1       5.543   2.711  17.196  0.00  0.00    +0.000 HD
ATOM     12  H   UNK A   2       4.896   7.446  17.573  0.00  0.00    +0.000 HD
ENDBRANCH   1   7
BRANCH   1  13
ATOM     13  C   UNK A   2       2.369   6.669  19.143  0.00  0.00    +0.000 A 
ATOM     14  C   UNK A   2       1.948   6.842  20.447  0.00  0.00    +0.000 A 
ATOM     15  C   UNK A   2       1.462   8.170  20.575  0.00  0.00    +0.000 A 
ATOM     16  C   UNK A   2       0.972   8.930  21.654  0.00  0.00    +0.000 A 
ATOM     17  C   UNK A   2       0.639  10.274  21.446  0.00  0.00    +0.000 A 
ATOM     18  C   UNK A   2       0.774  10.847  20.183  0.00  0.00    +0.000 A 
ATOM     19 CL   UNK A   2       0.394  12.513  19.965  0.00  0.00    +0.000 Cl
ATOM     20  C   UNK A   2       1.228  10.105  19.089  0.00  0.00    +0.000 A 
ATOM     21  C   UNK A   2       1.571   8.768  19.320  0.00  0.00    +0.000 A 
ATOM     22  N   UNK A   2       2.071   7.820  18.458  0.00  0.00    +0.000 N 
ATOM     23  H   UNK A   2       2.258   7.984  17.477  0.00  0.00    +0.000 HD
ENDBRANCH   1  13
TORSDOF 2
ENDMDL
MODEL 8
REMARK VINA RESULT:      -7.3      1.042      1.042
REMARK  Name = 
REMARK  3 active torsions:
REMARK  status: ('A' for Active; 'I' for Inactive)
REMARK    1  A    between atoms: CB_1  and  CA_2
REMARK    2  A    between atoms: C_6  and  C_7
REMARK    3  A    between atoms: C_7  and  C_8
REMARK                            x       y       z     vdW  Elec       q    Type
REMARK                         _______ _______ _______ _____ _____    ______ ____
ROOT
ATOM      1  C   UNK A   2       3.151   6.301  17.679  0.00  0.00    +0.000 C 
ENDROOT
BRANCH   1   7
ATOM      2  CB  ALA A   1       7.661   4.443  17.109  0.00  0.00    +0.000 C 
ATOM      3  CA  ALA A   1       6.462   5.159  16.498  0.00  0.00    +0.000 C 
ATOM      4  N   ALA A   1       5.282   4.300  16.559  0.00  0.00    +0.000 N 
ATOM      5  C   UNK A   2       4.513   4.245  17.701  0.00  0.00    +0.000 C 
ATOM      6  O   UNK A   2       3.840   3.249  17.954  0.00  0.00    +0.000 OA
ATOM      7  C   UNK A   2       4.313   5.600  18.402  0.00  0.00    +0.000 C 
ATOM      8  N   UNK A   2       5.534   6.405  18.392  0.00  0.00    +0.000 N 
ATOM      9  C   ALA A   1       6.268   6.497  17.230  0.00  0.00    +0.000 C 
ATOM     10  O   ALA A   1       6.908   7.513  16.973  0.00  0.00    +0.000 OA
ATOM     11  H   ALA A   1       5.326   3.418  16.064  0.00  0.00    +0.000 HD
ATOM     12  H   UNK A   2       5.480   7.288  18.888  0.00  0.00    +0.000 HD
ENDBRANCH   1   7
BRANCH   1  13
ATOM     13  C   UNK A   2       2.493   7.369  18.495  0.00  0.00    +0.000 A 
ATOM     14  C   UNK A   2       1.927   8.567  18.107  0.00  0.00    +0.000 A 
ATOM     15  C   UNK A   2       1.303   9.143  19.244  0.00  0.00    +0.000 A 
ATOM     16  C   UNK A   2       0.528  10.300  19.452  0.00  0.00    +0.000 A 
ATOM     17  C   UNK A   2      -0.014  10.540  20.721  0.00  0.00    +0.000 A 
ATOM     18  C   UNK A   2       0.225   9.654  21.769  0.00  0.00    +0.000 A 
ATOM     19 CL   UNK A   2      -0.486   9.954  23.309  0.00  0.00    +0.000 Cl
ATOM     20  C   UNK A   2       1.017   8.515  21.597  0.00  0.00    +0.000 A 
ATOM     21  C   UNK A   2       1.537   8.283  20.318  0.00  0.00    +0.000 A 
ATOM     22  N   UNK A   2       2.307   7.245  19.849  0.00  0.00    +0.000 N 
ATOM     23  H   UNK A   2       2.622   6.468  20.417  0.00  0.00    +0.000 HD
ENDBRANCH   1  13
TORSDOF 2
ENDMDL
MODEL 9
REMARK VINA RESULT:      -7.3      3.851      5.050
REMARK  Name = 
REMARK  3 active torsions:
REMARK  status: ('A' for Active; 'I' for Inactive)
REMARK    1  A    between atoms: CB_1  and  CA_2
REMARK    2  A    between atoms: C_6  and  C_7
REMARK    3  A    between atoms: C_7  and  C_8
REMARK                            x       y       z     vdW  Elec       q    Type
REMARK                         _______ _______ _______ _____ _____    ______ ____
ROOT
ATOM      1  C   UNK A   2       5.436   3.630  15.971  0.00  0.00    +0.000 C 
ENDROOT
BRANCH   1   7
ATOM      2  CB  ALA A   1       7.736   5.766  12.193  0.00  0.00    +0.000 C 
ATOM      3  CA  ALA A   1       7.703   4.656  13.238  0.00  0.00    +0.000 C 
ATOM      4  N   ALA A   1       7.739   5.230  14.580  0.00  0.00    +0.000 N 
ATOM      5  C   UNK A   2       6.583   5.668  15.187  0.00  0.00    +0.000 C 
ATOM      6  O   UNK A   2       6.622   6.536  16.055  0.00  0.00    +0.000 OA
ATOM      7  C   UNK A   2       5.356   4.772  14.944  0.00  0.00    +0.000 C 
ATOM      8  N   UNK A   2       5.306   4.274  13.570  0.00  0.00    +0.000 N 
ATOM      9  C   ALA A   1       6.456   3.789  12.990  0.00  0.00    +0.000 C 
ATOM     10  O   ALA A   1       6.405   2.895  12.149  0.00  0.00    +0.000 OA
ATOM     11  H   ALA A   1       8.553   5.781  14.825  0.00  0.00    +0.000 HD
ATOM     12  H   UNK A   2       4.489   3.722  13.334  0.00  0.00    +0.000 HD
ENDBRANCH   1   7
BRANCH   1  13
ATOM     13  C   UNK A   2       4.584   3.848  17.181  0.00  0.00    +0.000 A 
ATOM     14  C   UNK A   2       3.796   4.925  17.536  0.00  0.00    +0.000 A 
ATOM     15  C   UNK A   2       3.072   4.570  18.704  0.00  0.00    +0.000 A 
ATOM     16  C   UNK A   2       2.087   5.215  19.476  0.00  0.00    +0.000 A 
ATOM     17  C   UNK A   2       1.510   4.532  20.554  0.00  0.00    +0.000 A 
ATOM     18  C   UNK A   2       1.917   3.238  20.869  0.00  0.00    +0.000 A 
ATOM     19 CL   UNK A   2       1.161   2.407  22.176  0.00  0.00    +0.000 Cl
ATOM     20  C   UNK A   2       2.915   2.588  20.137  0.00  0.00    +0.000 A 
ATOM     21  C   UNK A   2       3.469   3.280  19.054  0.00  0.00    +0.000 A 
ATOM     22  N   UNK A   2       4.427   2.887  18.148  0.00  0.00    +0.000 N 
ATOM     23  H   UNK A   2       4.887   1.986  18.161  0.00  0.00    +0.000 HD
ENDBRANCH   1  13
TORSDOF 2
ENDMDL
