MODEL 1
REMARK VINA RESULT:      -8.4      0.000      0.000
REMARK  Name = 
REMARK  2 active torsions:
REMARK  status: ('A' for Active; 'I' for Inactive)
REMARK    1  A    between atoms: C_1  and  N_2
REMARK    2  A    between atoms: C_12  and  C_13
REMARK                            x       y       z     vdW  Elec       q    Type
REMARK                         _______ _______ _______ _____ _____    ______ ____
ROOT
ATOM      1  C   UNL     1       7.675   5.733  18.708  0.00  0.00    +0.000 C 
ATOM      2  N   UNL     1       6.368   5.280  18.179  0.00  0.00    +0.000 N 
ATOM      3  C   UNL     1       5.336   5.205  19.045  0.00  0.00    +0.000 A 
ATOM      4  C   UNL     1       4.116   4.646  18.692  0.00  0.00    +0.000 A 
ATOM      5  C   UNL     1       3.083   4.545  19.643  0.00  0.00    +0.000 A 
ATOM      6  C   UNL     1       1.868   3.944  19.321  0.00  0.00    +0.000 A 
ATOM      7  C   UNL     1       1.672   3.443  18.045  0.00  0.00    +0.000 A 
ATOM      8  C   UNL     1       2.686   3.557  17.088  0.00  0.00    +0.000 A 
ATOM      9  C   UNL     1       3.935   4.163  17.381  0.00  0.00    +0.000 A 
ATOM     10  C   UNL     1       5.005   4.326  16.445  0.00  0.00    +0.000 A 
ATOM     11  C   UNL     1       4.920   3.910  15.087  0.00  0.00    +0.000 A 
ATOM     12  C   UNL     1       5.968   4.089  14.168  0.00  0.00    +0.000 A 
ATOM     13  C   UNL     1       7.135   4.713  14.603  0.00  0.00    +0.000 A 
ATOM     14  C   UNL     1       7.259   5.122  15.933  0.00  0.00    +0.000 A 
ATOM     15  C   UNL     1       6.223   4.924  16.871  0.00  0.00    +0.000 A 
ENDROOT
BRANCH  12  16
ATOM     16  C   UNL     1       5.848   3.620  12.734  0.00  0.00    +0.000 C 
ATOM     17  F   UNL     1       4.620   3.845  12.194  0.00  0.00    +0.000 F 
ATOM     18  F   UNL     1       6.743   4.228  11.913  0.00  0.00    +0.000 F 
ATOM     19  F   UNL     1       6.070   2.283  12.615  0.00  0.00    +0.000 F 
ENDBRANCH  12  16
TORSDOF 1
ENDMDL
MODEL 2
REMARK VINA RESULT:      -8.1      4.383      6.405
REMARK  Name = 
REMARK  2 active torsions:
REMARK  status: ('A' for Active; 'I' for Inactive)
REMARK    1  A    between atoms: C_1  and  N_2
REMARK    2  A    between atoms: C_12  and  C_13
REMARK                            x       y       z     vdW  Elec       q    Type
REMARK                         _______ _______ _______ _____ _____    ______ ____
ROOT
ATOM      1  C   UNL     1       2.233   8.647  18.387  0.00  0.00    +0.000 C 
ATOM      2  N   UNL     1       2.989   7.401  18.130  0.00  0.00    +0.000 N 
ATOM      3  C   UNL     1       3.875   7.405  17.111  0.00  0.00    +0.000 A 
ATOM      4  C   UNL     1       4.517   6.251  16.687  0.00  0.00    +0.000 A 
ATOM      5  C   UNL     1       5.397   6.295  15.589  0.00  0.00    +0.000 A 
ATOM      6  C   UNL     1       6.014   5.138  15.118  0.00  0.00    +0.000 A 
ATOM      7  C   UNL     1       5.763   3.928  15.743  0.00  0.00    +0.000 A 
ATOM      8  C   UNL     1       4.906   3.879  16.848  0.00  0.00    +0.000 A 
ATOM      9  C   UNL     1       4.260   5.037  17.353  0.00  0.00    +0.000 A 
ATOM     10  C   UNL     1       3.387   5.057  18.487  0.00  0.00    +0.000 A 
ATOM     11  C   UNL     1       3.086   3.900  19.257  0.00  0.00    +0.000 A 
ATOM     12  C   UNL     1       2.242   3.930  20.380  0.00  0.00    +0.000 A 
ATOM     13  C   UNL     1       1.688   5.149  20.764  0.00  0.00    +0.000 A 
ATOM     14  C   UNL     1       1.950   6.304  20.022  0.00  0.00    +0.000 A 
ATOM     15  C   UNL     1       2.776   6.281  18.878  0.00  0.00    +0.000 A 
ENDROOT
BRANCH  12  16
ATOM     16  C   UNL     1       1.931   2.675  21.167  0.00  0.00    +0.000 C 
ATOM     17  F   UNL     1       2.974   2.242  21.926  0.00  0.00    +0.000 F 
ATOM     18  F   UNL     1       0.885   2.841  22.018  0.00  0.00    +0.000 F 
ATOM     19  F   UNL     1       1.600   1.634  20.357  0.00  0.00    +0.000 F 
ENDBRANCH  12  16
TORSDOF 1
ENDMDL
MODEL 3
REMARK VINA RESULT:      -7.9      2.398      3.290
REMARK  Name = 
REMARK  2 active torsions:
REMARK  status: ('A' for Active; 'I' for Inactive)
REMARK    1  A    between atoms: C_1  and  N_2
REMARK    2  A    between atoms: C_12  and  C_13
REMARK                            x       y       z     vdW  Elec       q    Type
REMARK                         _______ _______ _______ _____ _____    ______ ____
ROOT
ATOM      1  C   UNL     1       2.265   8.252  18.639  0.00  0.00    +0.000 C 
ATOM      2  N   UNL     1       2.649   6.832  18.802  0.00  0.00    +0.000 N 
ATOM      3  C   UNL     1       2.059   6.135  19.796  0.00  0.00    +0.000 A 
ATOM      4  C   UNL     1       2.460   4.850  20.136  0.00  0.00    +0.000 A 
ATOM      5  C   UNL     1       1.848   4.180  21.211  0.00  0.00    +0.000 A 
ATOM      6  C   UNL     1       2.269   2.910  21.597  0.00  0.00    +0.000 A 
ATOM      7  C   UNL     1       3.301   2.294  20.908  0.00  0.00    +0.000 A 
ATOM      8  C   UNL     1       3.901   2.945  19.825  0.00  0.00    +0.000 A 
ATOM      9  C   UNL     1       3.498   4.240  19.405  0.00  0.00    +0.000 A 
ATOM     10  C   UNL     1       4.059   4.951  18.297  0.00  0.00    +0.000 A 
ATOM     11  C   UNL     1       5.083   4.417  17.469  0.00  0.00    +0.000 A 
ATOM     12  C   UNL     1       5.617   5.115  16.371  0.00  0.00    +0.000 A 
ATOM     13  C   UNL     1       5.110   6.377  16.074  0.00  0.00    +0.000 A 
ATOM     14  C   UNL     1       4.112   6.939  16.876  0.00  0.00    +0.000 A 
ATOM     15  C   UNL     1       3.587   6.259  17.995  0.00  0.00    +0.000 A 
ENDROOT
BRANCH  12  16
ATOM     16  C   UNL     1       6.719   4.521  15.520  0.00  0.00    +0.000 C 
ATOM     17  F   UNL     1       7.186   5.375  14.569  0.00  0.00    +0.000 F 
ATOM     18  F   UNL     1       7.797   4.144  16.256  0.00  0.00    +0.000 F 
ATOM     19  F   UNL     1       6.306   3.409  14.854  0.00  0.00    +0.000 F 
ENDBRANCH  12  16
TORSDOF 1
ENDMDL
MODEL 4
REMARK VINA RESULT:      -7.8      4.715      6.854
REMARK  Name = 
REMARK  2 active torsions:
REMARK  status: ('A' for Active; 'I' for Inactive)
REMARK    1  A    between atoms: C_1  and  N_2
REMARK    2  A    between atoms: C_12  and  C_13
REMARK                            x       y       z     vdW  Elec       q    Type
REMARK                         _______ _______ _______ _____ _____    ______ ____
ROOT
ATOM      1  C   UNL     1       3.163   1.964  19.519  0.00  0.00    +0.000 C 
ATOM      2  N   UNL     1       3.343   3.233  18.777  0.00  0.00    +0.000 N 
ATOM      3  C   UNL     1       4.066   3.194  17.638  0.00  0.00    +0.000 A 
ATOM      4  C   UNL     1       4.427   4.346  16.953  0.00  0.00    +0.000 A 
ATOM      5  C   UNL     1       5.222   4.259  15.795  0.00  0.00    +0.000 A 
ATOM      6  C   UNL     1       5.635   5.407  15.122  0.00  0.00    +0.000 A 
ATOM      7  C   UNL     1       5.251   6.650  15.594  0.00  0.00    +0.000 A 
ATOM      8  C   UNL     1       4.443   6.744  16.733  0.00  0.00    +0.000 A 
ATOM      9  C   UNL     1       4.006   5.597  17.444  0.00  0.00    +0.000 A 
ATOM     10  C   UNL     1       3.167   5.624  18.603  0.00  0.00    +0.000 A 
ATOM     11  C   UNL     1       2.653   6.826  19.163  0.00  0.00    +0.000 A 
ATOM     12  C   UNL     1       1.815   6.844  20.291  0.00  0.00    +0.000 A 
ATOM     13  C   UNL     1       1.461   5.631  20.877  0.00  0.00    +0.000 A 
ATOM     14  C   UNL     1       1.959   4.431  20.362  0.00  0.00    +0.000 A 
ATOM     15  C   UNL     1       2.821   4.402  19.245  0.00  0.00    +0.000 A 
ENDROOT
BRANCH  12  16
ATOM     16  C   UNL     1       1.299   8.145  20.869  0.00  0.00    +0.000 C 
ATOM     17  F   UNL     1      -0.002   8.083  21.260  0.00  0.00    +0.000 F 
ATOM     18  F   UNL     1       2.006   8.543  21.960  0.00  0.00    +0.000 F 
ATOM     19  F   UNL     1       1.374   9.166  19.974  0.00  0.00    +0.000 F 
ENDBRANCH  12  16
TORSDOF 1
ENDMDL
MODEL 5
REMARK VINA RESULT:      -7.7      4.310      5.537
REMARK  Name = 
REMARK  2 active torsions:
REMARK  status: ('A' for Active; 'I' for Inactive)
REMARK    1  A    between atoms: C_1  and  N_2
REMARK    2  A    between atoms: C_12  and  C_13
REMARK                            x       y       z     vdW  Elec       q    Type
REMARK                         _______ _______ _______ _____ _____    ______ ____
ROOT
ATOM      1  C   UNL     1       5.830   4.436  16.729  0.00  0.00    +0.000 C 
ATOM      2  N   UNL     1       4.872   4.599  17.847  0.00  0.00    +0.000 N 
ATOM      3  C   UNL     1       4.736   3.569  18.708  0.00  0.00    +0.000 A 
ATOM      4  C   UNL     1       3.757   3.554  19.692  0.00  0.00    +0.000 A 
ATOM      5  C   UNL     1       3.622   2.437  20.537  0.00  0.00    +0.000 A 
ATOM      6  C   UNL     1       2.615   2.383  21.499  0.00  0.00    +0.000 A 
ATOM      7  C   UNL     1       1.739   3.448  21.630  0.00  0.00    +0.000 A 
ATOM      8  C   UNL     1       1.880   4.571  20.807  0.00  0.00    +0.000 A 
ATOM      9  C   UNL     1       2.892   4.659  19.817  0.00  0.00    +0.000 A 
ATOM     10  C   UNL     1       3.100   5.784  18.957  0.00  0.00    +0.000 A 
ATOM     11  C   UNL     1       2.312   6.966  19.020  0.00  0.00    +0.000 A 
ATOM     12  C   UNL     1       2.532   8.075  18.184  0.00  0.00    +0.000 A 
ATOM     13  C   UNL     1       3.576   8.017  17.265  0.00  0.00    +0.000 A 
ATOM     14  C   UNL     1       4.362   6.866  17.165  0.00  0.00    +0.000 A 
ATOM     15  C   UNL     1       4.134   5.737  17.981  0.00  0.00    +0.000 A 
ENDROOT
BRANCH  12  16
ATOM     16  C   UNL     1       1.663   9.311  18.269  0.00  0.00    +0.000 C 
ATOM     17  F   UNL     1       0.530   9.226  17.520  0.00  0.00    +0.000 F 
ATOM     18  F   UNL     1       1.261   9.576  19.539  0.00  0.00    +0.000 F 
ATOM     19  F   UNL     1       2.315  10.423  17.837  0.00  0.00    +0.000 F 
ENDBRANCH  12  16
TORSDOF 1
ENDMDL
MODEL 6
REMARK VINA RESULT:      -7.6      3.193      4.318
REMARK  Name = 
REMARK  2 active torsions:
REMARK  status: ('A' for Active; 'I' for Inactive)
REMARK    1  A    between atoms: C_1  and  N_2
REMARK    2  A    between atoms: C_12  and  C_13
REMARK                            x       y       z     vdW  Elec       q    Type
REMARK                         _______ _______ _______ _____ _____    ______ ____
ROOT
ATOM      1  C   UNL     1       2.195   4.029  21.255  0.00  0.00    +0.000 C 
ATOM      2  N   UNL     1       2.430   5.197  20.376  0.00  0.00    +0.000 N 
ATOM      3  C   UNL     1       1.813   6.355  20.695  0.00  0.00    +0.000 A 
ATOM      4  C   UNL     1       1.839   7.460  19.857  0.00  0.00    +0.000 A 
ATOM      5  C   UNL     1       1.141   8.630  20.210  0.00  0.00    +0.000 A 
ATOM      6  C   UNL     1       1.115   9.733  19.359  0.00  0.00    +0.000 A 
ATOM      7  C   UNL     1       1.792   9.680  18.152  0.00  0.00    +0.000 A 
ATOM      8  C   UNL     1       2.505   8.528  17.803  0.00  0.00    +0.000 A 
ATOM      9  C   UNL     1       2.552   7.387  18.645  0.00  0.00    +0.000 A 
ATOM     10  C   UNL     1       3.276   6.186  18.355  0.00  0.00    +0.000 A 
ATOM     11  C   UNL     1       4.059   6.015  17.180  0.00  0.00    +0.000 A 
ATOM     12  C   UNL     1       4.781   4.840  16.910  0.00  0.00    +0.000 A 
ATOM     13  C   UNL     1       4.739   3.805  17.840  0.00  0.00    +0.000 A 
ATOM     14  C   UNL     1       3.969   3.932  18.999  0.00  0.00    +0.000 A 
ATOM     15  C   UNL     1       3.219   5.097  19.269  0.00  0.00    +0.000 A 
ENDROOT
BRANCH  12  16
ATOM     16  C   UNL     1       5.592   4.687  15.641  0.00  0.00    +0.000 C 
ATOM     17  F   UNL     1       5.954   5.875  15.086  0.00  0.00    +0.000 F 
ATOM     18  F   UNL     1       6.744   3.995  15.842  0.00  0.00    +0.000 F 
ATOM     19  F   UNL     1       4.908   4.015  14.677  0.00  0.00    +0.000 F 
ENDBRANCH  12  16
TORSDOF 1
ENDMDL
MODEL 7
REMARK VINA RESULT:      -7.6      2.837      3.978
REMARK  Name = 
REMARK  2 active torsions:
REMARK  status: ('A' for Active; 'I' for Inactive)
REMARK    1  A    between atoms: C_1  and  N_2
REMARK    2  A    between atoms: C_12  and  C_13
REMARK                            x       y       z     vdW  Elec       q    Type
REMARK                         _______ _______ _______ _____ _____    ______ ____
ROOT
ATOM      1  C   UNL     1       2.801   2.883  20.734  0.00  0.00    +0.000 C 
ATOM      2  N   UNL     1       2.827   4.256  20.180  0.00  0.00    +0.000 N 
ATOM      3  C   UNL     1       2.138   5.210  20.840  0.00  0.00    +0.000 A 
ATOM      4  C   UNL     1       1.967   6.487  20.325  0.00  0.00    +0.000 A 
ATOM      5  C   UNL     1       1.199   7.435  21.027  0.00  0.00    +0.000 A 
ATOM      6  C   UNL     1       0.977   8.707  20.503  0.00  0.00    +0.000 A 
ATOM      7  C   UNL     1       1.525   9.045  19.277  0.00  0.00    +0.000 A 
ATOM      8  C   UNL     1       2.306   8.115  18.582  0.00  0.00    +0.000 A 
ATOM      9  C   UNL     1       2.552   6.811  19.086  0.00  0.00    +0.000 A 
ATOM     10  C   UNL     1       3.355   5.821  18.434  0.00  0.00    +0.000 A 
ATOM     11  C   UNL     1       4.022   6.051  17.199  0.00  0.00    +0.000 A 
ATOM     12  C   UNL     1       4.823   5.080  16.574  0.00  0.00    +0.000 A 
ATOM     13  C   UNL     1       4.981   3.845  17.197  0.00  0.00    +0.000 A 
ATOM     14  C   UNL     1       4.328   3.579  18.404  0.00  0.00    +0.000 A 
ATOM     15  C   UNL     1       3.501   4.537  19.028  0.00  0.00    +0.000 A 
ENDROOT
BRANCH  12  16
ATOM     16  C   UNL     1       5.507   5.355  15.251  0.00  0.00    +0.000 C 
ATOM     17  F   UNL     1       5.215   4.435  14.292  0.00  0.00    +0.000 F 
ATOM     18  F   UNL     1       5.168   6.564  14.734  0.00  0.00    +0.000 F 
ATOM     19  F   UNL     1       6.861   5.358  15.369  0.00  0.00    +0.000 F 
ENDBRANCH  12  16
TORSDOF 1
ENDMDL
MODEL 8
REMARK VINA RESULT:      -7.5      4.245      5.355
REMARK  Name = 
REMARK  2 active torsions:
REMARK  status: ('A' for Active; 'I' for Inactive)
REMARK    1  A    between atoms: C_1  and  N_2
REMARK    2  A    between atoms: C_12  and  C_13
REMARK                            x       y       z     vdW  Elec       q    Type
REMARK                         _______ _______ _______ _____ _____    ______ ____
ROOT
ATOM      1  C   UNL     1       6.023   4.662  16.056  0.00  0.00    +0.000 C 
ATOM      2  N   UNL     1       4.838   4.570  16.939  0.00  0.00    +0.000 N 
ATOM      3  C   UNL     1       4.468   3.343  17.364  0.00  0.00    +0.000 A 
ATOM      4  C   UNL     1       3.288   3.128  18.061  0.00  0.00    +0.000 A 
ATOM      5  C   UNL     1       2.920   1.824  18.442  0.00  0.00    +0.000 A 
ATOM      6  C   UNL     1       1.716   1.583  19.100  0.00  0.00    +0.000 A 
ATOM      7  C   UNL     1       0.872   2.642  19.390  0.00  0.00    +0.000 A 
ATOM      8  C   UNL     1       1.240   3.944  19.033  0.00  0.00    +0.000 A 
ATOM      9  C   UNL     1       2.458   4.226  18.361  0.00  0.00    +0.000 A 
ATOM     10  C   UNL     1       2.899   5.534  17.984  0.00  0.00    +0.000 A 
ATOM     11  C   UNL     1       2.161   6.716  18.268  0.00  0.00    +0.000 A 
ATOM     12  C   UNL     1       2.609   7.999  17.911  0.00  0.00    +0.000 A 
ATOM     13  C   UNL     1       3.836   8.119  17.262  0.00  0.00    +0.000 A 
ATOM     14  C   UNL     1       4.582   6.978  16.954  0.00  0.00    +0.000 A 
ATOM     15  C   UNL     1       4.130   5.683  17.286  0.00  0.00    +0.000 A 
ENDROOT
BRANCH  12  16
ATOM     16  C   UNL     1       1.789   9.234  18.216  0.00  0.00    +0.000 C 
ATOM     17  F   UNL     1       2.434  10.396  17.924  0.00  0.00    +0.000 F 
ATOM     18  F   UNL     1       0.620   9.264  17.524  0.00  0.00    +0.000 F 
ATOM     19  F   UNL     1       1.454   9.312  19.532  0.00  0.00    +0.000 F 
ENDBRANCH  12  16
TORSDOF 1
ENDMDL
MODEL 9
REMARK VINA RESULT:      -7.3      4.294      6.234
REMARK  Name = 
REMARK  2 active torsions:
REMARK  status: ('A' for Active; 'I' for Inactive)
REMARK    1  A    between atoms: C_1  and  N_2
REMARK    2  A    between atoms: C_12  and  C_13
REMARK                            x       y       z     vdW  Elec       q    Type
REMARK                         _______ _______ _______ _____ _____    ______ ____
ROOT
ATOM      1  C   UNL     1       3.366   3.323  20.376  0.00  0.00    +0.000 C 
ATOM      2  N   UNL     1       3.658   4.084  19.140  0.00  0.00    +0.000 N 
ATOM      3  C   UNL     1       4.455   3.501  18.220  0.00  0.00    +0.000 A 
ATOM      4  C   UNL     1       4.918   4.185  17.105  0.00  0.00    +0.000 A 
ATOM      5  C   UNL     1       5.786   3.551  16.197  0.00  0.00    +0.000 A 
ATOM      6  C   UNL     1       6.299   4.236  15.098  0.00  0.00    +0.000 A 
ATOM      7  C   UNL     1       5.944   5.558  14.892  0.00  0.00    +0.000 A 
ATOM      8  C   UNL     1       5.065   6.190  15.778  0.00  0.00    +0.000 A 
ATOM      9  C   UNL     1       4.524   5.523  16.908  0.00  0.00    +0.000 A 
ATOM     10  C   UNL     1       3.609   6.106  17.841  0.00  0.00    +0.000 A 
ATOM     11  C   UNL     1       3.117   7.435  17.720  0.00  0.00    +0.000 A 
ATOM     12  C   UNL     1       2.204   7.995  18.631  0.00  0.00    +0.000 A 
ATOM     13  C   UNL     1       1.752   7.210  19.689  0.00  0.00    +0.000 A 
ATOM     14  C   UNL     1       2.226   5.904  19.847  0.00  0.00    +0.000 A 
ATOM     15  C   UNL     1       3.162   5.340  18.953  0.00  0.00    +0.000 A 
ENDROOT
BRANCH  12  16
ATOM     16  C   UNL     1       1.713   9.419  18.479  0.00  0.00    +0.000 C 
ATOM     17  F   UNL     1       2.646  10.258  17.954  0.00  0.00    +0.000 F 
ATOM     18  F   UNL     1       0.623   9.508  17.672  0.00  0.00    +0.000 F 
ATOM     19  F   UNL     1       1.348   9.962  19.672  0.00  0.00    +0.000 F 
ENDBRANCH  12  16
TORSDOF 1
ENDMDL
