MODEL 1
REMARK VINA RESULT:      -7.4      0.000      0.000
REMARK  Name = 
REMARK  6 active torsions:
REMARK  status: ('A' for Active; 'I' for Inactive)
REMARK    1  A    between atoms: C_1  and  N_2
REMARK    2  A    between atoms: C_7  and  C_8
REMARK    3  A    between atoms: C_10  and  O_11
REMARK    4  A    between atoms: O_11  and  C_12
REMARK    5  A    between atoms: C_12  and  C_13
REMARK    6  A    between atoms: C_19  and  O_20
REMARK                            x       y       z     vdW  Elec       q    Type
REMARK                         _______ _______ _______ _____ _____    ______ ____
ROOT
ATOM      1  C   UNL     1       2.786   5.060  20.062  0.00  0.00    +0.000 A 
ATOM      2  C   UNL     1       4.175   5.194  19.875  0.00  0.00    +0.000 A 
ATOM      3  C   UNL     1       4.974   4.100  19.520  0.00  0.00    +0.000 A 
ATOM      4  C   UNL     1       4.374   2.846  19.389  0.00  0.00    +0.000 A 
ATOM      5  C   UNL     1       2.988   2.711  19.542  0.00  0.00    +0.000 A 
ATOM      6  F   UNL     1       2.436   1.492  19.426  0.00  0.00    +0.000 F 
ATOM      7  C   UNL     1       2.191   3.809  19.859  0.00  0.00    +0.000 A 
ATOM      8 BR   UNL     1       0.312   3.553  20.043  0.00  0.00    +0.000 Br
ENDROOT
BRANCH   1  15
ATOM      9  C   UNL     1       0.498  10.795  19.551  0.00  0.00    +0.000 C 
ATOM     10  N   UNL     1       1.168   9.531  19.355  0.00  0.00    +0.000 N 
ATOM     11  C   UNL     1       1.932   9.298  18.245  0.00  0.00    +0.000 C 
ATOM     12  O   UNL     1       2.225  10.086  17.362  0.00  0.00    +0.000 OA
ATOM     13  S   UNL     1       2.483   7.636  18.245  0.00  0.00    +0.000 S 
ATOM     14  C   UNL     1       1.880   7.347  19.835  0.00  0.00    +0.000 C 
ATOM     15  C   UNL     1       2.055   6.237  20.568  0.00  0.00    +0.000 C 
ATOM     16  C   UNL     1       1.124   8.538  20.308  0.00  0.00    +0.000 C 
ATOM     17  O   UNL     1       0.550   8.597  21.386  0.00  0.00    +0.000 OA
ENDBRANCH   1  15
BRANCH   4  18
ATOM     18  O   UNL     1       5.087   1.705  19.140  0.00  0.00    +0.000 OA
ATOM     19  H   UNL     1       5.525   1.808  18.279  0.00  0.00    +0.000 HD
ENDBRANCH   4  18
BRANCH   3  20
ATOM     20  O   UNL     1       6.303   4.406  19.392  0.00  0.00    +0.000 OA
BRANCH  20  21
ATOM     21  C   UNL     1       6.644   5.608  18.698  0.00  0.00    +0.000 C 
BRANCH  21  22
ATOM     22  C   UNL     1       6.438   5.486  17.218  0.00  0.00    +0.000 A 
ATOM     23  C   UNL     1       5.594   6.276  16.465  0.00  0.00    +0.000 A 
ATOM     24  N   UNL     1       5.421   6.132  15.134  0.00  0.00    +0.000 NA
ATOM     25  C   UNL     1       6.131   5.153  14.553  0.00  0.00    +0.000 A 
ATOM     26  N   UNL     1       6.983   4.326  15.174  0.00  0.00    +0.000 NA
ATOM     27  C   UNL     1       7.113   4.516  16.500  0.00  0.00    +0.000 A 
ENDBRANCH  21  22
ENDBRANCH  20  21
ENDBRANCH   3  20
TORSDOF 5
ENDMDL
MODEL 2
REMARK VINA RESULT:      -7.2      1.693      2.116
REMARK  Name = 
REMARK  6 active torsions:
REMARK  status: ('A' for Active; 'I' for Inactive)
REMARK    1  A    between atoms: C_1  and  N_2
REMARK    2  A    between atoms: C_7  and  C_8
REMARK    3  A    between atoms: C_10  and  O_11
REMARK    4  A    between atoms: O_11  and  C_12
REMARK    5  A    between atoms: C_12  and  C_13
REMARK    6  A    between atoms: C_19  and  O_20
REMARK                            x       y       z     vdW  Elec       q    Type
REMARK                         _______ _______ _______ _____ _____    ______ ____
ROOT
ATOM      1  C   UNL     1       2.609   4.861  19.339  0.00  0.00    +0.000 A 
ATOM      2  C   UNL     1       3.386   5.142  18.199  0.00  0.00    +0.000 A 
ATOM      3  C   UNL     1       3.952   4.119  17.429  0.00  0.00    +0.000 A 
ATOM      4  C   UNL     1       3.767   2.795  17.834  0.00  0.00    +0.000 A 
ATOM      5  C   UNL     1       2.970   2.506  18.949  0.00  0.00    +0.000 A 
ATOM      6  F   UNL     1       2.820   1.227  19.328  0.00  0.00    +0.000 F 
ATOM      7  C   UNL     1       2.377   3.526  19.691  0.00  0.00    +0.000 A 
ATOM      8 BR   UNL     1       1.299   3.059  21.189  0.00  0.00    +0.000 Br
ENDROOT
BRANCH   1  15
ATOM      9  C   UNL     1       0.941  10.774  20.148  0.00  0.00    +0.000 C 
ATOM     10  N   UNL     1       1.388   9.502  19.630  0.00  0.00    +0.000 N 
ATOM     11  C   UNL     1       1.810   9.372  18.335  0.00  0.00    +0.000 C 
ATOM     12  O   UNL     1       1.956  10.253  17.505  0.00  0.00    +0.000 OA
ATOM     13  S   UNL     1       2.149   7.689  17.990  0.00  0.00    +0.000 S 
ATOM     14  C   UNL     1       1.944   7.222  19.638  0.00  0.00    +0.000 C 
ATOM     15  C   UNL     1       2.173   6.007  20.159  0.00  0.00    +0.000 C 
ATOM     16  C   UNL     1       1.477   8.388  20.434  0.00  0.00    +0.000 C 
ATOM     17  O   UNL     1       1.209   8.335  21.626  0.00  0.00    +0.000 OA
ENDBRANCH   1  15
BRANCH   4  18
ATOM     18  O   UNL     1       4.361   1.737  17.202  0.00  0.00    +0.000 OA
ATOM     19  H   UNL     1       5.320   1.891  17.199  0.00  0.00    +0.000 HD
ENDBRANCH   4  18
BRANCH   3  20
ATOM     20  O   UNL     1       4.685   4.571  16.364  0.00  0.00    +0.000 OA
BRANCH  20  21
ATOM     21  C   UNL     1       6.094   4.333  16.378  0.00  0.00    +0.000 C 
BRANCH  21  22
ATOM     22  C   UNL     1       6.839   5.381  17.149  0.00  0.00    +0.000 A 
ATOM     23  C   UNL     1       7.425   5.195  18.384  0.00  0.00    +0.000 A 
ATOM     24  N   UNL     1       8.078   6.165  19.058  0.00  0.00    +0.000 NA
ATOM     25  C   UNL     1       8.136   7.362  18.455  0.00  0.00    +0.000 A 
ATOM     26  N   UNL     1       7.611   7.664  17.260  0.00  0.00    +0.000 NA
ATOM     27  C   UNL     1       6.970   6.658  16.635  0.00  0.00    +0.000 A 
ENDBRANCH  21  22
ENDBRANCH  20  21
ENDBRANCH   3  20
TORSDOF 5
ENDMDL
MODEL 3
REMARK VINA RESULT:      -7.2      1.443      1.863
REMARK  Name = 
REMARK  6 active torsions:
REMARK  status: ('A' for Active; 'I' for Inactive)
REMARK    1  A    between atoms: C_1  and  N_2
REMARK    2  A    between atoms: C_7  and  C_8
REMARK    3  A    between atoms: C_10  and  O_11
REMARK    4  A    between atoms: O_11  and  C_12
REMARK    5  A    between atoms: C_12  and  C_13
REMARK    6  A    between atoms: C_19  and  O_20
REMARK                            x       y       z     vdW  Elec       q    Type
REMARK                         _______ _______ _______ _____ _____    ______ ____
ROOT
ATOM      1  C   UNL     1       2.734   4.784  19.931  0.00  0.00    +0.000 A 
ATOM      2  C   UNL     1       4.113   4.812  19.648  0.00  0.00    +0.000 A 
ATOM      3  C   UNL     1       4.786   3.680  19.172  0.00  0.00    +0.000 A 
ATOM      4  C   UNL     1       4.070   2.492  19.014  0.00  0.00    +0.000 A 
ATOM      5  C   UNL     1       2.692   2.464  19.264  0.00  0.00    +0.000 A 
ATOM      6  F   UNL     1       2.027   1.305  19.120  0.00  0.00    +0.000 F 
ATOM      7  C   UNL     1       2.018   3.603  19.702  0.00  0.00    +0.000 A 
ATOM      8 BR   UNL     1       0.142   3.493  20.012  0.00  0.00    +0.000 Br
ENDROOT
BRANCH   1  15
ATOM      9  C   UNL     1       0.716  10.641  19.857  0.00  0.00    +0.000 C 
ATOM     10  N   UNL     1       1.281   9.350  19.544  0.00  0.00    +0.000 N 
ATOM     11  C   UNL     1       1.869   9.106  18.333  0.00  0.00    +0.000 C 
ATOM     12  O   UNL     1       2.078   9.901  17.432  0.00  0.00    +0.000 OA
ATOM     13  S   UNL     1       2.322   7.419  18.224  0.00  0.00    +0.000 S 
ATOM     14  C   UNL     1       1.933   7.120  19.878  0.00  0.00    +0.000 C 
ATOM     15  C   UNL     1       2.147   5.984  20.557  0.00  0.00    +0.000 C 
ATOM     16  C   UNL     1       1.317   8.336  20.475  0.00  0.00    +0.000 C 
ATOM     17  O   UNL     1       0.903   8.395  21.624  0.00  0.00    +0.000 OA
ENDBRANCH   1  15
BRANCH   4  18
ATOM     18  O   UNL     1       4.661   1.314  18.648  0.00  0.00    +0.000 OA
ATOM     19  H   UNL     1       5.375   1.520  18.024  0.00  0.00    +0.000 HD
ENDBRANCH   4  18
BRANCH   3  20
ATOM     20  O   UNL     1       6.125   3.882  18.962  0.00  0.00    +0.000 OA
BRANCH  20  21
ATOM     21  C   UNL     1       6.526   4.409  17.696  0.00  0.00    +0.000 C 
BRANCH  21  22
ATOM     22  C   UNL     1       7.079   5.798  17.808  0.00  0.00    +0.000 A 
ATOM     23  C   UNL     1       7.980   6.221  18.764  0.00  0.00    +0.000 A 
ATOM     24  N   UNL     1       8.449   7.483  18.846  0.00  0.00    +0.000 NA
ATOM     25  C   UNL     1       7.984   8.343  17.926  0.00  0.00    +0.000 A 
ATOM     26  N   UNL     1       7.113   8.053  16.951  0.00  0.00    +0.000 NA
ATOM     27  C   UNL     1       6.679   6.778  16.919  0.00  0.00    +0.000 A 
ENDBRANCH  21  22
ENDBRANCH  20  21
ENDBRANCH   3  20
TORSDOF 5
ENDMDL
MODEL 4
REMARK VINA RESULT:      -7.0      1.309      1.965
REMARK  Name = 
REMARK  6 active torsions:
REMARK  status: ('A' for Active; 'I' for Inactive)
REMARK    1  A    between atoms: C_1  and  N_2
REMARK    2  A    between atoms: C_7  and  C_8
REMARK    3  A    between atoms: C_10  and  O_11
REMARK    4  A    between atoms: O_11  and  C_12
REMARK    5  A    between atoms: C_12  and  C_13
REMARK    6  A    between atoms: C_19  and  O_20
REMARK                            x       y       z     vdW  Elec       q    Type
REMARK                         _______ _______ _______ _____ _____    ______ ____
ROOT
ATOM      1  C   UNL     1       3.478   5.779  18.447  0.00  0.00    +0.000 A 
ATOM      2  C   UNL     1       4.762   5.838  19.023  0.00  0.00    +0.000 A 
ATOM      3  C   UNL     1       5.396   4.691  19.514  0.00  0.00    +0.000 A 
ATOM      4  C   UNL     1       4.714   3.473  19.462  0.00  0.00    +0.000 A 
ATOM      5  C   UNL     1       3.451   3.401  18.862  0.00  0.00    +0.000 A 
ATOM      6  F   UNL     1       2.808   2.222  18.838  0.00  0.00    +0.000 F 
ATOM      7  C   UNL     1       2.838   4.539  18.340  0.00  0.00    +0.000 A 
ATOM      8 BR   UNL     1       1.123   4.364  17.531  0.00  0.00    +0.000 Br
ENDROOT
BRANCH   1  15
ATOM      9  C   UNL     1       0.159  10.860  19.699  0.00  0.00    +0.000 C 
ATOM     10  N   UNL     1       0.850   9.593  19.739  0.00  0.00    +0.000 N 
ATOM     11  C   UNL     1       0.802   8.791  20.846  0.00  0.00    +0.000 C 
ATOM     12  O   UNL     1       0.145   8.958  21.860  0.00  0.00    +0.000 OA
ATOM     13  S   UNL     1       1.850   7.407  20.621  0.00  0.00    +0.000 S 
ATOM     14  C   UNL     1       2.155   7.799  18.969  0.00  0.00    +0.000 C 
ATOM     15  C   UNL     1       2.840   7.059  18.085  0.00  0.00    +0.000 C 
ATOM     16  C   UNL     1       1.525   9.106  18.641  0.00  0.00    +0.000 C 
ATOM     17  O   UNL     1       1.616   9.651  17.550  0.00  0.00    +0.000 OA
ENDBRANCH   1  15
BRANCH   4  18
ATOM     18  O   UNL     1       5.213   2.320  20.004  0.00  0.00    +0.000 OA
ATOM     19  H   UNL     1       5.419   2.494  20.937  0.00  0.00    +0.000 HD
ENDBRANCH   4  18
BRANCH   3  20
ATOM     20  O   UNL     1       6.634   4.932  20.051  0.00  0.00    +0.000 OA
BRANCH  20  21
ATOM     21  C   UNL     1       7.528   5.764  19.310  0.00  0.00    +0.000 C 
BRANCH  21  22
ATOM     22  C   UNL     1       7.372   5.588  17.829  0.00  0.00    +0.000 A 
ATOM     23  C   UNL     1       6.949   6.565  16.952  0.00  0.00    +0.000 A 
ATOM     24  N   UNL     1       6.807   6.371  15.624  0.00  0.00    +0.000 NA
ATOM     25  C   UNL     1       7.104   5.141  15.176  0.00  0.00    +0.000 A 
ATOM     26  N   UNL     1       7.526   4.114  15.925  0.00  0.00    +0.000 NA
ATOM     27  C   UNL     1       7.648   4.367  17.242  0.00  0.00    +0.000 A 
ENDBRANCH  21  22
ENDBRANCH  20  21
ENDBRANCH   3  20
TORSDOF 5
ENDMDL
MODEL 5
REMARK VINA RESULT:      -6.9      3.656      4.362
REMARK  Name = 
REMARK  6 active torsions:
REMARK  status: ('A' for Active; 'I' for Inactive)
REMARK    1  A    between atoms: C_1  and  N_2
REMARK    2  A    between atoms: C_7  and  C_8
REMARK    3  A    between atoms: C_10  and  O_11
REMARK    4  A    between atoms: O_11  and  C_12
REMARK    5  A    between atoms: C_12  and  C_13
REMARK    6  A    between atoms: C_19  and  O_20
REMARK                            x       y       z     vdW  Elec       q    Type
REMARK                         _______ _______ _______ _____ _____    ______ ____
ROOT
ATOM      1  C   UNL     1       4.321   6.196  18.002  0.00  0.00    +0.000 A 
ATOM      2  C   UNL     1       5.399   7.089  17.850  0.00  0.00    +0.000 A 
ATOM      3  C   UNL     1       6.415   6.856  16.915  0.00  0.00    +0.000 A 
ATOM      4  C   UNL     1       6.368   5.689  16.151  0.00  0.00    +0.000 A 
ATOM      5  C   UNL     1       5.284   4.811  16.275  0.00  0.00    +0.000 A 
ATOM      6  F   UNL     1       5.269   3.687  15.539  0.00  0.00    +0.000 F 
ATOM      7  C   UNL     1       4.255   5.065  17.179  0.00  0.00    +0.000 A 
ATOM      8 BR   UNL     1       2.807   3.833  17.287  0.00  0.00    +0.000 Br
ENDROOT
BRANCH   1  15
ATOM      9  C   UNL     1      -0.165   9.427  20.800  0.00  0.00    +0.000 C 
ATOM     10  N   UNL     1       0.864   8.936  19.914  0.00  0.00    +0.000 N 
ATOM     11  C   UNL     1       1.251   9.646  18.811  0.00  0.00    +0.000 C 
ATOM     12  O   UNL     1       0.887  10.761  18.477  0.00  0.00    +0.000 OA
ATOM     13  S   UNL     1       2.407   8.716  17.883  0.00  0.00    +0.000 S 
ATOM     14  C   UNL     1       2.531   7.497  19.098  0.00  0.00    +0.000 C 
ATOM     15  C   UNL     1       3.377   6.457  19.105  0.00  0.00    +0.000 C 
ATOM     16  C   UNL     1       1.548   7.770  20.182  0.00  0.00    +0.000 C 
ATOM     17  O   UNL     1       1.386   7.045  21.153  0.00  0.00    +0.000 OA
ENDBRANCH   1  15
BRANCH   4  18
ATOM     18  O   UNL     1       7.364   5.330  15.284  0.00  0.00    +0.000 OA
ATOM     19  H   UNL     1       6.950   5.053  14.451  0.00  0.00    +0.000 HD
ENDBRANCH   4  18
BRANCH   3  20
ATOM     20  O   UNL     1       7.390   7.820  16.909  0.00  0.00    +0.000 OA
BRANCH  20  21
ATOM     21  C   UNL     1       8.133   8.020  18.112  0.00  0.00    +0.000 C 
BRANCH  21  22
ATOM     22  C   UNL     1       8.506   9.458  18.316  0.00  0.00    +0.000 A 
ATOM     23  C   UNL     1       8.129  10.502  17.496  0.00  0.00    +0.000 A 
ATOM     24  N   UNL     1       8.492  11.785  17.700  0.00  0.00    +0.000 NA
ATOM     25  C   UNL     1       9.265  12.012  18.774  0.00  0.00    +0.000 A 
ATOM     26  N   UNL     1       9.692  11.087  19.643  0.00  0.00    +0.000 NA
ATOM     27  C   UNL     1       9.299   9.825  19.388  0.00  0.00    +0.000 A 
ENDBRANCH  21  22
ENDBRANCH  20  21
ENDBRANCH   3  20
TORSDOF 5
ENDMDL
MODEL 6
REMARK VINA RESULT:      -6.9      2.426      6.654
REMARK  Name = 
REMARK  6 active torsions:
REMARK  status: ('A' for Active; 'I' for Inactive)
REMARK    1  A    between atoms: C_1  and  N_2
REMARK    2  A    between atoms: C_7  and  C_8
REMARK    3  A    between atoms: C_10  and  O_11
REMARK    4  A    between atoms: O_11  and  C_12
REMARK    5  A    between atoms: C_12  and  C_13
REMARK    6  A    between atoms: C_19  and  O_20
REMARK                            x       y       z     vdW  Elec       q    Type
REMARK                         _______ _______ _______ _____ _____    ______ ____
ROOT
ATOM      1  C   UNL     1       4.126   4.027  19.183  0.00  0.00    +0.000 A 
ATOM      2  C   UNL     1       3.483   5.146  19.746  0.00  0.00    +0.000 A 
ATOM      3  C   UNL     1       2.183   5.061  20.258  0.00  0.00    +0.000 A 
ATOM      4  C   UNL     1       1.505   3.844  20.167  0.00  0.00    +0.000 A 
ATOM      5  C   UNL     1       2.149   2.719  19.637  0.00  0.00    +0.000 A 
ATOM      6  F   UNL     1       1.470   1.563  19.547  0.00  0.00    +0.000 F 
ATOM      7  C   UNL     1       3.457   2.797  19.163  0.00  0.00    +0.000 A 
ATOM      8 BR   UNL     1       4.272   1.225  18.464  0.00  0.00    +0.000 Br
ENDROOT
BRANCH   1  15
ATOM      9  C   UNL     1       7.835   4.907  14.298  0.00  0.00    +0.000 C 
ATOM     10  N   UNL     1       6.725   4.661  15.188  0.00  0.00    +0.000 N 
ATOM     11  C   UNL     1       5.478   4.375  14.706  0.00  0.00    +0.000 C 
ATOM     12  O   UNL     1       5.148   4.202  13.545  0.00  0.00    +0.000 OA
ATOM     13  S   UNL     1       4.340   4.270  16.033  0.00  0.00    +0.000 S 
ATOM     14  C   UNL     1       5.586   4.379  17.221  0.00  0.00    +0.000 C 
ATOM     15  C   UNL     1       5.439   4.249  18.548  0.00  0.00    +0.000 C 
ATOM     16  C   UNL     1       6.892   4.632  16.555  0.00  0.00    +0.000 C 
ATOM     17  O   UNL     1       7.943   4.796  17.158  0.00  0.00    +0.000 OA
ENDBRANCH   1  15
BRANCH   4  18
ATOM     18  O   UNL     1       0.200   3.692  20.552  0.00  0.00    +0.000 OA
ATOM     19  H   UNL     1       0.176   3.046  21.276  0.00  0.00    +0.000 HD
ENDBRANCH   4  18
BRANCH   3  20
ATOM     20  O   UNL     1       1.708   6.246  20.755  0.00  0.00    +0.000 OA
BRANCH  20  21
ATOM     21  C   UNL     1       2.022   7.441  20.038  0.00  0.00    +0.000 C 
BRANCH  21  22
ATOM     22  C   UNL     1       1.359   8.649  20.630  0.00  0.00    +0.000 A 
ATOM     23  C   UNL     1       1.289   8.938  21.977  0.00  0.00    +0.000 A 
ATOM     24  N   UNL     1       0.672  10.029  22.479  0.00  0.00    +0.000 NA
ATOM     25  C   UNL     1       0.110  10.850  21.579  0.00  0.00    +0.000 A 
ATOM     26  N   UNL     1       0.114  10.681  20.251  0.00  0.00    +0.000 NA
ATOM     27  C   UNL     1       0.742   9.575  19.808  0.00  0.00    +0.000 A 
ENDBRANCH  21  22
ENDBRANCH  20  21
ENDBRANCH   3  20
TORSDOF 5
ENDMDL
MODEL 7
REMARK VINA RESULT:      -6.8      3.265      6.186
REMARK  Name = 
REMARK  6 active torsions:
REMARK  status: ('A' for Active; 'I' for Inactive)
REMARK    1  A    between atoms: C_1  and  N_2
REMARK    2  A    between atoms: C_7  and  C_8
REMARK    3  A    between atoms: C_10  and  O_11
REMARK    4  A    between atoms: O_11  and  C_12
REMARK    5  A    between atoms: C_12  and  C_13
REMARK    6  A    between atoms: C_19  and  O_20
REMARK                            x       y       z     vdW  Elec       q    Type
REMARK                         _______ _______ _______ _____ _____    ______ ____
ROOT
ATOM      1  C   UNL     1       2.563   7.523  18.462  0.00  0.00    +0.000 A 
ATOM      2  C   UNL     1       2.403   6.396  19.290  0.00  0.00    +0.000 A 
ATOM      3  C   UNL     1       1.709   6.472  20.504  0.00  0.00    +0.000 A 
ATOM      4  C   UNL     1       1.201   7.709  20.909  0.00  0.00    +0.000 A 
ATOM      5  C   UNL     1       1.329   8.827  20.076  0.00  0.00    +0.000 A 
ATOM      6  F   UNL     1       0.846  10.009  20.494  0.00  0.00    +0.000 F 
ATOM      7  C   UNL     1       1.988   8.739  18.851  0.00  0.00    +0.000 A 
ATOM      8 BR   UNL     1       2.115  10.299  17.766  0.00  0.00    +0.000 Br
ENDROOT
BRANCH   1  15
ATOM      9  C   UNL     1       7.326   5.063  15.355  0.00  0.00    +0.000 C 
ATOM     10  N   UNL     1       6.345   5.445  16.344  0.00  0.00    +0.000 N 
ATOM     11  C   UNL     1       6.422   4.993  17.632  0.00  0.00    +0.000 C 
ATOM     12  O   UNL     1       7.311   4.327  18.137  0.00  0.00    +0.000 OA
ATOM     13  S   UNL     1       5.016   5.522  18.531  0.00  0.00    +0.000 S 
ATOM     14  C   UNL     1       4.465   6.527  17.241  0.00  0.00    +0.000 C 
ATOM     15  C   UNL     1       3.425   7.373  17.275  0.00  0.00    +0.000 C 
ATOM     16  C   UNL     1       5.335   6.334  16.050  0.00  0.00    +0.000 C 
ATOM     17  O   UNL     1       5.152   6.890  14.976  0.00  0.00    +0.000 OA
ENDBRANCH   1  15
BRANCH   4  18
ATOM     18  O   UNL     1       0.595   7.900  22.121  0.00  0.00    +0.000 OA
ATOM     19  H   UNL     1       0.470   8.855  22.245  0.00  0.00    +0.000 HD
ENDBRANCH   4  18
BRANCH   3  20
ATOM     20  O   UNL     1       1.660   5.286  21.187  0.00  0.00    +0.000 OA
BRANCH  20  21
ATOM     21  C   UNL     1       0.986   4.189  20.567  0.00  0.00    +0.000 C 
BRANCH  21  22
ATOM     22  C   UNL     1       1.931   3.281  19.839  0.00  0.00    +0.000 A 
ATOM     23  C   UNL     1       3.142   2.835  20.329  0.00  0.00    +0.000 A 
ATOM     24  N   UNL     1       3.977   2.028  19.642  0.00  0.00    +0.000 NA
ATOM     25  C   UNL     1       3.566   1.663  18.418  0.00  0.00    +0.000 A 
ATOM     26  N   UNL     1       2.416   2.026  17.836  0.00  0.00    +0.000 NA
ATOM     27  C   UNL     1       1.624   2.833  18.567  0.00  0.00    +0.000 A 
ENDBRANCH  21  22
ENDBRANCH  20  21
ENDBRANCH   3  20
TORSDOF 5
ENDMDL
MODEL 8
REMARK VINA RESULT:      -6.8      2.009      2.769
REMARK  Name = 
REMARK  6 active torsions:
REMARK  status: ('A' for Active; 'I' for Inactive)
REMARK    1  A    between atoms: C_1  and  N_2
REMARK    2  A    between atoms: C_7  and  C_8
REMARK    3  A    between atoms: C_10  and  O_11
REMARK    4  A    between atoms: O_11  and  C_12
REMARK    5  A    between atoms: C_12  and  C_13
REMARK    6  A    between atoms: C_19  and  O_20
REMARK                            x       y       z     vdW  Elec       q    Type
REMARK                         _______ _______ _______ _____ _____    ______ ____
ROOT
ATOM      1  C   UNL     1       3.468   5.682  18.330  0.00  0.00    +0.000 A 
ATOM      2  C   UNL     1       4.781   5.736  18.836  0.00  0.00    +0.000 A 
ATOM      3  C   UNL     1       5.430   4.590  19.311  0.00  0.00    +0.000 A 
ATOM      4  C   UNL     1       4.735   3.379  19.314  0.00  0.00    +0.000 A 
ATOM      5  C   UNL     1       3.441   3.311  18.784  0.00  0.00    +0.000 A 
ATOM      6  F   UNL     1       2.787   2.138  18.812  0.00  0.00    +0.000 F 
ATOM      7  C   UNL     1       2.812   4.446  18.277  0.00  0.00    +0.000 A 
ATOM      8 BR   UNL     1       1.054   4.277  17.564  0.00  0.00    +0.000 Br
ENDROOT
BRANCH   1  15
ATOM      9  C   UNL     1       0.242  10.799  19.672  0.00  0.00    +0.000 C 
ATOM     10  N   UNL     1       0.925   9.527  19.694  0.00  0.00    +0.000 N 
ATOM     11  C   UNL     1       0.919   8.737  20.811  0.00  0.00    +0.000 C 
ATOM     12  O   UNL     1       0.308   8.920  21.850  0.00  0.00    +0.000 OA
ATOM     13  S   UNL     1       1.947   7.343  20.556  0.00  0.00    +0.000 S 
ATOM     14  C   UNL     1       2.183   7.716  18.888  0.00  0.00    +0.000 C 
ATOM     15  C   UNL     1       2.824   6.962  17.983  0.00  0.00    +0.000 C 
ATOM     16  C   UNL     1       1.548   9.024  18.573  0.00  0.00    +0.000 C 
ATOM     17  O   UNL     1       1.595   9.557  17.474  0.00  0.00    +0.000 OA
ENDBRANCH   1  15
BRANCH   4  18
ATOM     18  O   UNL     1       5.252   2.229  19.847  0.00  0.00    +0.000 OA
ATOM     19  H   UNL     1       5.592   2.437  20.732  0.00  0.00    +0.000 HD
ENDBRANCH   4  18
BRANCH   3  20
ATOM     20  O   UNL     1       6.697   4.826  19.777  0.00  0.00    +0.000 OA
BRANCH  20  21
ATOM     21  C   UNL     1       7.729   5.048  18.813  0.00  0.00    +0.000 C 
BRANCH  21  22
ATOM     22  C   UNL     1       7.874   6.498  18.461  0.00  0.00    +0.000 A 
ATOM     23  C   UNL     1       8.576   7.429  19.199  0.00  0.00    +0.000 A 
ATOM     24  N   UNL     1       8.677   8.732  18.861  0.00  0.00    +0.000 NA
ATOM     25  C   UNL     1       8.044   9.097  17.736  0.00  0.00    +0.000 A 
ATOM     26  N   UNL     1       7.337   8.289  16.936  0.00  0.00    +0.000 NA
ATOM     27  C   UNL     1       7.269   7.001  17.324  0.00  0.00    +0.000 A 
ENDBRANCH  21  22
ENDBRANCH  20  21
ENDBRANCH   3  20
TORSDOF 5
ENDMDL
MODEL 9
REMARK VINA RESULT:      -6.8      3.309      4.910
REMARK  Name = 
REMARK  6 active torsions:
REMARK  status: ('A' for Active; 'I' for Inactive)
REMARK    1  A    between atoms: C_1  and  N_2
REMARK    2  A    between atoms: C_7  and  C_8
REMARK    3  A    between atoms: C_10  and  O_11
REMARK    4  A    between atoms: O_11  and  C_12
REMARK    5  A    between atoms: C_12  and  C_13
REMARK    6  A    between atoms: C_19  and  O_20
REMARK                            x       y       z     vdW  Elec       q    Type
REMARK                         _______ _______ _______ _____ _____    ______ ____
ROOT
ATOM      1  C   UNL     1       3.881   6.429  17.390  0.00  0.00    +0.000 A 
ATOM      2  C   UNL     1       3.026   5.317  17.274  0.00  0.00    +0.000 A 
ATOM      3  C   UNL     1       3.525   4.034  17.016  0.00  0.00    +0.000 A 
ATOM      4  C   UNL     1       4.900   3.874  16.835  0.00  0.00    +0.000 A 
ATOM      5  C   UNL     1       5.760   4.970  16.980  0.00  0.00    +0.000 A 
ATOM      6  F   UNL     1       7.078   4.794  16.785  0.00  0.00    +0.000 F 
ATOM      7  C   UNL     1       5.263   6.239  17.273  0.00  0.00    +0.000 A 
ATOM      8 BR   UNL     1       6.492   7.681  17.465  0.00  0.00    +0.000 Br
ENDROOT
BRANCH   1  15
ATOM      9  C   UNL     1       0.463  10.659  20.359  0.00  0.00    +0.000 C 
ATOM     10  N   UNL     1       1.162   9.469  19.935  0.00  0.00    +0.000 N 
ATOM     11  C   UNL     1       1.066   8.301  20.639  0.00  0.00    +0.000 C 
ATOM     12  O   UNL     1       0.358   8.068  21.605  0.00  0.00    +0.000 OA
ATOM     13  S   UNL     1       2.135   7.101  19.945  0.00  0.00    +0.000 S 
ATOM     14  C   UNL     1       2.517   8.101  18.592  0.00  0.00    +0.000 C 
ATOM     15  C   UNL     1       3.251   7.756  17.524  0.00  0.00    +0.000 C 
ATOM     16  C   UNL     1       1.893   9.441  18.768  0.00  0.00    +0.000 C 
ATOM     17  O   UNL     1       2.033  10.366  17.981  0.00  0.00    +0.000 OA
ENDBRANCH   1  15
BRANCH   4  18
ATOM     18  O   UNL     1       5.467   2.679  16.485  0.00  0.00    +0.000 OA
ATOM     19  H   UNL     1       4.751   2.039  16.342  0.00  0.00    +0.000 HD
ENDBRANCH   4  18
BRANCH   3  20
ATOM     20  O   UNL     1       2.553   3.073  16.923  0.00  0.00    +0.000 OA
BRANCH  20  21
ATOM     21  C   UNL     1       2.631   1.960  17.816  0.00  0.00    +0.000 C 
BRANCH  21  22
ATOM     22  C   UNL     1       2.431   2.365  19.245  0.00  0.00    +0.000 A 
ATOM     23  C   UNL     1       3.387   2.282  20.237  0.00  0.00    +0.000 A 
ATOM     24  N   UNL     1       3.171   2.643  21.520  0.00  0.00    +0.000 NA
ATOM     25  C   UNL     1       1.942   3.103  21.800  0.00  0.00    +0.000 A 
ATOM     26  N   UNL     1       0.935   3.233  20.927  0.00  0.00    +0.000 NA
ATOM     27  C   UNL     1       1.208   2.856  19.664  0.00  0.00    +0.000 A 
ENDBRANCH  21  22
ENDBRANCH  20  21
ENDBRANCH   3  20
TORSDOF 5
ENDMDL
