MODEL 1
REMARK VINA RESULT:      -8.0      0.000      0.000
REMARK  Name = 
REMARK  6 active torsions:
REMARK  status: ('A' for Active; 'I' for Inactive)
REMARK    1  A    between atoms: S_2  and  N_4
REMARK    2  A    between atoms: S_2  and  C_16
REMARK    3  A    between atoms: N_4  and  C_5
REMARK    4  A    between atoms: C_5  and  C_6
REMARK    5  A    between atoms: C_18  and  S_19
REMARK    6  A    between atoms: S_19  and  C_22
REMARK                            x       y       z     vdW  Elec       q    Type
REMARK                         _______ _______ _______ _____ _____    ______ ____
ROOT
ATOM      1  O   UNL     1       2.495   3.416  21.646  0.00  0.00    +0.000 OA
ATOM      2  S   UNL     1       1.706   3.727  20.472  0.00  0.00    +0.000 S 
ATOM      3  O   UNL     1       0.499   3.005  20.142  0.00  0.00    +0.000 OA
ENDROOT
BRANCH   2   4
ATOM      4  C   UNL     1       2.856   3.455  19.126  0.00  0.00    +0.000 A 
ATOM      5  C   UNL     1       3.572   4.339  18.336  0.00  0.00    +0.000 A 
ATOM      6  C   UNL     1       4.403   3.668  17.386  0.00  0.00    +0.000 A 
ATOM      7  C   UNL     1       4.280   2.298  17.472  0.00  0.00    +0.000 A 
ATOM      8  S   UNL     1       3.171   1.831  18.687  0.00  0.00    +0.000 S 
BRANCH   6   9
ATOM      9  S   UNL     1       5.438   4.470  16.242  0.00  0.00    +0.000 S 
ATOM     10  O   UNL     1       6.185   3.399  15.618  0.00  0.00    +0.000 OA
ATOM     11  O   UNL     1       4.548   5.334  15.493  0.00  0.00    +0.000 OA
BRANCH   9  12
ATOM     12  C   UNL     1       6.542   5.461  17.207  0.00  0.00    +0.000 A 
ATOM     13  C   UNL     1       6.691   6.821  16.910  0.00  0.00    +0.000 A 
ATOM     14  C   UNL     1       7.537   7.608  17.693  0.00  0.00    +0.000 A 
ATOM     15  C   UNL     1       8.214   7.043  18.774  0.00  0.00    +0.000 A 
ATOM     16  C   UNL     1       8.043   5.691  19.082  0.00  0.00    +0.000 A 
ATOM     17  C   UNL     1       7.203   4.897  18.303  0.00  0.00    +0.000 A 
ENDBRANCH   9  12
ENDBRANCH   6   9
ENDBRANCH   2   4
BRANCH   2  18
ATOM     18  N   UNL     1       1.368   5.375  20.533  0.00  0.00    +0.000 NA
ATOM     19  H   UNL     1       0.709   5.613  21.272  0.00  0.00    +0.000 HD
BRANCH  18  20
ATOM     20  C   UNL     1       2.522   6.266  20.406  0.00  0.00    +0.000 C 
BRANCH  20  21
ATOM     21  C   UNL     1       2.102   7.499  19.660  0.00  0.00    +0.000 A 
ATOM     22  C   UNL     1       2.467   7.776  18.356  0.00  0.00    +0.000 A 
ATOM     23  S   UNL     1       1.919   9.295  17.818  0.00  0.00    +0.000 S 
ATOM     24  C   UNL     1       1.154   9.633  19.320  0.00  0.00    +0.000 A 
ATOM     25  C   UNL     1       0.451  10.806  19.664  0.00  0.00    +0.000 A 
ATOM     26  C   UNL     1      -0.118  10.907  20.935  0.00  0.00    +0.000 A 
ATOM     27  C   UNL     1       0.006   9.863  21.839  0.00  0.00    +0.000 A 
ATOM     28 CL   UNL     1      -0.705   9.993  23.401  0.00  0.00    +0.000 Cl
ATOM     29  C   UNL     1       0.709   8.705  21.501  0.00  0.00    +0.000 A 
ATOM     30  C   UNL     1       1.306   8.573  20.223  0.00  0.00    +0.000 A 
ENDBRANCH  20  21
ENDBRANCH  18  20
ENDBRANCH   2  18
TORSDOF 6
ENDMDL
MODEL 2
REMARK VINA RESULT:      -8.0      4.092      6.159
REMARK  Name = 
REMARK  6 active torsions:
REMARK  status: ('A' for Active; 'I' for Inactive)
REMARK    1  A    between atoms: S_2  and  N_4
REMARK    2  A    between atoms: S_2  and  C_16
REMARK    3  A    between atoms: N_4  and  C_5
REMARK    4  A    between atoms: C_5  and  C_6
REMARK    5  A    between atoms: C_18  and  S_19
REMARK    6  A    between atoms: S_19  and  C_22
REMARK                            x       y       z     vdW  Elec       q    Type
REMARK                         _______ _______ _______ _____ _____    ______ ____
ROOT
ATOM      1  O   UNL     1       1.364  10.246  21.813  0.00  0.00    +0.000 OA
ATOM      2  S   UNL     1       0.439   9.827  20.781  0.00  0.00    +0.000 S 
ATOM      3  O   UNL     1      -0.742   9.050  21.074  0.00  0.00    +0.000 OA
ENDROOT
BRANCH   2   4
ATOM      4  C   UNL     1       1.460   8.829  19.700  0.00  0.00    +0.000 A 
ATOM      5  C   UNL     1       2.064   7.597  19.886  0.00  0.00    +0.000 A 
ATOM      6  C   UNL     1       2.773   7.158  18.723  0.00  0.00    +0.000 A 
ATOM      7  C   UNL     1       2.698   8.076  17.698  0.00  0.00    +0.000 A 
ATOM      8  S   UNL     1       1.782   9.453  18.139  0.00  0.00    +0.000 S 
BRANCH   6   9
ATOM      9  S   UNL     1       3.643   5.658  18.608  0.00  0.00    +0.000 S 
ATOM     10  O   UNL     1       3.842   5.464  17.187  0.00  0.00    +0.000 OA
ATOM     11  O   UNL     1       4.748   5.808  19.533  0.00  0.00    +0.000 OA
BRANCH   9  12
ATOM     12  C   UNL     1       2.537   4.414  19.212  0.00  0.00    +0.000 A 
ATOM     13  C   UNL     1       2.444   4.180  20.589  0.00  0.00    +0.000 A 
ATOM     14  C   UNL     1       1.546   3.223  21.065  0.00  0.00    +0.000 A 
ATOM     15  C   UNL     1       0.737   2.519  20.172  0.00  0.00    +0.000 A 
ATOM     16  C   UNL     1       0.816   2.773  18.802  0.00  0.00    +0.000 A 
ATOM     17  C   UNL     1       1.712   3.726  18.317  0.00  0.00    +0.000 A 
ENDBRANCH   9  12
ENDBRANCH   6   9
ENDBRANCH   2   4
BRANCH   2  18
ATOM     18  N   UNL     1      -0.005  11.213  19.932  0.00  0.00    +0.000 NA
ATOM     19  H   UNL     1       0.314  11.200  18.965  0.00  0.00    +0.000 HD
BRANCH  18  20
ATOM     20  C   UNL     1      -1.380  11.670  20.138  0.00  0.00    +0.000 C 
BRANCH  20  21
ATOM     21  C   UNL     1      -2.162  11.429  18.879  0.00  0.00    +0.000 A 
ATOM     22  C   UNL     1      -1.626  10.884  17.728  0.00  0.00    +0.000 A 
ATOM     23  S   UNL     1      -2.735  10.827  16.438  0.00  0.00    +0.000 S 
ATOM     24  C   UNL     1      -3.987  11.525  17.386  0.00  0.00    +0.000 A 
ATOM     25  C   UNL     1      -5.298  11.828  16.963  0.00  0.00    +0.000 A 
ATOM     26  C   UNL     1      -6.193  12.388  17.877  0.00  0.00    +0.000 A 
ATOM     27  C   UNL     1      -5.793  12.636  19.181  0.00  0.00    +0.000 A 
ATOM     28 CL   UNL     1      -6.905  13.319  20.303  0.00  0.00    +0.000 Cl
ATOM     29  C   UNL     1      -4.493  12.344  19.598  0.00  0.00    +0.000 A 
ATOM     30  C   UNL     1      -3.557  11.783  18.694  0.00  0.00    +0.000 A 
ENDBRANCH  20  21
ENDBRANCH  18  20
ENDBRANCH   2  18
TORSDOF 6
ENDMDL
MODEL 3
REMARK VINA RESULT:      -8.0      4.093      5.403
REMARK  Name = 
REMARK  6 active torsions:
REMARK  status: ('A' for Active; 'I' for Inactive)
REMARK    1  A    between atoms: S_2  and  N_4
REMARK    2  A    between atoms: S_2  and  C_16
REMARK    3  A    between atoms: N_4  and  C_5
REMARK    4  A    between atoms: C_5  and  C_6
REMARK    5  A    between atoms: C_18  and  S_19
REMARK    6  A    between atoms: S_19  and  C_22
REMARK                            x       y       z     vdW  Elec       q    Type
REMARK                         _______ _______ _______ _____ _____    ______ ____
ROOT
ATOM      1  O   UNL     1       2.361  10.306  17.515  0.00  0.00    +0.000 OA
ATOM      2  S   UNL     1       1.382  10.055  18.552  0.00  0.00    +0.000 S 
ATOM      3  O   UNL     1       1.298  10.866  19.745  0.00  0.00    +0.000 OA
ENDROOT
BRANCH   2   4
ATOM      4  C   UNL     1       1.771   8.390  19.085  0.00  0.00    +0.000 A 
ATOM      5  C   UNL     1       2.369   7.330  18.425  0.00  0.00    +0.000 A 
ATOM      6  C   UNL     1       2.507   6.178  19.261  0.00  0.00    +0.000 A 
ATOM      7  C   UNL     1       1.996   6.393  20.522  0.00  0.00    +0.000 A 
ATOM      8  S   UNL     1       1.354   7.970  20.691  0.00  0.00    +0.000 S 
BRANCH   6   9
ATOM      9  S   UNL     1       3.218   4.674  18.756  0.00  0.00    +0.000 S 
ATOM     10  O   UNL     1       3.449   3.951  19.989  0.00  0.00    +0.000 OA
ATOM     11  O   UNL     1       2.329   4.182  17.723  0.00  0.00    +0.000 OA
BRANCH   9  12
ATOM     12  C   UNL     1       4.778   5.099  18.033  0.00  0.00    +0.000 A 
ATOM     13  C   UNL     1       4.890   5.206  16.642  0.00  0.00    +0.000 A 
ATOM     14  C   UNL     1       6.112   5.574  16.077  0.00  0.00    +0.000 A 
ATOM     15  C   UNL     1       7.206   5.850  16.897  0.00  0.00    +0.000 A 
ATOM     16  C   UNL     1       7.083   5.766  18.286  0.00  0.00    +0.000 A 
ATOM     17  C   UNL     1       5.866   5.396  18.859  0.00  0.00    +0.000 A 
ENDBRANCH   9  12
ENDBRANCH   6   9
ENDBRANCH   2   4
BRANCH   2  18
ATOM     18  N   UNL     1      -0.125  10.015  17.801  0.00  0.00    +0.000 NA
ATOM     19  H   UNL     1      -0.302   9.133  17.322  0.00  0.00    +0.000 HD
BRANCH  18  20
ATOM     20  C   UNL     1      -1.241  10.540  18.588  0.00  0.00    +0.000 C 
BRANCH  20  21
ATOM     21  C   UNL     1      -2.414  10.761  17.676  0.00  0.00    +0.000 A 
ATOM     22  C   UNL     1      -2.449  10.367  16.352  0.00  0.00    +0.000 A 
ATOM     23  S   UNL     1      -3.873  10.845  15.552  0.00  0.00    +0.000 S 
ATOM     24  C   UNL     1      -4.506  11.591  16.965  0.00  0.00    +0.000 A 
ATOM     25  C   UNL     1      -5.735  12.270  17.083  0.00  0.00    +0.000 A 
ATOM     26  C   UNL     1      -6.096  12.811  18.319  0.00  0.00    +0.000 A 
ATOM     27  C   UNL     1      -5.253  12.674  19.411  0.00  0.00    +0.000 A 
ATOM     28 CL   UNL     1      -5.709  13.337  20.933  0.00  0.00    +0.000 Cl
ATOM     29  C   UNL     1      -4.031  12.009  19.293  0.00  0.00    +0.000 A 
ATOM     30  C   UNL     1      -3.631  11.456  18.051  0.00  0.00    +0.000 A 
ENDBRANCH  20  21
ENDBRANCH  18  20
ENDBRANCH   2  18
TORSDOF 6
ENDMDL
MODEL 4
REMARK VINA RESULT:      -7.9      3.580      7.820
REMARK  Name = 
REMARK  6 active torsions:
REMARK  status: ('A' for Active; 'I' for Inactive)
REMARK    1  A    between atoms: S_2  and  N_4
REMARK    2  A    between atoms: S_2  and  C_16
REMARK    3  A    between atoms: N_4  and  C_5
REMARK    4  A    between atoms: C_5  and  C_6
REMARK    5  A    between atoms: C_18  and  S_19
REMARK    6  A    between atoms: S_19  and  C_22
REMARK                            x       y       z     vdW  Elec       q    Type
REMARK                         _______ _______ _______ _____ _____    ______ ____
ROOT
ATOM      1  O   UNL     1       1.352   3.523  18.716  0.00  0.00    +0.000 OA
ATOM      2  S   UNL     1       2.008   3.842  19.968  0.00  0.00    +0.000 S 
ATOM      3  O   UNL     1       1.559   3.304  21.231  0.00  0.00    +0.000 OA
ENDROOT
BRANCH   2   4
ATOM      4  C   UNL     1       1.840   5.621  20.074  0.00  0.00    +0.000 A 
ATOM      5  C   UNL     1       1.198   6.430  20.997  0.00  0.00    +0.000 A 
ATOM      6  C   UNL     1       1.348   7.821  20.698  0.00  0.00    +0.000 A 
ATOM      7  C   UNL     1       2.084   8.024  19.551  0.00  0.00    +0.000 A 
ATOM      8  S   UNL     1       2.586   6.548  18.844  0.00  0.00    +0.000 S 
BRANCH   6   9
ATOM      9  S   UNL     1       0.675   9.111  21.649  0.00  0.00    +0.000 S 
ATOM     10  O   UNL     1      -0.581   8.582  22.138  0.00  0.00    +0.000 OA
ATOM     11  O   UNL     1       1.750   9.505  22.538  0.00  0.00    +0.000 OA
BRANCH   9  12
ATOM     12  C   UNL     1       0.346  10.425  20.509  0.00  0.00    +0.000 A 
ATOM     13  C   UNL     1      -0.682  10.286  19.570  0.00  0.00    +0.000 A 
ATOM     14  C   UNL     1      -0.962  11.337  18.695  0.00  0.00    +0.000 A 
ATOM     15  C   UNL     1      -0.231  12.523  18.771  0.00  0.00    +0.000 A 
ATOM     16  C   UNL     1       0.777  12.667  19.727  0.00  0.00    +0.000 A 
ATOM     17  C   UNL     1       1.066  11.621  20.603  0.00  0.00    +0.000 A 
ENDBRANCH   9  12
ENDBRANCH   6   9
ENDBRANCH   2   4
BRANCH   2  18
ATOM     18  N   UNL     1       3.643   3.492  19.765  0.00  0.00    +0.000 NA
ATOM     19  H   UNL     1       3.998   2.852  20.474  0.00  0.00    +0.000 HD
BRANCH  18  20
ATOM     20  C   UNL     1       4.067   3.212  18.393  0.00  0.00    +0.000 C 
BRANCH  20  21
ATOM     21  C   UNL     1       5.244   4.084  18.063  0.00  0.00    +0.000 A 
ATOM     22  C   UNL     1       5.933   4.838  18.995  0.00  0.00    +0.000 A 
ATOM     23  S   UNL     1       7.154   5.799  18.302  0.00  0.00    +0.000 S 
ATOM     24  C   UNL     1       6.811   5.227  16.718  0.00  0.00    +0.000 A 
ATOM     25  C   UNL     1       7.450   5.614  15.523  0.00  0.00    +0.000 A 
ATOM     26  C   UNL     1       7.046   5.035  14.318  0.00  0.00    +0.000 A 
ATOM     27  C   UNL     1       6.031   4.090  14.307  0.00  0.00    +0.000 A 
ATOM     28 CL   UNL     1       5.544   3.376  12.818  0.00  0.00    +0.000 Cl
ATOM     29  C   UNL     1       5.392   3.712  15.489  0.00  0.00    +0.000 A 
ATOM     30  C   UNL     1       5.773   4.287  16.728  0.00  0.00    +0.000 A 
ENDBRANCH  20  21
ENDBRANCH  18  20
ENDBRANCH   2  18
TORSDOF 6
ENDMDL
MODEL 5
REMARK VINA RESULT:      -7.8      2.308      2.948
REMARK  Name = 
REMARK  6 active torsions:
REMARK  status: ('A' for Active; 'I' for Inactive)
REMARK    1  A    between atoms: S_2  and  N_4
REMARK    2  A    between atoms: S_2  and  C_16
REMARK    3  A    between atoms: N_4  and  C_5
REMARK    4  A    between atoms: C_5  and  C_6
REMARK    5  A    between atoms: C_18  and  S_19
REMARK    6  A    between atoms: S_19  and  C_22
REMARK                            x       y       z     vdW  Elec       q    Type
REMARK                         _______ _______ _______ _____ _____    ______ ____
ROOT
ATOM      1  O   UNL     1       3.824   2.930  20.805  0.00  0.00    +0.000 OA
ATOM      2  S   UNL     1       2.800   3.142  19.803  0.00  0.00    +0.000 S 
ATOM      3  O   UNL     1       1.930   2.080  19.355  0.00  0.00    +0.000 OA
ENDROOT
BRANCH   2   4
ATOM      4  C   UNL     1       3.734   3.683  18.374  0.00  0.00    +0.000 A 
ATOM      5  C   UNL     1       5.036   4.135  18.244  0.00  0.00    +0.000 A 
ATOM      6  C   UNL     1       5.375   4.436  16.888  0.00  0.00    +0.000 A 
ATOM      7  C   UNL     1       4.316   4.218  16.033  0.00  0.00    +0.000 A 
ATOM      8  S   UNL     1       2.929   3.658  16.863  0.00  0.00    +0.000 S 
BRANCH   6   9
ATOM      9  S   UNL     1       6.926   5.022  16.367  0.00  0.00    +0.000 S 
ATOM     10  O   UNL     1       6.863   6.452  16.584  0.00  0.00    +0.000 OA
ATOM     11  O   UNL     1       7.882   4.175  17.051  0.00  0.00    +0.000 OA
BRANCH   9  12
ATOM     12  C   UNL     1       7.000   4.703  14.627  0.00  0.00    +0.000 A 
ATOM     13  C   UNL     1       6.186   3.710  14.070  0.00  0.00    +0.000 A 
ATOM     14  C   UNL     1       6.221   3.483  12.693  0.00  0.00    +0.000 A 
ATOM     15  C   UNL     1       7.050   4.255  11.879  0.00  0.00    +0.000 A 
ATOM     16  C   UNL     1       7.842   5.262  12.435  0.00  0.00    +0.000 A 
ATOM     17  C   UNL     1       7.815   5.494  13.811  0.00  0.00    +0.000 A 
ENDBRANCH   9  12
ENDBRANCH   6   9
ENDBRANCH   2   4
BRANCH   2  18
ATOM     18  N   UNL     1       1.865   4.441  20.327  0.00  0.00    +0.000 NA
ATOM     19  H   UNL     1       1.082   4.151  20.911  0.00  0.00    +0.000 HD
BRANCH  18  20
ATOM     20  C   UNL     1       2.610   5.607  20.805  0.00  0.00    +0.000 C 
BRANCH  20  21
ATOM     21  C   UNL     1       2.259   6.789  19.947  0.00  0.00    +0.000 A 
ATOM     22  C   UNL     1       2.647   6.930  18.629  0.00  0.00    +0.000 A 
ATOM     23  S   UNL     1       2.181   8.422  17.953  0.00  0.00    +0.000 S 
ATOM     24  C   UNL     1       1.424   8.930  19.410  0.00  0.00    +0.000 A 
ATOM     25  C   UNL     1       0.781  10.163  19.642  0.00  0.00    +0.000 A 
ATOM     26  C   UNL     1       0.209  10.405  20.893  0.00  0.00    +0.000 A 
ATOM     27  C   UNL     1       0.273   9.440  21.886  0.00  0.00    +0.000 A 
ATOM     28 CL   UNL     1      -0.441   9.744  23.423  0.00  0.00    +0.000 Cl
ATOM     29  C   UNL     1       0.917   8.223  21.660  0.00  0.00    +0.000 A 
ATOM     30  C   UNL     1       1.516   7.948  20.405  0.00  0.00    +0.000 A 
ENDBRANCH  20  21
ENDBRANCH  18  20
ENDBRANCH   2  18
TORSDOF 6
ENDMDL
MODEL 6
REMARK VINA RESULT:      -7.8      3.702      5.069
REMARK  Name = 
REMARK  6 active torsions:
REMARK  status: ('A' for Active; 'I' for Inactive)
REMARK    1  A    between atoms: S_2  and  N_4
REMARK    2  A    between atoms: S_2  and  C_16
REMARK    3  A    between atoms: N_4  and  C_5
REMARK    4  A    between atoms: C_5  and  C_6
REMARK    5  A    between atoms: C_18  and  S_19
REMARK    6  A    between atoms: S_19  and  C_22
REMARK                            x       y       z     vdW  Elec       q    Type
REMARK                         _______ _______ _______ _____ _____    ______ ____
ROOT
ATOM      1  O   UNL     1       1.801   9.032  22.286  0.00  0.00    +0.000 OA
ATOM      2  S   UNL     1       0.871   8.914  21.182  0.00  0.00    +0.000 S 
ATOM      3  O   UNL     1      -0.468   8.401  21.355  0.00  0.00    +0.000 OA
ENDROOT
BRANCH   2   4
ATOM      4  C   UNL     1       1.711   7.799  20.061  0.00  0.00    +0.000 A 
ATOM      5  C   UNL     1       2.035   6.457  20.170  0.00  0.00    +0.000 A 
ATOM      6  C   UNL     1       2.691   5.959  19.000  0.00  0.00    +0.000 A 
ATOM      7  C   UNL     1       2.859   6.941  18.048  0.00  0.00    +0.000 A 
ATOM      8  S   UNL     1       2.232   8.447  18.565  0.00  0.00    +0.000 S 
BRANCH   6   9
ATOM      9  S   UNL     1       3.232   4.320  18.797  0.00  0.00    +0.000 S 
ATOM     10  O   UNL     1       3.469   3.848  20.144  0.00  0.00    +0.000 OA
ATOM     11  O   UNL     1       2.241   3.718  17.927  0.00  0.00    +0.000 OA
BRANCH   9  12
ATOM     12  C   UNL     1       4.777   4.428  17.939  0.00  0.00    +0.000 A 
ATOM     13  C   UNL     1       5.928   4.816  18.634  0.00  0.00    +0.000 A 
ATOM     14  C   UNL     1       7.151   4.868  17.963  0.00  0.00    +0.000 A 
ATOM     15  C   UNL     1       7.224   4.517  16.614  0.00  0.00    +0.000 A 
ATOM     16  C   UNL     1       6.078   4.105  15.932  0.00  0.00    +0.000 A 
ATOM     17  C   UNL     1       4.850   4.054  16.593  0.00  0.00    +0.000 A 
ENDBRANCH   9  12
ENDBRANCH   6   9
ENDBRANCH   2   4
BRANCH   2  18
ATOM     18  N   UNL     1       0.795  10.425  20.443  0.00  0.00    +0.000 NA
ATOM     19  H   UNL     1       1.679  10.930  20.490  0.00  0.00    +0.000 HD
BRANCH  18  20
ATOM     20  C   UNL     1       0.114  10.466  19.149  0.00  0.00    +0.000 C 
BRANCH  20  21
ATOM     21  C   UNL     1      -1.191  11.192  19.312  0.00  0.00    +0.000 A 
ATOM     22  C   UNL     1      -1.542  11.906  20.442  0.00  0.00    +0.000 A 
ATOM     23  S   UNL     1      -3.122  12.533  20.369  0.00  0.00    +0.000 S 
ATOM     24  C   UNL     1      -3.391  11.876  18.804  0.00  0.00    +0.000 A 
ATOM     25  C   UNL     1      -4.572  11.972  18.039  0.00  0.00    +0.000 A 
ATOM     26  C   UNL     1      -4.611  11.381  16.775  0.00  0.00    +0.000 A 
ATOM     27  C   UNL     1      -3.499  10.714  16.283  0.00  0.00    +0.000 A 
ATOM     28 CL   UNL     1      -3.553   9.995  14.720  0.00  0.00    +0.000 Cl
ATOM     29  C   UNL     1      -2.333  10.612  17.043  0.00  0.00    +0.000 A 
ATOM     30  C   UNL     1      -2.262  11.193  18.334  0.00  0.00    +0.000 A 
ENDBRANCH  20  21
ENDBRANCH  18  20
ENDBRANCH   2  18
TORSDOF 6
ENDMDL
MODEL 7
REMARK VINA RESULT:      -7.7      1.186      1.663
REMARK  Name = 
REMARK  6 active torsions:
REMARK  status: ('A' for Active; 'I' for Inactive)
REMARK    1  A    between atoms: S_2  and  N_4
REMARK    2  A    between atoms: S_2  and  C_16
REMARK    3  A    between atoms: N_4  and  C_5
REMARK    4  A    between atoms: C_5  and  C_6
REMARK    5  A    between atoms: C_18  and  S_19
REMARK    6  A    between atoms: S_19  and  C_22
REMARK                            x       y       z     vdW  Elec       q    Type
REMARK                         _______ _______ _______ _____ _____    ______ ____
ROOT
ATOM      1  O   UNL     1       2.554   4.310  21.554  0.00  0.00    +0.000 OA
ATOM      2  S   UNL     1       1.833   5.074  20.557  0.00  0.00    +0.000 S 
ATOM      3  O   UNL     1       0.418   4.897  20.328  0.00  0.00    +0.000 OA
ENDROOT
BRANCH   2   4
ATOM      4  C   UNL     1       2.663   4.639  19.032  0.00  0.00    +0.000 A 
ATOM      5  C   UNL     1       3.820   5.122  18.445  0.00  0.00    +0.000 A 
ATOM      6  C   UNL     1       4.130   4.452  17.220  0.00  0.00    +0.000 A 
ATOM      7  C   UNL     1       3.190   3.494  16.907  0.00  0.00    +0.000 A 
ATOM      8  S   UNL     1       1.949   3.408  18.081  0.00  0.00    +0.000 S 
BRANCH   6   9
ATOM      9  S   UNL     1       5.511   4.804  16.225  0.00  0.00    +0.000 S 
ATOM     10  O   UNL     1       6.128   3.515  15.995  0.00  0.00    +0.000 OA
ATOM     11  O   UNL     1       4.984   5.616  15.147  0.00  0.00    +0.000 OA
BRANCH   9  12
ATOM     12  C   UNL     1       6.586   5.789  17.230  0.00  0.00    +0.000 A 
ATOM     13  C   UNL     1       7.247   5.205  18.316  0.00  0.00    +0.000 A 
ATOM     14  C   UNL     1       8.120   5.976  19.085  0.00  0.00    +0.000 A 
ATOM     15  C   UNL     1       8.343   7.314  18.760  0.00  0.00    +0.000 A 
ATOM     16  C   UNL     1       7.700   7.886  17.660  0.00  0.00    +0.000 A 
ATOM     17  C   UNL     1       6.824   7.124  16.887  0.00  0.00    +0.000 A 
ENDBRANCH   9  12
ENDBRANCH   6   9
ENDBRANCH   2   4
BRANCH   2  18
ATOM     18  N   UNL     1       2.147   6.700  20.867  0.00  0.00    +0.000 NA
ATOM     19  H   UNL     1       2.795   7.109  20.197  0.00  0.00    +0.000 HD
BRANCH  18  20
ATOM     20  C   UNL     1       0.980   7.519  21.198  0.00  0.00    +0.000 C 
BRANCH  20  21
ATOM     21  C   UNL     1       0.969   8.726  20.303  0.00  0.00    +0.000 A 
ATOM     22  C   UNL     1       1.616   8.790  19.084  0.00  0.00    +0.000 A 
ATOM     23  S   UNL     1       1.502  10.322  18.350  0.00  0.00    +0.000 S 
ATOM     24  C   UNL     1       0.564  10.955  19.643  0.00  0.00    +0.000 A 
ATOM     25  C   UNL     1       0.070  12.270  19.764  0.00  0.00    +0.000 A 
ATOM     26  C   UNL     1      -0.688  12.610  20.886  0.00  0.00    +0.000 A 
ATOM     27  C   UNL     1      -0.950  11.661  21.862  0.00  0.00    +0.000 A 
ATOM     28 CL   UNL     1      -1.892  12.087  23.239  0.00  0.00    +0.000 Cl
ATOM     29  C   UNL     1      -0.455  10.361  21.748  0.00  0.00    +0.000 A 
ATOM     30  C   UNL     1       0.325   9.985  20.625  0.00  0.00    +0.000 A 
ENDBRANCH  20  21
ENDBRANCH  18  20
ENDBRANCH   2  18
TORSDOF 6
ENDMDL
MODEL 8
REMARK VINA RESULT:      -7.7      4.197      6.251
REMARK  Name = 
REMARK  6 active torsions:
REMARK  status: ('A' for Active; 'I' for Inactive)
REMARK    1  A    between atoms: S_2  and  N_4
REMARK    2  A    between atoms: S_2  and  C_16
REMARK    3  A    between atoms: N_4  and  C_5
REMARK    4  A    between atoms: C_5  and  C_6
REMARK    5  A    between atoms: C_18  and  S_19
REMARK    6  A    between atoms: S_19  and  C_22
REMARK                            x       y       z     vdW  Elec       q    Type
REMARK                         _______ _______ _______ _____ _____    ______ ____
ROOT
ATOM      1  O   UNL     1       1.309  11.465  20.237  0.00  0.00    +0.000 OA
ATOM      2  S   UNL     1       0.810  10.180  20.679  0.00  0.00    +0.000 S 
ATOM      3  O   UNL     1       1.004   9.702  22.029  0.00  0.00    +0.000 OA
ENDROOT
BRANCH   2   4
ATOM      4  C   UNL     1       1.644   9.024  19.597  0.00  0.00    +0.000 A 
ATOM      5  C   UNL     1       2.231   7.793  19.842  0.00  0.00    +0.000 A 
ATOM      6  C   UNL     1       2.762   7.198  18.655  0.00  0.00    +0.000 A 
ATOM      7  C   UNL     1       2.578   8.001  17.551  0.00  0.00    +0.000 A 
ATOM      8  S   UNL     1       1.773   9.458  17.946  0.00  0.00    +0.000 S 
BRANCH   6   9
ATOM      9  S   UNL     1       3.562   5.655  18.600  0.00  0.00    +0.000 S 
ATOM     10  O   UNL     1       3.818   5.432  17.193  0.00  0.00    +0.000 OA
ATOM     11  O   UNL     1       4.628   5.765  19.575  0.00  0.00    +0.000 OA
BRANCH   9  12
ATOM     12  C   UNL     1       2.369   4.476  19.167  0.00  0.00    +0.000 A 
ATOM     13  C   UNL     1       1.656   3.711  18.236  0.00  0.00    +0.000 A 
ATOM     14  C   UNL     1       0.741   2.759  18.687  0.00  0.00    +0.000 A 
ATOM     15  C   UNL     1       0.553   2.561  20.055  0.00  0.00    +0.000 A 
ATOM     16  C   UNL     1       1.286   3.309  20.980  0.00  0.00    +0.000 A 
ATOM     17  C   UNL     1       2.200   4.265  20.539  0.00  0.00    +0.000 A 
ENDBRANCH   9  12
ENDBRANCH   6   9
ENDBRANCH   2   4
BRANCH   2  18
ATOM     18  N   UNL     1      -0.832  10.140  20.307  0.00  0.00    +0.000 NA
ATOM     19  H   UNL     1      -1.363   9.544  20.940  0.00  0.00    +0.000 HD
BRANCH  18  20
ATOM     20  C   UNL     1      -1.444  11.431  19.993  0.00  0.00    +0.000 C 
BRANCH  20  21
ATOM     21  C   UNL     1      -2.262  11.287  18.742  0.00  0.00    +0.000 A 
ATOM     22  C   UNL     1      -1.782  10.753  17.562  0.00  0.00    +0.000 A 
ATOM     23  S   UNL     1      -2.916  10.815  16.293  0.00  0.00    +0.000 S 
ATOM     24  C   UNL     1      -4.104  11.553  17.291  0.00  0.00    +0.000 A 
ATOM     25  C   UNL     1      -5.401  11.952  16.907  0.00  0.00    +0.000 A 
ATOM     26  C   UNL     1      -6.242  12.532  17.858  0.00  0.00    +0.000 A 
ATOM     27  C   UNL     1      -5.804  12.705  19.162  0.00  0.00    +0.000 A 
ATOM     28 CL   UNL     1      -6.851  13.414  20.330  0.00  0.00    +0.000 Cl
ATOM     29  C   UNL     1      -4.518  12.317  19.542  0.00  0.00    +0.000 A 
ATOM     30  C   UNL     1      -3.635  11.734  18.599  0.00  0.00    +0.000 A 
ENDBRANCH  20  21
ENDBRANCH  18  20
ENDBRANCH   2  18
TORSDOF 6
ENDMDL
MODEL 9
REMARK VINA RESULT:      -7.6      4.075      6.167
REMARK  Name = 
REMARK  6 active torsions:
REMARK  status: ('A' for Active; 'I' for Inactive)
REMARK    1  A    between atoms: S_2  and  N_4
REMARK    2  A    between atoms: S_2  and  C_16
REMARK    3  A    between atoms: N_4  and  C_5
REMARK    4  A    between atoms: C_5  and  C_6
REMARK    5  A    between atoms: C_18  and  S_19
REMARK    6  A    between atoms: S_19  and  C_22
REMARK                            x       y       z     vdW  Elec       q    Type
REMARK                         _______ _______ _______ _____ _____    ______ ____
ROOT
ATOM      1  O   UNL     1       1.071  11.129  20.423  0.00  0.00    +0.000 OA
ATOM      2  S   UNL     1       0.333   9.891  20.288  0.00  0.00    +0.000 S 
ATOM      3  O   UNL     1      -0.114   9.133  21.434  0.00  0.00    +0.000 OA
ENDROOT
BRANCH   2   4
ATOM      4  C   UNL     1       1.462   8.839  19.381  0.00  0.00    +0.000 A 
ATOM      5  C   UNL     1       2.002   7.599  19.676  0.00  0.00    +0.000 A 
ATOM      6  C   UNL     1       2.849   7.111  18.632  0.00  0.00    +0.000 A 
ATOM      7  C   UNL     1       2.938   8.003  17.585  0.00  0.00    +0.000 A 
ATOM      8  S   UNL     1       2.010   9.412  17.864  0.00  0.00    +0.000 S 
BRANCH   6   9
ATOM      9  S   UNL     1       3.685   5.588  18.672  0.00  0.00    +0.000 S 
ATOM     10  O   UNL     1       3.733   5.166  17.288  0.00  0.00    +0.000 OA
ATOM     11  O   UNL     1       4.882   5.852  19.445  0.00  0.00    +0.000 OA
BRANCH   9  12
ATOM     12  C   UNL     1       2.634   4.487  19.577  0.00  0.00    +0.000 A 
ATOM     13  C   UNL     1       1.606   3.809  18.912  0.00  0.00    +0.000 A 
ATOM     14  C   UNL     1       0.800   2.917  19.621  0.00  0.00    +0.000 A 
ATOM     15  C   UNL     1       1.032   2.692  20.979  0.00  0.00    +0.000 A 
ATOM     16  C   UNL     1       2.075   3.352  21.632  0.00  0.00    +0.000 A 
ATOM     17  C   UNL     1       2.883   4.248  20.932  0.00  0.00    +0.000 A 
ENDBRANCH   9  12
ENDBRANCH   6   9
ENDBRANCH   2   4
BRANCH   2  18
ATOM     18  N   UNL     1      -0.984  10.214  19.289  0.00  0.00    +0.000 NA
ATOM     19  H   UNL     1      -1.784   9.615  19.488  0.00  0.00    +0.000 HD
BRANCH  18  20
ATOM     20  C   UNL     1      -1.292  11.630  19.082  0.00  0.00    +0.000 C 
BRANCH  20  21
ATOM     21  C   UNL     1      -2.774  11.780  18.896  0.00  0.00    +0.000 A 
ATOM     22  C   UNL     1      -3.446  11.444  17.736  0.00  0.00    +0.000 A 
ATOM     23  S   UNL     1      -5.105  11.820  17.793  0.00  0.00    +0.000 S 
ATOM     24  C   UNL     1      -4.985  12.440  19.391  0.00  0.00    +0.000 A 
ATOM     25  C   UNL     1      -6.027  12.995  20.162  0.00  0.00    +0.000 A 
ATOM     26  C   UNL     1      -5.750  13.444  21.455  0.00  0.00    +0.000 A 
ATOM     27  C   UNL     1      -4.466  13.339  21.968  0.00  0.00    +0.000 A 
ATOM     28 CL   UNL     1      -4.135  13.888  23.565  0.00  0.00    +0.000 Cl
ATOM     29  C   UNL     1      -3.432  12.798  21.202  0.00  0.00    +0.000 A 
ATOM     30  C   UNL     1      -3.677  12.340  19.883  0.00  0.00    +0.000 A 
ENDBRANCH  20  21
ENDBRANCH  18  20
ENDBRANCH   2  18
TORSDOF 6
ENDMDL
