MODEL 1
REMARK VINA RESULT:      -6.8      0.000      0.000
REMARK  Name = 
REMARK  14 active torsions:
REMARK  status: ('A' for Active; 'I' for Inactive)
REMARK    1  A    between atoms: C_1  and  C_2
REMARK    2  A    between atoms: C_2  and  N_3
REMARK    3  A    between atoms: N_3  and  C_4
REMARK    4  A    between atoms: N_3  and  C_6
REMARK    5  A    between atoms: C_4  and  C_5
REMARK    6  A    between atoms: C_6  and  C_7
REMARK    7  A    between atoms: C_7  and  O_8
REMARK    8  A    between atoms: O_8  and  C_9
REMARK    9  A    between atoms: C_12  and  C_13
REMARK   10  A    between atoms: C_13  and  C_14
REMARK   11  A    between atoms: C_14  and  C_15
REMARK   12  A    between atoms: C_18  and  C_19
REMARK   13  A    between atoms: C_22  and  O_23
REMARK   14  A    between atoms: O_23  and  C_24
REMARK                            x       y       z     vdW  Elec       q    Type
REMARK                         _______ _______ _______ _____ _____    ______ ____
ROOT
ATOM      1  C   UNL     1       2.770   5.304  18.342  0.00  0.00    +0.000 C 
ENDROOT
BRANCH   1   5
ATOM      2  C   UNL     1       5.873   5.261  15.339  0.00  0.00    +0.000 A 
ATOM      3  C   UNL     1       5.364   6.460  15.839  0.00  0.00    +0.000 A 
ATOM      4  C   UNL     1       4.371   6.461  16.815  0.00  0.00    +0.000 A 
ATOM      5  C   UNL     1       3.873   5.257  17.319  0.00  0.00    +0.000 A 
ATOM      6  C   UNL     1       4.378   4.053  16.820  0.00  0.00    +0.000 A 
ATOM      7  C   UNL     1       5.373   4.055  15.836  0.00  0.00    +0.000 A 
BRANCH   2   8
ATOM      8  O   UNL     1       6.847   5.166  14.371  0.00  0.00    +0.000 OA
BRANCH   8   9
ATOM      9  C   UNL     1       7.009   3.846  13.833  0.00  0.00    +0.000 C 
BRANCH   9  10
ATOM     10  C   UNL     1       6.562   3.776  12.369  0.00  0.00    +0.000 C 
BRANCH  10  11
ATOM     11  N   UNL     1       5.418   2.860  12.142  0.00  0.00    +0.000 NA
BRANCH  11  13
ATOM     12  C   UNL     1       3.454   3.104  10.575  0.00  0.00    +0.000 C 
ATOM     13  C   UNL     1       4.228   3.645  11.773  0.00  0.00    +0.000 C 
ENDBRANCH  11  13
BRANCH  11  14
ATOM     14  C   UNL     1       5.710   1.741  11.232  0.00  0.00    +0.000 C 
ATOM     15  C   UNL     1       7.162   1.595  10.790  0.00  0.00    +0.000 C 
ENDBRANCH  11  14
ENDBRANCH  10  11
ENDBRANCH   9  10
ENDBRANCH   8   9
ENDBRANCH   2   8
ENDBRANCH   1   5
BRANCH   1  16
ATOM     16  C   UNL     1       3.180   6.161  19.538  0.00  0.00    +0.000 C 
BRANCH  16  17
ATOM     17  C   UNL     1       2.224   7.301  19.752  0.00  0.00    +0.000 A 
ATOM     18  C   UNL     1       1.990   8.228  18.747  0.00  0.00    +0.000 A 
ATOM     19  C   UNL     1       1.162   9.319  19.015  0.00  0.00    +0.000 A 
ATOM     20  C   UNL     1       0.567   9.480  20.275  0.00  0.00    +0.000 A 
ATOM     21  C   UNL     1       0.843   8.469  21.196  0.00  0.00    +0.000 A 
ATOM     22  N   UNL     1       1.654   7.405  20.975  0.00  0.00    +0.000 NA
BRANCH  20  23
ATOM     23  C   UNL     1      -0.267  10.653  20.610  0.00  0.00    +0.000 A 
ATOM     24  C   UNL     1      -0.214  11.259  21.877  0.00  0.00    +0.000 A 
ATOM     25  C   UNL     1      -1.036  12.344  22.200  0.00  0.00    +0.000 A 
ATOM     26  C   UNL     1      -1.910  12.876  21.256  0.00  0.00    +0.000 A 
ATOM     27  C   UNL     1      -1.987  12.293  19.996  0.00  0.00    +0.000 A 
ATOM     28  C   UNL     1      -1.179  11.192  19.682  0.00  0.00    +0.000 A 
BRANCH  26  29
ATOM     29  O   UNL     1      -2.667  13.930  21.685  0.00  0.00    +0.000 OA
ATOM     30  C   UNL     1      -4.067  13.683  21.756  0.00  0.00    +0.000 C 
ENDBRANCH  26  29
ENDBRANCH  20  23
ENDBRANCH  16  17
ENDBRANCH   1  16
TORSDOF 11
ENDMDL
MODEL 2
REMARK VINA RESULT:      -6.8      4.204      6.496
REMARK  Name = 
REMARK  14 active torsions:
REMARK  status: ('A' for Active; 'I' for Inactive)
REMARK    1  A    between atoms: C_1  and  C_2
REMARK    2  A    between atoms: C_2  and  N_3
REMARK    3  A    between atoms: N_3  and  C_4
REMARK    4  A    between atoms: N_3  and  C_6
REMARK    5  A    between atoms: C_4  and  C_5
REMARK    6  A    between atoms: C_6  and  C_7
REMARK    7  A    between atoms: C_7  and  O_8
REMARK    8  A    between atoms: O_8  and  C_9
REMARK    9  A    between atoms: C_12  and  C_13
REMARK   10  A    between atoms: C_13  and  C_14
REMARK   11  A    between atoms: C_14  and  C_15
REMARK   12  A    between atoms: C_18  and  C_19
REMARK   13  A    between atoms: C_22  and  O_23
REMARK   14  A    between atoms: O_23  and  C_24
REMARK                            x       y       z     vdW  Elec       q    Type
REMARK                         _______ _______ _______ _____ _____    ______ ____
ROOT
ATOM      1  C   UNL     1       4.647   4.297  18.414  0.00  0.00    +0.000 C 
ENDROOT
BRANCH   1   5
ATOM      2  C   UNL     1       7.669   7.331  17.850  0.00  0.00    +0.000 A 
ATOM      3  C   UNL     1       7.749   6.413  18.899  0.00  0.00    +0.000 A 
ATOM      4  C   UNL     1       6.773   5.433  19.064  0.00  0.00    +0.000 A 
ATOM      5  C   UNL     1       5.701   5.345  18.174  0.00  0.00    +0.000 A 
ATOM      6  C   UNL     1       5.615   6.263  17.123  0.00  0.00    +0.000 A 
ATOM      7  C   UNL     1       6.594   7.249  16.962  0.00  0.00    +0.000 A 
BRANCH   2   8
ATOM      8  O   UNL     1       8.581   8.335  17.616  0.00  0.00    +0.000 OA
BRANCH   8   9
ATOM      9  C   UNL     1       8.215   9.601  18.185  0.00  0.00    +0.000 C 
BRANCH   9  10
ATOM     10  C   UNL     1       9.375  10.599  18.128  0.00  0.00    +0.000 C 
BRANCH  10  11
ATOM     11  N   UNL     1       9.242  11.718  19.093  0.00  0.00    +0.000 NA
BRANCH  11  13
ATOM     12  C   UNL     1       8.968  11.902  21.596  0.00  0.00    +0.000 C 
ATOM     13  C   UNL     1       9.713  11.281  20.418  0.00  0.00    +0.000 C 
ENDBRANCH  11  13
BRANCH  11  14
ATOM     14  C   UNL     1       9.826  12.987  18.632  0.00  0.00    +0.000 C 
ATOM     15  C   UNL     1      11.244  12.911  18.076  0.00  0.00    +0.000 C 
ENDBRANCH  11  14
ENDBRANCH  10  11
ENDBRANCH   9  10
ENDBRANCH   8   9
ENDBRANCH   2   8
ENDBRANCH   1   5
BRANCH   1  16
ATOM     16  C   UNL     1       3.287   4.774  17.909  0.00  0.00    +0.000 C 
BRANCH  16  17
ATOM     17  C   UNL     1       2.712   5.840  18.798  0.00  0.00    +0.000 A 
ATOM     18  C   UNL     1       2.251   5.532  20.069  0.00  0.00    +0.000 A 
ATOM     19  C   UNL     1       1.645   6.533  20.829  0.00  0.00    +0.000 A 
ATOM     20  C   UNL     1       1.508   7.835  20.327  0.00  0.00    +0.000 A 
ATOM     21  C   UNL     1       2.040   8.040  19.053  0.00  0.00    +0.000 A 
ATOM     22  N   UNL     1       2.620   7.088  18.282  0.00  0.00    +0.000 NA
BRANCH  20  23
ATOM     23  C   UNL     1       0.821   8.905  21.081  0.00  0.00    +0.000 A 
ATOM     24  C   UNL     1       0.554   8.785  22.455  0.00  0.00    +0.000 A 
ATOM     25  C   UNL     1      -0.131   9.785  23.153  0.00  0.00    +0.000 A 
ATOM     26  C   UNL     1      -0.538  10.948  22.507  0.00  0.00    +0.000 A 
ATOM     27  C   UNL     1      -0.290  11.092  21.146  0.00  0.00    +0.000 A 
ATOM     28  C   UNL     1       0.376  10.079  20.443  0.00  0.00    +0.000 A 
BRANCH  26  29
ATOM     29  O   UNL     1      -1.204  11.852  23.287  0.00  0.00    +0.000 OA
ATOM     30  C   UNL     1      -1.097  13.208  22.870  0.00  0.00    +0.000 C 
ENDBRANCH  26  29
ENDBRANCH  20  23
ENDBRANCH  16  17
ENDBRANCH   1  16
TORSDOF 11
ENDMDL
MODEL 3
REMARK VINA RESULT:      -6.7      2.854      3.957
REMARK  Name = 
REMARK  14 active torsions:
REMARK  status: ('A' for Active; 'I' for Inactive)
REMARK    1  A    between atoms: C_1  and  C_2
REMARK    2  A    between atoms: C_2  and  N_3
REMARK    3  A    between atoms: N_3  and  C_4
REMARK    4  A    between atoms: N_3  and  C_6
REMARK    5  A    between atoms: C_4  and  C_5
REMARK    6  A    between atoms: C_6  and  C_7
REMARK    7  A    between atoms: C_7  and  O_8
REMARK    8  A    between atoms: O_8  and  C_9
REMARK    9  A    between atoms: C_12  and  C_13
REMARK   10  A    between atoms: C_13  and  C_14
REMARK   11  A    between atoms: C_14  and  C_15
REMARK   12  A    between atoms: C_18  and  C_19
REMARK   13  A    between atoms: C_22  and  O_23
REMARK   14  A    between atoms: O_23  and  C_24
REMARK                            x       y       z     vdW  Elec       q    Type
REMARK                         _______ _______ _______ _____ _____    ______ ____
ROOT
ATOM      1  C   UNL     1       1.253   5.048  19.914  0.00  0.00    +0.000 C 
ENDROOT
BRANCH   1   5
ATOM      2  C   UNL     1       4.358   3.521  17.329  0.00  0.00    +0.000 A 
ATOM      3  C   UNL     1       3.053   3.704  16.867  0.00  0.00    +0.000 A 
ATOM      4  C   UNL     1       2.063   4.207  17.708  0.00  0.00    +0.000 A 
ATOM      5  C   UNL     1       2.362   4.547  19.028  0.00  0.00    +0.000 A 
ATOM      6  C   UNL     1       3.666   4.365  19.497  0.00  0.00    +0.000 A 
ATOM      7  C   UNL     1       4.659   3.856  18.652  0.00  0.00    +0.000 A 
BRANCH   2   8
ATOM      8  O   UNL     1       5.394   3.024  16.573  0.00  0.00    +0.000 OA
BRANCH   8   9
ATOM      9  C   UNL     1       5.819   3.898  15.518  0.00  0.00    +0.000 C 
BRANCH   9  10
ATOM     10  C   UNL     1       7.034   4.734  15.935  0.00  0.00    +0.000 C 
BRANCH  10  11
ATOM     11  N   UNL     1       6.730   6.174  16.112  0.00  0.00    +0.000 NA
BRANCH  11  13
ATOM     12  C   UNL     1       4.526   7.095  16.929  0.00  0.00    +0.000 C 
ATOM     13  C   UNL     1       5.309   6.416  15.810  0.00  0.00    +0.000 C 
ENDBRANCH  11  13
BRANCH  11  14
ATOM     14  C   UNL     1       7.178   6.733  17.397  0.00  0.00    +0.000 C 
ATOM     15  C   UNL     1       7.649   5.726  18.441  0.00  0.00    +0.000 C 
ENDBRANCH  11  14
ENDBRANCH  10  11
ENDBRANCH   9  10
ENDBRANCH   8   9
ENDBRANCH   2   8
ENDBRANCH   1   5
BRANCH   1  16
ATOM     16  C   UNL     1       1.809   5.935  21.027  0.00  0.00    +0.000 C 
BRANCH  16  17
ATOM     17  C   UNL     1       1.548   7.390  20.753  0.00  0.00    +0.000 A 
ATOM     18  C   UNL     1       0.955   8.196  21.713  0.00  0.00    +0.000 A 
ATOM     19  C   UNL     1       0.651   9.519  21.389  0.00  0.00    +0.000 A 
ATOM     20  C   UNL     1       0.944  10.035  20.118  0.00  0.00    +0.000 A 
ATOM     21  C   UNL     1       1.572   9.145  19.245  0.00  0.00    +0.000 A 
ATOM     22  N   UNL     1       1.868   7.851  19.522  0.00  0.00    +0.000 NA
BRANCH  20  23
ATOM     23  C   UNL     1       0.585  11.413  19.722  0.00  0.00    +0.000 A 
ATOM     24  C   UNL     1      -0.324  11.669  18.681  0.00  0.00    +0.000 A 
ATOM     25  C   UNL     1      -0.629  12.976  18.286  0.00  0.00    +0.000 A 
ATOM     26  C   UNL     1      -0.061  14.064  18.942  0.00  0.00    +0.000 A 
ATOM     27  C   UNL     1       0.845  13.840  19.973  0.00  0.00    +0.000 A 
ATOM     28  C   UNL     1       1.166  12.530  20.352  0.00  0.00    +0.000 A 
BRANCH  26  29
ATOM     29  O   UNL     1      -0.427  15.293  18.467  0.00  0.00    +0.000 OA
ATOM     30  C   UNL     1      -0.634  16.291  19.459  0.00  0.00    +0.000 C 
ENDBRANCH  26  29
ENDBRANCH  20  23
ENDBRANCH  16  17
ENDBRANCH   1  16
TORSDOF 11
ENDMDL
MODEL 4
REMARK VINA RESULT:      -6.7      3.375      5.086
REMARK  Name = 
REMARK  14 active torsions:
REMARK  status: ('A' for Active; 'I' for Inactive)
REMARK    1  A    between atoms: C_1  and  C_2
REMARK    2  A    between atoms: C_2  and  N_3
REMARK    3  A    between atoms: N_3  and  C_4
REMARK    4  A    between atoms: N_3  and  C_6
REMARK    5  A    between atoms: C_4  and  C_5
REMARK    6  A    between atoms: C_6  and  C_7
REMARK    7  A    between atoms: C_7  and  O_8
REMARK    8  A    between atoms: O_8  and  C_9
REMARK    9  A    between atoms: C_12  and  C_13
REMARK   10  A    between atoms: C_13  and  C_14
REMARK   11  A    between atoms: C_14  and  C_15
REMARK   12  A    between atoms: C_18  and  C_19
REMARK   13  A    between atoms: C_22  and  O_23
REMARK   14  A    between atoms: O_23  and  C_24
REMARK                            x       y       z     vdW  Elec       q    Type
REMARK                         _______ _______ _______ _____ _____    ______ ____
ROOT
ATOM      1  C   UNL     1       1.470   8.154  21.226  0.00  0.00    +0.000 C 
ENDROOT
BRANCH   1   5
ATOM      2  C   UNL     1       2.592   5.084  18.403  0.00  0.00    +0.000 A 
ATOM      3  C   UNL     1       2.057   4.761  19.652  0.00  0.00    +0.000 A 
ATOM      4  C   UNL     1       1.689   5.761  20.549  0.00  0.00    +0.000 A 
ATOM      5  C   UNL     1       1.841   7.107  20.210  0.00  0.00    +0.000 A 
ATOM      6  C   UNL     1       2.377   7.436  18.962  0.00  0.00    +0.000 A 
ATOM      7  C   UNL     1       2.750   6.430  18.063  0.00  0.00    +0.000 A 
BRANCH   2   8
ATOM      8  O   UNL     1       2.989   4.163  17.459  0.00  0.00    +0.000 OA
BRANCH   8   9
ATOM      9  C   UNL     1       4.398   3.892  17.465  0.00  0.00    +0.000 C 
BRANCH   9  10
ATOM     10  C   UNL     1       5.029   4.170  16.097  0.00  0.00    +0.000 C 
BRANCH  10  11
ATOM     11  N   UNL     1       6.411   4.701  16.180  0.00  0.00    +0.000 NA
BRANCH  11  13
ATOM     12  C   UNL     1       6.225   3.966  13.772  0.00  0.00    +0.000 C 
ATOM     13  C   UNL     1       7.004   4.736  14.833  0.00  0.00    +0.000 C 
ENDBRANCH  11  13
BRANCH  11  14
ATOM     14  C   UNL     1       6.530   5.965  16.925  0.00  0.00    +0.000 C 
ATOM     15  C   UNL     1       7.531   5.975  18.075  0.00  0.00    +0.000 C 
ENDBRANCH  11  14
ENDBRANCH  10  11
ENDBRANCH   9  10
ENDBRANCH   8   9
ENDBRANCH   2   8
ENDBRANCH   1   5
BRANCH   1  16
ATOM     16  C   UNL     1       0.159   8.838  20.842  0.00  0.00    +0.000 C 
BRANCH  16  17
ATOM     17  C   UNL     1       0.379  10.278  20.470  0.00  0.00    +0.000 A 
ATOM     18  C   UNL     1       0.427  11.263  21.446  0.00  0.00    +0.000 A 
ATOM     19  C   UNL     1       0.546  12.597  21.054  0.00  0.00    +0.000 A 
ATOM     20  C   UNL     1       0.623  12.945  19.697  0.00  0.00    +0.000 A 
ATOM     21  C   UNL     1       0.601  11.871  18.806  0.00  0.00    +0.000 A 
ATOM     22  N   UNL     1       0.472  10.566  19.152  0.00  0.00    +0.000 NA
BRANCH  20  23
ATOM     23  C   UNL     1       0.692  14.350  19.244  0.00  0.00    +0.000 A 
ATOM     24  C   UNL     1      -0.453  15.162  19.181  0.00  0.00    +0.000 A 
ATOM     25  C   UNL     1      -0.386  16.479  18.714  0.00  0.00    +0.000 A 
ATOM     26  C   UNL     1       0.831  17.033  18.328  0.00  0.00    +0.000 A 
ATOM     27  C   UNL     1       1.979  16.250  18.376  0.00  0.00    +0.000 A 
ATOM     28  C   UNL     1       1.907  14.924  18.824  0.00  0.00    +0.000 A 
BRANCH  26  29
ATOM     29  O   UNL     1       0.774  18.324  17.884  0.00  0.00    +0.000 OA
ATOM     30  C   UNL     1       0.958  18.492  16.483  0.00  0.00    +0.000 C 
ENDBRANCH  26  29
ENDBRANCH  20  23
ENDBRANCH  16  17
ENDBRANCH   1  16
TORSDOF 11
ENDMDL
MODEL 5
REMARK VINA RESULT:      -6.7      2.431      4.615
REMARK  Name = 
REMARK  14 active torsions:
REMARK  status: ('A' for Active; 'I' for Inactive)
REMARK    1  A    between atoms: C_1  and  C_2
REMARK    2  A    between atoms: C_2  and  N_3
REMARK    3  A    between atoms: N_3  and  C_4
REMARK    4  A    between atoms: N_3  and  C_6
REMARK    5  A    between atoms: C_4  and  C_5
REMARK    6  A    between atoms: C_6  and  C_7
REMARK    7  A    between atoms: C_7  and  O_8
REMARK    8  A    between atoms: O_8  and  C_9
REMARK    9  A    between atoms: C_12  and  C_13
REMARK   10  A    between atoms: C_13  and  C_14
REMARK   11  A    between atoms: C_14  and  C_15
REMARK   12  A    between atoms: C_18  and  C_19
REMARK   13  A    between atoms: C_22  and  O_23
REMARK   14  A    between atoms: O_23  and  C_24
REMARK                            x       y       z     vdW  Elec       q    Type
REMARK                         _______ _______ _______ _____ _____    ______ ____
ROOT
ATOM      1  C   UNL     1       1.172   7.623  21.240  0.00  0.00    +0.000 C 
ENDROOT
BRANCH   1   5
ATOM      2  C   UNL     1       2.693   4.388  18.816  0.00  0.00    +0.000 A 
ATOM      3  C   UNL     1       1.765   4.158  19.834  0.00  0.00    +0.000 A 
ATOM      4  C   UNL     1       1.275   5.211  20.602  0.00  0.00    +0.000 A 
ATOM      5  C   UNL     1       1.696   6.520  20.359  0.00  0.00    +0.000 A 
ATOM      6  C   UNL     1       2.625   6.756  19.342  0.00  0.00    +0.000 A 
ATOM      7  C   UNL     1       3.120   5.696  18.575  0.00  0.00    +0.000 A 
BRANCH   2   8
ATOM      8  O   UNL     1       3.235   3.409  18.015  0.00  0.00    +0.000 OA
BRANCH   8   9
ATOM      9  C   UNL     1       4.655   3.519  17.838  0.00  0.00    +0.000 C 
BRANCH   9  10
ATOM     10  C   UNL     1       5.016   3.872  16.391  0.00  0.00    +0.000 C 
BRANCH  10  11
ATOM     11  N   UNL     1       6.330   4.544  16.256  0.00  0.00    +0.000 NA
BRANCH  11  13
ATOM     12  C   UNL     1       5.821   4.035  13.836  0.00  0.00    +0.000 C 
ATOM     13  C   UNL     1       6.873   4.293  14.910  0.00  0.00    +0.000 C 
ENDBRANCH  11  13
BRANCH  11  14
ATOM     14  C   UNL     1       6.329   5.961  16.651  0.00  0.00    +0.000 C 
ATOM     15  C   UNL     1       5.159   6.799  16.147  0.00  0.00    +0.000 C 
ENDBRANCH  11  14
ENDBRANCH  10  11
ENDBRANCH   9  10
ENDBRANCH   8   9
ENDBRANCH   2   8
ENDBRANCH   1   5
BRANCH   1  16
ATOM     16  C   UNL     1       1.153   8.952  20.489  0.00  0.00    +0.000 C 
BRANCH  16  17
ATOM     17  C   UNL     1       0.427  10.014  21.266  0.00  0.00    +0.000 A 
ATOM     18  C   UNL     1      -0.182   9.715  22.476  0.00  0.00    +0.000 A 
ATOM     19  C   UNL     1      -0.919  10.708  23.123  0.00  0.00    +0.000 A 
ATOM     20  C   UNL     1      -1.040  11.991  22.571  0.00  0.00    +0.000 A 
ATOM     21  C   UNL     1      -0.357  12.189  21.370  0.00  0.00    +0.000 A 
ATOM     22  N   UNL     1       0.355  11.244  20.707  0.00  0.00    +0.000 NA
BRANCH  20  23
ATOM     23  C   UNL     1      -1.859  13.048  23.200  0.00  0.00    +0.000 A 
ATOM     24  C   UNL     1      -1.290  14.248  23.660  0.00  0.00    +0.000 A 
ATOM     25  C   UNL     1      -2.065  15.227  24.290  0.00  0.00    +0.000 A 
ATOM     26  C   UNL     1      -3.436  15.051  24.449  0.00  0.00    +0.000 A 
ATOM     27  C   UNL     1      -4.026  13.871  24.007  0.00  0.00    +0.000 A 
ATOM     28  C   UNL     1      -3.244  12.882  23.396  0.00  0.00    +0.000 A 
BRANCH  26  29
ATOM     29  O   UNL     1      -4.090  16.070  25.083  0.00  0.00    +0.000 OA
ATOM     30  C   UNL     1      -3.530  17.363  24.892  0.00  0.00    +0.000 C 
ENDBRANCH  26  29
ENDBRANCH  20  23
ENDBRANCH  16  17
ENDBRANCH   1  16
TORSDOF 11
ENDMDL
MODEL 6
REMARK VINA RESULT:      -6.6      2.556     11.525
REMARK  Name = 
REMARK  14 active torsions:
REMARK  status: ('A' for Active; 'I' for Inactive)
REMARK    1  A    between atoms: C_1  and  C_2
REMARK    2  A    between atoms: C_2  and  N_3
REMARK    3  A    between atoms: N_3  and  C_4
REMARK    4  A    between atoms: N_3  and  C_6
REMARK    5  A    between atoms: C_4  and  C_5
REMARK    6  A    between atoms: C_6  and  C_7
REMARK    7  A    between atoms: C_7  and  O_8
REMARK    8  A    between atoms: O_8  and  C_9
REMARK    9  A    between atoms: C_12  and  C_13
REMARK   10  A    between atoms: C_13  and  C_14
REMARK   11  A    between atoms: C_14  and  C_15
REMARK   12  A    between atoms: C_18  and  C_19
REMARK   13  A    between atoms: C_22  and  O_23
REMARK   14  A    between atoms: O_23  and  C_24
REMARK                            x       y       z     vdW  Elec       q    Type
REMARK                         _______ _______ _______ _____ _____    ______ ____
ROOT
ATOM      1  C   UNL     1       0.964   9.357  22.062  0.00  0.00    +0.000 C 
ENDROOT
BRANCH   1   5
ATOM      2  C   UNL     1      -1.875  12.610  21.954  0.00  0.00    +0.000 A 
ATOM      3  C   UNL     1      -0.965  12.405  20.914  0.00  0.00    +0.000 A 
ATOM      4  C   UNL     1      -0.062  11.346  20.956  0.00  0.00    +0.000 A 
ATOM      5  C   UNL     1      -0.057  10.463  22.037  0.00  0.00    +0.000 A 
ATOM      6  C   UNL     1      -0.964  10.663  23.081  0.00  0.00    +0.000 A 
ATOM      7  C   UNL     1      -1.869  11.730  23.039  0.00  0.00    +0.000 A 
BRANCH   2   8
ATOM      8  O   UNL     1      -2.795  13.632  21.999  0.00  0.00    +0.000 OA
BRANCH   8   9
ATOM      9  C   UNL     1      -3.550  13.792  20.789  0.00  0.00    +0.000 C 
BRANCH   9  10
ATOM     10  C   UNL     1      -4.501  12.614  20.559  0.00  0.00    +0.000 C 
BRANCH  10  11
ATOM     11  N   UNL     1      -5.153  12.631  19.227  0.00  0.00    +0.000 NA
BRANCH  11  13
ATOM     12  C   UNL     1      -3.242  11.418  18.109  0.00  0.00    +0.000 C 
ATOM     13  C   UNL     1      -4.727  11.450  18.458  0.00  0.00    +0.000 C 
ENDBRANCH  11  13
BRANCH  11  14
ATOM     14  C   UNL     1      -6.610  12.830  19.269  0.00  0.00    +0.000 C 
ATOM     15  C   UNL     1      -7.403  11.820  20.092  0.00  0.00    +0.000 C 
ENDBRANCH  11  14
ENDBRANCH  10  11
ENDBRANCH   9  10
ENDBRANCH   8   9
ENDBRANCH   2   8
ENDBRANCH   1   5
BRANCH   1  16
ATOM     16  C   UNL     1       0.423   8.107  21.371  0.00  0.00    +0.000 C 
BRANCH  16  17
ATOM     17  C   UNL     1       1.417   7.544  20.394  0.00  0.00    +0.000 A 
ATOM     18  C   UNL     1       1.766   8.249  19.253  0.00  0.00    +0.000 A 
ATOM     19  C   UNL     1       2.626   7.654  18.328  0.00  0.00    +0.000 A 
ATOM     20  C   UNL     1       3.138   6.367  18.545  0.00  0.00    +0.000 A 
ATOM     21  C   UNL     1       2.748   5.766  19.743  0.00  0.00    +0.000 A 
ATOM     22  N   UNL     1       1.904   6.309  20.655  0.00  0.00    +0.000 NA
BRANCH  20  23
ATOM     23  C   UNL     1       4.004   5.684  17.561  0.00  0.00    +0.000 A 
ATOM     24  C   UNL     1       4.789   6.403  16.644  0.00  0.00    +0.000 A 
ATOM     25  C   UNL     1       5.576   5.750  15.690  0.00  0.00    +0.000 A 
ATOM     26  C   UNL     1       5.628   4.360  15.646  0.00  0.00    +0.000 A 
ATOM     27  C   UNL     1       4.857   3.623  16.539  0.00  0.00    +0.000 A 
ATOM     28  C   UNL     1       4.053   4.279  17.480  0.00  0.00    +0.000 A 
BRANCH  26  29
ATOM     29  O   UNL     1       6.425   3.832  14.669  0.00  0.00    +0.000 OA
ATOM     30  C   UNL     1       6.933   4.769  13.727  0.00  0.00    +0.000 C 
ENDBRANCH  26  29
ENDBRANCH  20  23
ENDBRANCH  16  17
ENDBRANCH   1  16
TORSDOF 11
ENDMDL
MODEL 7
REMARK VINA RESULT:      -6.6      1.782      2.657
REMARK  Name = 
REMARK  14 active torsions:
REMARK  status: ('A' for Active; 'I' for Inactive)
REMARK    1  A    between atoms: C_1  and  C_2
REMARK    2  A    between atoms: C_2  and  N_3
REMARK    3  A    between atoms: N_3  and  C_4
REMARK    4  A    between atoms: N_3  and  C_6
REMARK    5  A    between atoms: C_4  and  C_5
REMARK    6  A    between atoms: C_6  and  C_7
REMARK    7  A    between atoms: C_7  and  O_8
REMARK    8  A    between atoms: O_8  and  C_9
REMARK    9  A    between atoms: C_12  and  C_13
REMARK   10  A    between atoms: C_13  and  C_14
REMARK   11  A    between atoms: C_14  and  C_15
REMARK   12  A    between atoms: C_18  and  C_19
REMARK   13  A    between atoms: C_22  and  O_23
REMARK   14  A    between atoms: O_23  and  C_24
REMARK                            x       y       z     vdW  Elec       q    Type
REMARK                         _______ _______ _______ _____ _____    ______ ____
ROOT
ATOM      1  C   UNL     1       3.987   5.347  19.523  0.00  0.00    +0.000 C 
ENDROOT
BRANCH   1   5
ATOM      2  C   UNL     1       5.832   4.932  15.640  0.00  0.00    +0.000 A 
ATOM      3  C   UNL     1       4.824   4.063  16.061  0.00  0.00    +0.000 A 
ATOM      4  C   UNL     1       4.230   4.214  17.312  0.00  0.00    +0.000 A 
ATOM      5  C   UNL     1       4.627   5.247  18.164  0.00  0.00    +0.000 A 
ATOM      6  C   UNL     1       5.636   6.119  17.748  0.00  0.00    +0.000 A 
ATOM      7  C   UNL     1       6.235   5.963  16.493  0.00  0.00    +0.000 A 
BRANCH   2   8
ATOM      8  O   UNL     1       6.479   4.853  14.427  0.00  0.00    +0.000 OA
BRANCH   8   9
ATOM      9  C   UNL     1       6.164   3.673  13.674  0.00  0.00    +0.000 C 
BRANCH   9  10
ATOM     10  C   UNL     1       6.359   3.897  12.171  0.00  0.00    +0.000 C 
BRANCH  10  11
ATOM     11  N   UNL     1       5.451   3.082  11.328  0.00  0.00    +0.000 NA
BRANCH  11  13
ATOM     12  C   UNL     1       7.173   1.257  11.049  0.00  0.00    +0.000 C 
ATOM     13  C   UNL     1       5.771   1.655  11.500  0.00  0.00    +0.000 C 
ENDBRANCH  11  13
BRANCH  11  14
ATOM     14  C   UNL     1       4.024   3.403  11.490  0.00  0.00    +0.000 C 
ATOM     15  C   UNL     1       3.281   3.818  10.224  0.00  0.00    +0.000 C 
ENDBRANCH  11  14
ENDBRANCH  10  11
ENDBRANCH   9  10
ENDBRANCH   8   9
ENDBRANCH   2   8
ENDBRANCH   1   5
BRANCH   1  16
ATOM     16  C   UNL     1       2.482   5.573  19.396  0.00  0.00    +0.000 C 
BRANCH  16  17
ATOM     17  C   UNL     1       2.143   7.037  19.392  0.00  0.00    +0.000 A 
ATOM     18  C   UNL     1       1.652   7.654  20.532  0.00  0.00    +0.000 A 
ATOM     19  C   UNL     1       1.268   8.994  20.462  0.00  0.00    +0.000 A 
ATOM     20  C   UNL     1       1.381   9.714  19.264  0.00  0.00    +0.000 A 
ATOM     21  C   UNL     1       1.921   9.004  18.192  0.00  0.00    +0.000 A 
ATOM     22  N   UNL     1       2.290   7.699  18.221  0.00  0.00    +0.000 NA
BRANCH  20  23
ATOM     23  C   UNL     1       0.931  11.117  19.140  0.00  0.00    +0.000 A 
ATOM     24  C   UNL     1      -0.370  11.509  19.495  0.00  0.00    +0.000 A 
ATOM     25  C   UNL     1      -0.801  12.831  19.337  0.00  0.00    +0.000 A 
ATOM     26  C   UNL     1       0.067  13.805  18.852  0.00  0.00    +0.000 A 
ATOM     27  C   UNL     1       1.360  13.444  18.488  0.00  0.00    +0.000 A 
ATOM     28  C   UNL     1       1.782  12.115  18.626  0.00  0.00    +0.000 A 
BRANCH  26  29
ATOM     29  O   UNL     1      -0.464  15.059  18.735  0.00  0.00    +0.000 OA
ATOM     30  C   UNL     1       0.485  16.109  18.591  0.00  0.00    +0.000 C 
ENDBRANCH  26  29
ENDBRANCH  20  23
ENDBRANCH  16  17
ENDBRANCH   1  16
TORSDOF 11
ENDMDL
MODEL 8
REMARK VINA RESULT:      -6.5      3.885      5.251
REMARK  Name = 
REMARK  14 active torsions:
REMARK  status: ('A' for Active; 'I' for Inactive)
REMARK    1  A    between atoms: C_1  and  C_2
REMARK    2  A    between atoms: C_2  and  N_3
REMARK    3  A    between atoms: N_3  and  C_4
REMARK    4  A    between atoms: N_3  and  C_6
REMARK    5  A    between atoms: C_4  and  C_5
REMARK    6  A    between atoms: C_6  and  C_7
REMARK    7  A    between atoms: C_7  and  O_8
REMARK    8  A    between atoms: O_8  and  C_9
REMARK    9  A    between atoms: C_12  and  C_13
REMARK   10  A    between atoms: C_13  and  C_14
REMARK   11  A    between atoms: C_14  and  C_15
REMARK   12  A    between atoms: C_18  and  C_19
REMARK   13  A    between atoms: C_22  and  O_23
REMARK   14  A    between atoms: O_23  and  C_24
REMARK                            x       y       z     vdW  Elec       q    Type
REMARK                         _______ _______ _______ _____ _____    ______ ____
ROOT
ATOM      1  C   UNL     1       1.631   8.408  17.781  0.00  0.00    +0.000 C 
ENDROOT
BRANCH   1   5
ATOM      2  C   UNL     1       4.701   5.519  18.722  0.00  0.00    +0.000 A 
ATOM      3  C   UNL     1       4.682   6.185  17.494  0.00  0.00    +0.000 A 
ATOM      4  C   UNL     1       3.692   7.121  17.207  0.00  0.00    +0.000 A 
ATOM      5  C   UNL     1       2.705   7.420  18.149  0.00  0.00    +0.000 A 
ATOM      6  C   UNL     1       2.719   6.756  19.379  0.00  0.00    +0.000 A 
ATOM      7  C   UNL     1       3.711   5.812  19.664  0.00  0.00    +0.000 A 
BRANCH   2   8
ATOM      8  O   UNL     1       5.634   4.575  19.087  0.00  0.00    +0.000 OA
BRANCH   8   9
ATOM      9  C   UNL     1       5.079   3.438  19.763  0.00  0.00    +0.000 C 
BRANCH   9  10
ATOM     10  C   UNL     1       4.088   2.681  18.873  0.00  0.00    +0.000 C 
BRANCH  10  11
ATOM     11  N   UNL     1       2.812   2.353  19.553  0.00  0.00    +0.000 NA
BRANCH  11  13
ATOM     12  C   UNL     1       1.857   3.084  21.772  0.00  0.00    +0.000 C 
ATOM     13  C   UNL     1       3.002   2.423  21.011  0.00  0.00    +0.000 C 
ENDBRANCH  11  13
BRANCH  11  14
ATOM     14  C   UNL     1       1.651   3.109  19.058  0.00  0.00    +0.000 C 
ATOM     15  C   UNL     1       0.449   2.281  18.616  0.00  0.00    +0.000 C 
ENDBRANCH  11  14
ENDBRANCH  10  11
ENDBRANCH   9  10
ENDBRANCH   8   9
ENDBRANCH   2   8
ENDBRANCH   1   5
BRANCH   1  16
ATOM     16  C   UNL     1       2.028   9.820  18.207  0.00  0.00    +0.000 C 
BRANCH  16  17
ATOM     17  C   UNL     1       1.019  10.413  19.151  0.00  0.00    +0.000 A 
ATOM     18  C   UNL     1       0.826   9.874  20.414  0.00  0.00    +0.000 A 
ATOM     19  C   UNL     1      -0.179  10.399  21.227  0.00  0.00    +0.000 A 
ATOM     20  C   UNL     1      -0.981  11.461  20.784  0.00  0.00    +0.000 A 
ATOM     21  C   UNL     1      -0.675  11.948  19.513  0.00  0.00    +0.000 A 
ATOM     22  N   UNL     1       0.284  11.452  18.692  0.00  0.00    +0.000 NA
BRANCH  20  23
ATOM     23  C   UNL     1      -2.091  12.004  21.595  0.00  0.00    +0.000 A 
ATOM     24  C   UNL     1      -3.111  12.783  21.023  0.00  0.00    +0.000 A 
ATOM     25  C   UNL     1      -4.137  13.326  21.804  0.00  0.00    +0.000 A 
ATOM     26  C   UNL     1      -4.192  13.079  23.172  0.00  0.00    +0.000 A 
ATOM     27  C   UNL     1      -3.193  12.315  23.766  0.00  0.00    +0.000 A 
ATOM     28  C   UNL     1      -2.154  11.790  22.986  0.00  0.00    +0.000 A 
BRANCH  26  29
ATOM     29  O   UNL     1      -5.235  13.665  23.834  0.00  0.00    +0.000 OA
ATOM     30  C   UNL     1      -6.385  12.845  24.003  0.00  0.00    +0.000 C 
ENDBRANCH  26  29
ENDBRANCH  20  23
ENDBRANCH  16  17
ENDBRANCH   1  16
TORSDOF 11
ENDMDL
MODEL 9
REMARK VINA RESULT:      -6.5      2.648      4.860
REMARK  Name = 
REMARK  14 active torsions:
REMARK  status: ('A' for Active; 'I' for Inactive)
REMARK    1  A    between atoms: C_1  and  C_2
REMARK    2  A    between atoms: C_2  and  N_3
REMARK    3  A    between atoms: N_3  and  C_4
REMARK    4  A    between atoms: N_3  and  C_6
REMARK    5  A    between atoms: C_4  and  C_5
REMARK    6  A    between atoms: C_6  and  C_7
REMARK    7  A    between atoms: C_7  and  O_8
REMARK    8  A    between atoms: O_8  and  C_9
REMARK    9  A    between atoms: C_12  and  C_13
REMARK   10  A    between atoms: C_13  and  C_14
REMARK   11  A    between atoms: C_14  and  C_15
REMARK   12  A    between atoms: C_18  and  C_19
REMARK   13  A    between atoms: C_22  and  O_23
REMARK   14  A    between atoms: O_23  and  C_24
REMARK                            x       y       z     vdW  Elec       q    Type
REMARK                         _______ _______ _______ _____ _____    ______ ____
ROOT
ATOM      1  C   UNL     1       0.989   8.474  20.288  0.00  0.00    +0.000 C 
ENDROOT
BRANCH   1   5
ATOM      2  C   UNL     1       3.215   4.869  19.453  0.00  0.00    +0.000 A 
ATOM      3  C   UNL     1       2.320   4.938  20.522  0.00  0.00    +0.000 A 
ATOM      4  C   UNL     1       1.601   6.103  20.775  0.00  0.00    +0.000 A 
ATOM      5  C   UNL     1       1.755   7.222  19.954  0.00  0.00    +0.000 A 
ATOM      6  C   UNL     1       2.650   7.159  18.883  0.00  0.00    +0.000 A 
ATOM      7  C   UNL     1       3.376   5.989  18.633  0.00  0.00    +0.000 A 
BRANCH   2   8
ATOM      8  O   UNL     1       3.972   3.764  19.135  0.00  0.00    +0.000 OA
BRANCH   8   9
ATOM      9  C   UNL     1       5.306   4.073  18.708  0.00  0.00    +0.000 C 
BRANCH   9  10
ATOM     10  C   UNL     1       5.477   3.865  17.200  0.00  0.00    +0.000 C 
BRANCH  10  11
ATOM     11  N   UNL     1       6.673   4.541  16.641  0.00  0.00    +0.000 NA
BRANCH  11  13
ATOM     12  C   UNL     1       6.532   4.423  14.123  0.00  0.00    +0.000 C 
ATOM     13  C   UNL     1       6.306   5.234  15.394  0.00  0.00    +0.000 C 
ENDBRANCH  11  13
BRANCH  11  14
ATOM     14  C   UNL     1       7.400   5.380  17.606  0.00  0.00    +0.000 C 
ATOM     15  C   UNL     1       7.361   6.883  17.354  0.00  0.00    +0.000 C 
ENDBRANCH  11  14
ENDBRANCH  10  11
ENDBRANCH   9  10
ENDBRANCH   8   9
ENDBRANCH   2   8
ENDBRANCH   1   5
BRANCH   1  16
ATOM     16  C   UNL     1       1.375   8.990  21.673  0.00  0.00    +0.000 C 
BRANCH  16  17
ATOM     17  C   UNL     1       0.428  10.057  22.147  0.00  0.00    +0.000 A 
ATOM     18  C   UNL     1      -0.553   9.770  23.084  0.00  0.00    +0.000 A 
ATOM     19  C   UNL     1      -1.466  10.766  23.432  0.00  0.00    +0.000 A 
ATOM     20  C   UNL     1      -1.396  12.042  22.855  0.00  0.00    +0.000 A 
ATOM     21  C   UNL     1      -0.347  12.229  21.953  0.00  0.00    +0.000 A 
ATOM     22  N   UNL     1       0.547  11.280  21.581  0.00  0.00    +0.000 NA
BRANCH  20  23
ATOM     23  C   UNL     1      -2.380  13.102  23.158  0.00  0.00    +0.000 A 
ATOM     24  C   UNL     1      -2.031  14.244  23.898  0.00  0.00    +0.000 A 
ATOM     25  C   UNL     1      -2.978  15.224  24.215  0.00  0.00    +0.000 A 
ATOM     26  C   UNL     1      -4.292  15.108  23.771  0.00  0.00    +0.000 A 
ATOM     27  C   UNL     1      -4.666  13.986  23.039  0.00  0.00    +0.000 A 
ATOM     28  C   UNL     1      -3.721  12.995  22.743  0.00  0.00    +0.000 A 
BRANCH  26  29
ATOM     29  O   UNL     1      -5.130  16.122  24.145  0.00  0.00    +0.000 OA
ATOM     30  C   UNL     1      -4.556  17.097  25.007  0.00  0.00    +0.000 C 
ENDBRANCH  26  29
ENDBRANCH  20  23
ENDBRANCH  16  17
ENDBRANCH   1  16
TORSDOF 11
ENDMDL
