MODEL 1
REMARK VINA RESULT:      -8.2      0.000      0.000
REMARK  Name = 
REMARK  7 active torsions:
REMARK  status: ('A' for Active; 'I' for Inactive)
REMARK    1  A    between atoms: C_2  and  O_3
REMARK    2  A    between atoms: C_2  and  C_4
REMARK    3  A    between atoms: C_6  and  N_7
REMARK    4  A    between atoms: N_7  and  S_8
REMARK    5  A    between atoms: S_8  and  C_11
REMARK    6  A    between atoms: C_13  and  N_14
REMARK    7  A    between atoms: C_23  and  O_24
REMARK                            x       y       z     vdW  Elec       q    Type
REMARK                         _______ _______ _______ _____ _____    ______ ____
ROOT
ATOM      1  N   UNL     1       4.203   2.861  18.238  0.00  0.00    +0.000 N 
ATOM      2  H   UNL     1       4.487   2.359  19.079  0.00  0.00    +0.000 HD
ENDROOT
BRANCH   1   5
ATOM      3  C   UNL     1       6.854   5.430  18.018  0.00  0.00    +0.000 A 
ATOM      4  C   UNL     1       5.930   4.516  18.537  0.00  0.00    +0.000 A 
ATOM      5  C   UNL     1       5.071   3.833  17.682  0.00  0.00    +0.000 A 
ATOM      6  C   UNL     1       5.087   4.088  16.311  0.00  0.00    +0.000 A 
ATOM      7  C   UNL     1       6.004   5.005  15.784  0.00  0.00    +0.000 A 
ATOM      8  C   UNL     1       6.895   5.658  16.637  0.00  0.00    +0.000 A 
BRANCH   3  10
ATOM      9  O   UNL     1       8.278   7.184  18.743  0.00  0.00    +0.000 OA
ATOM     10  C   UNL     1       7.745   6.114  18.991  0.00  0.00    +0.000 C 
BRANCH  10  11
ATOM     11  O   UNL     1       7.834   5.506  20.189  0.00  0.00    +0.000 OA
ATOM     12  H   UNL     1       8.762   5.426  20.501  0.00  0.00    +0.000 HD
ENDBRANCH  10  11
ENDBRANCH   3  10
BRANCH   8  13
ATOM     13  O   UNL     1       7.833   6.508  16.119  0.00  0.00    +0.000 OA
ATOM     14  H   UNL     1       8.414   6.009  15.512  0.00  0.00    +0.000 HD
ENDBRANCH   8  13
ENDBRANCH   1   5
BRANCH   1  15
ATOM     15  S   UNL     1       2.537   3.097  18.143  0.00  0.00    +0.000 S 
ATOM     16  O   UNL     1       2.198   3.247  16.745  0.00  0.00    +0.000 OA
ATOM     17  O   UNL     1       1.904   2.075  18.943  0.00  0.00    +0.000 OA
BRANCH  15  18
ATOM     18  C   UNL     1       2.261   4.662  18.937  0.00  0.00    +0.000 A 
ATOM     19  C   UNL     1       2.321   5.821  18.142  0.00  0.00    +0.000 A 
ATOM     20  C   UNL     1       2.138   7.080  18.732  0.00  0.00    +0.000 A 
ATOM     21  C   UNL     1       1.893   7.189  20.103  0.00  0.00    +0.000 A 
ATOM     22  C   UNL     1       1.833   6.030  20.886  0.00  0.00    +0.000 A 
ATOM     23  C   UNL     1       2.021   4.762  20.311  0.00  0.00    +0.000 A 
ATOM     24 CL   UNL     1       1.906   3.408  21.373  0.00  0.00    +0.000 Cl
BRANCH  20  25
ATOM     25  N   UNL     1       2.209   8.292  17.904  0.00  0.00    +0.000 N 
ATOM     26  O   UNL     1       1.347   9.163  18.086  0.00  0.00    +0.000 OA
ATOM     27  O   UNL     1       3.126   8.370  17.075  0.00  0.00    +0.000 OA
ENDBRANCH  20  25
ENDBRANCH  15  18
ENDBRANCH   1  15
TORSDOF 7
ENDMDL
MODEL 2
REMARK VINA RESULT:      -8.1      1.019      2.165
REMARK  Name = 
REMARK  7 active torsions:
REMARK  status: ('A' for Active; 'I' for Inactive)
REMARK    1  A    between atoms: C_2  and  O_3
REMARK    2  A    between atoms: C_2  and  C_4
REMARK    3  A    between atoms: C_6  and  N_7
REMARK    4  A    between atoms: N_7  and  S_8
REMARK    5  A    between atoms: S_8  and  C_11
REMARK    6  A    between atoms: C_13  and  N_14
REMARK    7  A    between atoms: C_23  and  O_24
REMARK                            x       y       z     vdW  Elec       q    Type
REMARK                         _______ _______ _______ _____ _____    ______ ____
ROOT
ATOM      1  N   UNL     1       4.259   2.820  18.364  0.00  0.00    +0.000 N 
ATOM      2  H   UNL     1       4.467   2.261  19.191  0.00  0.00    +0.000 HD
ENDROOT
BRANCH   1   5
ATOM      3  C   UNL     1       6.476   4.760  16.128  0.00  0.00    +0.000 A 
ATOM      4  C   UNL     1       5.617   3.766  16.612  0.00  0.00    +0.000 A 
ATOM      5  C   UNL     1       5.188   3.799  17.934  0.00  0.00    +0.000 A 
ATOM      6  C   UNL     1       5.648   4.789  18.802  0.00  0.00    +0.000 A 
ATOM      7  C   UNL     1       6.512   5.783  18.330  0.00  0.00    +0.000 A 
ATOM      8  C   UNL     1       6.907   5.775  16.991  0.00  0.00    +0.000 A 
BRANCH   3  10
ATOM      9  O   UNL     1       7.712   5.413  14.212  0.00  0.00    +0.000 OA
ATOM     10  C   UNL     1       6.884   4.664  14.703  0.00  0.00    +0.000 C 
BRANCH  10  11
ATOM     11  O   UNL     1       6.338   3.629  14.035  0.00  0.00    +0.000 OA
ATOM     12  H   UNL     1       6.445   2.777  14.512  0.00  0.00    +0.000 HD
ENDBRANCH  10  11
ENDBRANCH   3  10
BRANCH   8  13
ATOM     13  O   UNL     1       7.703   6.779  16.510  0.00  0.00    +0.000 OA
ATOM     14  H   UNL     1       7.286   7.639  16.713  0.00  0.00    +0.000 HD
ENDBRANCH   8  13
ENDBRANCH   1   5
BRANCH   1  15
ATOM     15  S   UNL     1       2.610   3.107  18.162  0.00  0.00    +0.000 S 
ATOM     16  O   UNL     1       2.374   3.309  16.750  0.00  0.00    +0.000 OA
ATOM     17  O   UNL     1       1.896   2.080  18.883  0.00  0.00    +0.000 OA
BRANCH  15  18
ATOM     18  C   UNL     1       2.321   4.654  18.986  0.00  0.00    +0.000 A 
ATOM     19  C   UNL     1       2.346   5.826  18.208  0.00  0.00    +0.000 A 
ATOM     20  C   UNL     1       2.151   7.072  18.821  0.00  0.00    +0.000 A 
ATOM     21  C   UNL     1       1.930   7.155  20.198  0.00  0.00    +0.000 A 
ATOM     22  C   UNL     1       1.905   5.984  20.963  0.00  0.00    +0.000 A 
ATOM     23  C   UNL     1       2.105   4.728  20.365  0.00  0.00    +0.000 A 
ATOM     24 CL   UNL     1       2.034   3.356  21.407  0.00  0.00    +0.000 Cl
BRANCH  20  25
ATOM     25  N   UNL     1       2.185   8.299  18.011  0.00  0.00    +0.000 N 
ATOM     26  O   UNL     1       1.462   9.240  18.365  0.00  0.00    +0.000 OA
ATOM     27  O   UNL     1       2.935   8.317  17.025  0.00  0.00    +0.000 OA
ENDBRANCH  20  25
ENDBRANCH  15  18
ENDBRANCH   1  15
TORSDOF 7
ENDMDL
MODEL 3
REMARK VINA RESULT:      -7.7      0.677      1.013
REMARK  Name = 
REMARK  7 active torsions:
REMARK  status: ('A' for Active; 'I' for Inactive)
REMARK    1  A    between atoms: C_2  and  O_3
REMARK    2  A    between atoms: C_2  and  C_4
REMARK    3  A    between atoms: C_6  and  N_7
REMARK    4  A    between atoms: N_7  and  S_8
REMARK    5  A    between atoms: S_8  and  C_11
REMARK    6  A    between atoms: C_13  and  N_14
REMARK    7  A    between atoms: C_23  and  O_24
REMARK                            x       y       z     vdW  Elec       q    Type
REMARK                         _______ _______ _______ _____ _____    ______ ____
ROOT
ATOM      1  N   UNL     1       4.219   2.947  18.204  0.00  0.00    +0.000 N 
ATOM      2  H   UNL     1       4.537   2.714  19.144  0.00  0.00    +0.000 HD
ENDROOT
BRANCH   1   5
ATOM      3  C   UNL     1       6.699   5.450  17.081  0.00  0.00    +0.000 A 
ATOM      4  C   UNL     1       5.791   4.745  17.879  0.00  0.00    +0.000 A 
ATOM      5  C   UNL     1       5.070   3.683  17.343  0.00  0.00    +0.000 A 
ATOM      6  C   UNL     1       5.205   3.344  15.997  0.00  0.00    +0.000 A 
ATOM      7  C   UNL     1       6.105   4.048  15.189  0.00  0.00    +0.000 A 
ATOM      8  C   UNL     1       6.862   5.085  15.739  0.00  0.00    +0.000 A 
BRANCH   3  10
ATOM      9  O   UNL     1       8.024   6.430  18.787  0.00  0.00    +0.000 OA
ATOM     10  C   UNL     1       7.439   6.566  17.725  0.00  0.00    +0.000 C 
BRANCH  10  11
ATOM     11  O   UNL     1       7.488   7.697  16.995  0.00  0.00    +0.000 OA
ATOM     12  H   UNL     1       7.508   7.518  16.029  0.00  0.00    +0.000 HD
ENDBRANCH  10  11
ENDBRANCH   3  10
BRANCH   8  13
ATOM     13  O   UNL     1       7.787   5.734  14.968  0.00  0.00    +0.000 OA
ATOM     14  H   UNL     1       7.626   5.519  14.029  0.00  0.00    +0.000 HD
ENDBRANCH   8  13
ENDBRANCH   1   5
BRANCH   1  15
ATOM     15  S   UNL     1       2.553   3.189  18.115  0.00  0.00    +0.000 S 
ATOM     16  O   UNL     1       2.215   3.384  16.723  0.00  0.00    +0.000 OA
ATOM     17  O   UNL     1       1.918   2.143  18.881  0.00  0.00    +0.000 OA
BRANCH  15  18
ATOM     18  C   UNL     1       2.278   4.728  18.959  0.00  0.00    +0.000 A 
ATOM     19  C   UNL     1       2.358   5.912  18.205  0.00  0.00    +0.000 A 
ATOM     20  C   UNL     1       2.177   7.152  18.835  0.00  0.00    +0.000 A 
ATOM     21  C   UNL     1       1.914   7.216  20.206  0.00  0.00    +0.000 A 
ATOM     22  C   UNL     1       1.834   6.032  20.948  0.00  0.00    +0.000 A 
ATOM     23  C   UNL     1       2.019   4.782  20.332  0.00  0.00    +0.000 A 
ATOM     24 CL   UNL     1       1.880   3.394  21.345  0.00  0.00    +0.000 Cl
BRANCH  20  25
ATOM     25  N   UNL     1       2.269   8.392  18.051  0.00  0.00    +0.000 N 
ATOM     26  O   UNL     1       1.642   9.378  18.461  0.00  0.00    +0.000 OA
ATOM     27  O   UNL     1       2.969   8.376  17.029  0.00  0.00    +0.000 OA
ENDBRANCH  20  25
ENDBRANCH  15  18
ENDBRANCH   1  15
TORSDOF 7
ENDMDL
MODEL 4
REMARK VINA RESULT:      -7.7      2.455      5.979
REMARK  Name = 
REMARK  7 active torsions:
REMARK  status: ('A' for Active; 'I' for Inactive)
REMARK    1  A    between atoms: C_2  and  O_3
REMARK    2  A    between atoms: C_2  and  C_4
REMARK    3  A    between atoms: C_6  and  N_7
REMARK    4  A    between atoms: N_7  and  S_8
REMARK    5  A    between atoms: S_8  and  C_11
REMARK    6  A    between atoms: C_13  and  N_14
REMARK    7  A    between atoms: C_23  and  O_24
REMARK                            x       y       z     vdW  Elec       q    Type
REMARK                         _______ _______ _______ _____ _____    ______ ____
ROOT
ATOM      1  N   UNL     1       2.551   6.077  20.624  0.00  0.00    +0.000 N 
ATOM      2  H   UNL     1       2.383   6.010  21.628  0.00  0.00    +0.000 HD
ENDROOT
BRANCH   1   5
ATOM      3  C   UNL     1       1.010   9.376  19.978  0.00  0.00    +0.000 A 
ATOM      4  C   UNL     1       1.398   8.194  20.618  0.00  0.00    +0.000 A 
ATOM      5  C   UNL     1       2.110   7.224  19.920  0.00  0.00    +0.000 A 
ATOM      6  C   UNL     1       2.399   7.397  18.567  0.00  0.00    +0.000 A 
ATOM      7  C   UNL     1       2.009   8.573  17.916  0.00  0.00    +0.000 A 
ATOM      8  C   UNL     1       1.333   9.565  18.629  0.00  0.00    +0.000 A 
BRANCH   3  10
ATOM      9  O   UNL     1      -0.785  10.867  20.406  0.00  0.00    +0.000 OA
ATOM     10  C   UNL     1       0.261  10.369  20.790  0.00  0.00    +0.000 C 
BRANCH  10  11
ATOM     11  O   UNL     1       0.781  10.596  22.012  0.00  0.00    +0.000 OA
ATOM     12  H   UNL     1       1.676  10.205  22.116  0.00  0.00    +0.000 HD
ENDBRANCH  10  11
ENDBRANCH   3  10
BRANCH   8  13
ATOM     13  O   UNL     1       1.005  10.741  18.012  0.00  0.00    +0.000 OA
ATOM     14  H   UNL     1       0.248  11.144  18.479  0.00  0.00    +0.000 HD
ENDBRANCH   8  13
ENDBRANCH   1   5
BRANCH   1  15
ATOM     15  S   UNL     1       2.522   4.578  19.853  0.00  0.00    +0.000 S 
ATOM     16  O   UNL     1       2.633   3.561  20.874  0.00  0.00    +0.000 OA
ATOM     17  O   UNL     1       1.404   4.578  18.939  0.00  0.00    +0.000 OA
BRANCH  15  18
ATOM     18  C   UNL     1       4.015   4.543  18.890  0.00  0.00    +0.000 A 
ATOM     19  C   UNL     1       5.162   5.146  19.435  0.00  0.00    +0.000 A 
ATOM     20  C   UNL     1       6.355   5.167  18.699  0.00  0.00    +0.000 A 
ATOM     21  C   UNL     1       6.410   4.589  17.428  0.00  0.00    +0.000 A 
ATOM     22  C   UNL     1       5.265   3.989  16.894  0.00  0.00    +0.000 A 
ATOM     23  C   UNL     1       4.060   3.965  17.618  0.00  0.00    +0.000 A 
ATOM     24 CL   UNL     1       2.722   3.182  16.863  0.00  0.00    +0.000 Cl
BRANCH  20  25
ATOM     25  N   UNL     1       7.553   5.805  19.263  0.00  0.00    +0.000 N 
ATOM     26  O   UNL     1       7.981   5.369  20.341  0.00  0.00    +0.000 OA
ATOM     27  O   UNL     1       8.060   6.740  18.629  0.00  0.00    +0.000 OA
ENDBRANCH  20  25
ENDBRANCH  15  18
ENDBRANCH   1  15
TORSDOF 7
ENDMDL
MODEL 5
REMARK VINA RESULT:      -7.7      2.472      5.995
REMARK  Name = 
REMARK  7 active torsions:
REMARK  status: ('A' for Active; 'I' for Inactive)
REMARK    1  A    between atoms: C_2  and  O_3
REMARK    2  A    between atoms: C_2  and  C_4
REMARK    3  A    between atoms: C_6  and  N_7
REMARK    4  A    between atoms: N_7  and  S_8
REMARK    5  A    between atoms: S_8  and  C_11
REMARK    6  A    between atoms: C_13  and  N_14
REMARK    7  A    between atoms: C_23  and  O_24
REMARK                            x       y       z     vdW  Elec       q    Type
REMARK                         _______ _______ _______ _____ _____    ______ ____
ROOT
ATOM      1  N   UNL     1       2.964   6.293  20.247  0.00  0.00    +0.000 N 
ATOM      2  H   UNL     1       3.109   6.262  21.256  0.00  0.00    +0.000 HD
ENDROOT
BRANCH   1   5
ATOM      3  C   UNL     1       0.963   9.393  19.994  0.00  0.00    +0.000 A 
ATOM      4  C   UNL     1       1.568   8.241  20.509  0.00  0.00    +0.000 A 
ATOM      5  C   UNL     1       2.304   7.407  19.673  0.00  0.00    +0.000 A 
ATOM      6  C   UNL     1       2.402   7.682  18.309  0.00  0.00    +0.000 A 
ATOM      7  C   UNL     1       1.793   8.827  17.784  0.00  0.00    +0.000 A 
ATOM      8  C   UNL     1       1.093   9.688  18.631  0.00  0.00    +0.000 A 
BRANCH   3  10
ATOM      9  O   UNL     1       0.653  10.559  22.037  0.00  0.00    +0.000 OA
ATOM     10  C   UNL     1       0.202  10.240  20.949  0.00  0.00    +0.000 C 
BRANCH  10  11
ATOM     11  O   UNL     1      -0.973  10.696  20.474  0.00  0.00    +0.000 OA
ATOM     12  H   UNL     1      -1.576  10.993  21.191  0.00  0.00    +0.000 HD
ENDBRANCH  10  11
ENDBRANCH   3  10
BRANCH   8  13
ATOM     13  O   UNL     1       0.550  10.840  18.133  0.00  0.00    +0.000 OA
ATOM     14  H   UNL     1       1.237  11.327  17.637  0.00  0.00    +0.000 HD
ENDBRANCH   8  13
ENDBRANCH   1   5
BRANCH   1  15
ATOM     15  S   UNL     1       2.742   4.767  19.567  0.00  0.00    +0.000 S 
ATOM     16  O   UNL     1       2.965   3.790  20.610  0.00  0.00    +0.000 OA
ATOM     17  O   UNL     1       1.495   4.789  18.841  0.00  0.00    +0.000 OA
BRANCH  15  18
ATOM     18  C   UNL     1       4.060   4.607  18.386  0.00  0.00    +0.000 A 
ATOM     19  C   UNL     1       5.164   5.468  18.515  0.00  0.00    +0.000 A 
ATOM     20  C   UNL     1       6.214   5.396  17.588  0.00  0.00    +0.000 A 
ATOM     21  C   UNL     1       6.169   4.474  16.540  0.00  0.00    +0.000 A 
ATOM     22  C   UNL     1       5.067   3.620  16.421  0.00  0.00    +0.000 A 
ATOM     23  C   UNL     1       4.005   3.683  17.338  0.00  0.00    +0.000 A 
ATOM     24 CL   UNL     1       2.710   2.569  17.099  0.00  0.00    +0.000 Cl
BRANCH  20  25
ATOM     25  N   UNL     1       7.366   6.301  17.716  0.00  0.00    +0.000 N 
ATOM     26  O   UNL     1       7.696   6.954  16.716  0.00  0.00    +0.000 OA
ATOM     27  O   UNL     1       7.935   6.356  18.814  0.00  0.00    +0.000 OA
ENDBRANCH  20  25
ENDBRANCH  15  18
ENDBRANCH   1  15
TORSDOF 7
ENDMDL
MODEL 6
REMARK VINA RESULT:      -7.5      2.808      5.035
REMARK  Name = 
REMARK  7 active torsions:
REMARK  status: ('A' for Active; 'I' for Inactive)
REMARK    1  A    between atoms: C_2  and  O_3
REMARK    2  A    between atoms: C_2  and  C_4
REMARK    3  A    between atoms: C_6  and  N_7
REMARK    4  A    between atoms: N_7  and  S_8
REMARK    5  A    between atoms: S_8  and  C_11
REMARK    6  A    between atoms: C_13  and  N_14
REMARK    7  A    between atoms: C_23  and  O_24
REMARK                            x       y       z     vdW  Elec       q    Type
REMARK                         _______ _______ _______ _____ _____    ______ ____
ROOT
ATOM      1  N   UNL     1       5.838   3.637  18.308  0.00  0.00    +0.000 N 
ATOM      2  H   UNL     1       6.442   3.168  17.633  0.00  0.00    +0.000 HD
ENDROOT
BRANCH   1   5
ATOM      3  C   UNL     1       2.582   2.755  19.823  0.00  0.00    +0.000 A 
ATOM      4  C   UNL     1       3.940   3.062  19.677  0.00  0.00    +0.000 A 
ATOM      5  C   UNL     1       4.479   3.253  18.409  0.00  0.00    +0.000 A 
ATOM      6  C   UNL     1       3.686   3.091  17.272  0.00  0.00    +0.000 A 
ATOM      7  C   UNL     1       2.329   2.778  17.408  0.00  0.00    +0.000 A 
ATOM      8  C   UNL     1       1.779   2.630  18.682  0.00  0.00    +0.000 A 
BRANCH   3  10
ATOM      9  O   UNL     1       2.803   2.229  22.126  0.00  0.00    +0.000 OA
ATOM     10  C   UNL     1       2.076   2.574  21.208  0.00  0.00    +0.000 C 
BRANCH  10  11
ATOM     11  O   UNL     1       0.784   2.913  21.378  0.00  0.00    +0.000 OA
ATOM     12  H   UNL     1       0.368   3.232  20.547  0.00  0.00    +0.000 HD
ENDBRANCH  10  11
ENDBRANCH   3  10
BRANCH   8  13
ATOM     13  O   UNL     1       0.440   2.385  18.821  0.00  0.00    +0.000 OA
ATOM     14  H   UNL     1       0.118   1.923  18.024  0.00  0.00    +0.000 HD
ENDBRANCH   8  13
ENDBRANCH   1   5
BRANCH   1  15
ATOM     15  S   UNL     1       6.256   5.251  18.554  0.00  0.00    +0.000 S 
ATOM     16  O   UNL     1       6.681   5.385  19.930  0.00  0.00    +0.000 OA
ATOM     17  O   UNL     1       7.134   5.644  17.477  0.00  0.00    +0.000 OA
BRANCH  15  18
ATOM     18  C   UNL     1       4.731   6.142  18.368  0.00  0.00    +0.000 A 
ATOM     19  C   UNL     1       3.880   6.225  19.485  0.00  0.00    +0.000 A 
ATOM     20  C   UNL     1       2.652   6.893  19.377  0.00  0.00    +0.000 A 
ATOM     21  C   UNL     1       2.272   7.480  18.167  0.00  0.00    +0.000 A 
ATOM     22  C   UNL     1       3.126   7.394  17.062  0.00  0.00    +0.000 A 
ATOM     23  C   UNL     1       4.357   6.723  17.153  0.00  0.00    +0.000 A 
ATOM     24 CL   UNL     1       5.331   6.699  15.730  0.00  0.00    +0.000 Cl
BRANCH  20  25
ATOM     25  N   UNL     1       1.757   6.973  20.540  0.00  0.00    +0.000 N 
ATOM     26  O   UNL     1       1.285   5.914  20.974  0.00  0.00    +0.000 OA
ATOM     27  O   UNL     1       1.530   8.094  21.016  0.00  0.00    +0.000 OA
ENDBRANCH  20  25
ENDBRANCH  15  18
ENDBRANCH   1  15
TORSDOF 7
ENDMDL
MODEL 7
REMARK VINA RESULT:      -7.4      2.815      6.334
REMARK  Name = 
REMARK  7 active torsions:
REMARK  status: ('A' for Active; 'I' for Inactive)
REMARK    1  A    between atoms: C_2  and  O_3
REMARK    2  A    between atoms: C_2  and  C_4
REMARK    3  A    between atoms: C_6  and  N_7
REMARK    4  A    between atoms: N_7  and  S_8
REMARK    5  A    between atoms: S_8  and  C_11
REMARK    6  A    between atoms: C_13  and  N_14
REMARK    7  A    between atoms: C_23  and  O_24
REMARK                            x       y       z     vdW  Elec       q    Type
REMARK                         _______ _______ _______ _____ _____    ______ ____
ROOT
ATOM      1  N   UNL     1       2.906   6.528  20.061  0.00  0.00    +0.000 N 
ATOM      2  H   UNL     1       3.354   6.292  20.946  0.00  0.00    +0.000 HD
ENDROOT
BRANCH   1   5
ATOM      3  C   UNL     1       0.570   9.185  21.136  0.00  0.00    +0.000 A 
ATOM      4  C   UNL     1       1.365   8.033  21.141  0.00  0.00    +0.000 A 
ATOM      5  C   UNL     1       2.053   7.656  19.993  0.00  0.00    +0.000 A 
ATOM      6  C   UNL     1       1.918   8.391  18.815  0.00  0.00    +0.000 A 
ATOM      7  C   UNL     1       1.120   9.540  18.798  0.00  0.00    +0.000 A 
ATOM      8  C   UNL     1       0.465   9.943  19.963  0.00  0.00    +0.000 A 
BRANCH   3  10
ATOM      9  O   UNL     1      -0.020  10.627  22.926  0.00  0.00    +0.000 OA
ATOM     10  C   UNL     1      -0.127   9.530  22.402  0.00  0.00    +0.000 C 
BRANCH  10  11
ATOM     11  O   UNL     1      -0.953   8.570  22.863  0.00  0.00    +0.000 OA
ATOM     12  H   UNL     1      -1.714   8.939  23.362  0.00  0.00    +0.000 HD
ENDBRANCH  10  11
ENDBRANCH   3  10
BRANCH   8  13
ATOM     13  O   UNL     1      -0.265  11.100  19.968  0.00  0.00    +0.000 OA
ATOM     14  H   UNL     1      -0.200  11.513  20.850  0.00  0.00    +0.000 HD
ENDBRANCH   8  13
ENDBRANCH   1   5
BRANCH   1  15
ATOM     15  S   UNL     1       2.555   5.174  19.120  0.00  0.00    +0.000 S 
ATOM     16  O   UNL     1       2.424   4.045  20.014  0.00  0.00    +0.000 OA
ATOM     17  O   UNL     1       1.476   5.529  18.229  0.00  0.00    +0.000 OA
BRANCH  15  18
ATOM     18  C   UNL     1       4.014   4.920  18.138  0.00  0.00    +0.000 A 
ATOM     19  C   UNL     1       5.078   5.826  18.299  0.00  0.00    +0.000 A 
ATOM     20  C   UNL     1       6.237   5.681  17.524  0.00  0.00    +0.000 A 
ATOM     21  C   UNL     1       6.342   4.641  16.597  0.00  0.00    +0.000 A 
ATOM     22  C   UNL     1       5.279   3.744  16.445  0.00  0.00    +0.000 A 
ATOM     23  C   UNL     1       4.108   3.879  17.210  0.00  0.00    +0.000 A 
ATOM     24 CL   UNL     1       2.874   2.703  16.948  0.00  0.00    +0.000 Cl
BRANCH  20  25
ATOM     25  N   UNL     1       7.347   6.631  17.683  0.00  0.00    +0.000 N 
ATOM     26  O   UNL     1       7.539   7.448  16.772  0.00  0.00    +0.000 OA
ATOM     27  O   UNL     1       8.023   6.558  18.719  0.00  0.00    +0.000 OA
ENDBRANCH  20  25
ENDBRANCH  15  18
ENDBRANCH   1  15
TORSDOF 7
ENDMDL
MODEL 8
REMARK VINA RESULT:      -7.3      3.383      5.516
REMARK  Name = 
REMARK  7 active torsions:
REMARK  status: ('A' for Active; 'I' for Inactive)
REMARK    1  A    between atoms: C_2  and  O_3
REMARK    2  A    between atoms: C_2  and  C_4
REMARK    3  A    between atoms: C_6  and  N_7
REMARK    4  A    between atoms: N_7  and  S_8
REMARK    5  A    between atoms: S_8  and  C_11
REMARK    6  A    between atoms: C_13  and  N_14
REMARK    7  A    between atoms: C_23  and  O_24
REMARK                            x       y       z     vdW  Elec       q    Type
REMARK                         _______ _______ _______ _____ _____    ______ ____
ROOT
ATOM      1  N   UNL     1       6.317   4.678  16.207  0.00  0.00    +0.000 N 
ATOM      2  H   UNL     1       6.937   4.273  16.907  0.00  0.00    +0.000 HD
ENDROOT
BRANCH   1   5
ATOM      3  C   UNL     1       6.133   3.652  12.658  0.00  0.00    +0.000 A 
ATOM      4  C   UNL     1       5.883   3.730  14.033  0.00  0.00    +0.000 A 
ATOM      5  C   UNL     1       6.651   4.569  14.834  0.00  0.00    +0.000 A 
ATOM      6  C   UNL     1       7.706   5.299  14.287  0.00  0.00    +0.000 A 
ATOM      7  C   UNL     1       7.968   5.221  12.914  0.00  0.00    +0.000 A 
ATOM      8  C   UNL     1       7.169   4.414  12.103  0.00  0.00    +0.000 A 
BRANCH   3  10
ATOM      9  O   UNL     1       4.157   3.073  11.479  0.00  0.00    +0.000 OA
ATOM     10  C   UNL     1       5.266   2.742  11.865  0.00  0.00    +0.000 C 
BRANCH  10  11
ATOM     11  O   UNL     1       5.844   1.572  11.534  0.00  0.00    +0.000 OA
ATOM     12  H   UNL     1       5.214   0.819  11.573  0.00  0.00    +0.000 HD
ENDBRANCH  10  11
ENDBRANCH   3  10
BRANCH   8  13
ATOM     13  O   UNL     1       7.383   4.383  10.752  0.00  0.00    +0.000 OA
ATOM     14  H   UNL     1       7.188   3.486  10.420  0.00  0.00    +0.000 HD
ENDBRANCH   8  13
ENDBRANCH   1   5
BRANCH   1  15
ATOM     15  S   UNL     1       5.526   6.063  16.752  0.00  0.00    +0.000 S 
ATOM     16  O   UNL     1       6.377   6.689  17.740  0.00  0.00    +0.000 OA
ATOM     17  O   UNL     1       5.088   6.802  15.591  0.00  0.00    +0.000 OA
BRANCH  15  18
ATOM     18  C   UNL     1       4.082   5.455  17.589  0.00  0.00    +0.000 A 
ATOM     19  C   UNL     1       3.976   4.066  17.788  0.00  0.00    +0.000 A 
ATOM     20  C   UNL     1       2.840   3.539  18.418  0.00  0.00    +0.000 A 
ATOM     21  C   UNL     1       1.816   4.384  18.852  0.00  0.00    +0.000 A 
ATOM     22  C   UNL     1       1.931   5.764  18.651  0.00  0.00    +0.000 A 
ATOM     23  C   UNL     1       3.060   6.308  18.016  0.00  0.00    +0.000 A 
ATOM     24 CL   UNL     1       3.098   8.023  17.842  0.00  0.00    +0.000 Cl
BRANCH  20  25
ATOM     25  N   UNL     1       2.723   2.087  18.619  0.00  0.00    +0.000 N 
ATOM     26  O   UNL     1       1.735   1.672  19.241  0.00  0.00    +0.000 OA
ATOM     27  O   UNL     1       3.618   1.368  18.155  0.00  0.00    +0.000 OA
ENDBRANCH  20  25
ENDBRANCH  15  18
ENDBRANCH   1  15
TORSDOF 7
ENDMDL
MODEL 9
REMARK VINA RESULT:      -7.3      3.050      4.902
REMARK  Name = 
REMARK  7 active torsions:
REMARK  status: ('A' for Active; 'I' for Inactive)
REMARK    1  A    between atoms: C_2  and  O_3
REMARK    2  A    between atoms: C_2  and  C_4
REMARK    3  A    between atoms: C_6  and  N_7
REMARK    4  A    between atoms: N_7  and  S_8
REMARK    5  A    between atoms: S_8  and  C_11
REMARK    6  A    between atoms: C_13  and  N_14
REMARK    7  A    between atoms: C_23  and  O_24
REMARK                            x       y       z     vdW  Elec       q    Type
REMARK                         _______ _______ _______ _____ _____    ______ ____
ROOT
ATOM      1  N   UNL     1       7.255   4.379  17.710  0.00  0.00    +0.000 N 
ATOM      2  H   UNL     1       8.234   4.168  17.903  0.00  0.00    +0.000 HD
ENDROOT
BRANCH   1   5
ATOM      3  C   UNL     1       7.096   4.697  14.029  0.00  0.00    +0.000 A 
ATOM      4  C   UNL     1       7.503   4.851  15.359  0.00  0.00    +0.000 A 
ATOM      5  C   UNL     1       6.768   4.265  16.385  0.00  0.00    +0.000 A 
ATOM      6  C   UNL     1       5.595   3.564  16.104  0.00  0.00    +0.000 A 
ATOM      7  C   UNL     1       5.177   3.412  14.777  0.00  0.00    +0.000 A 
ATOM      8  C   UNL     1       5.938   3.962  13.745  0.00  0.00    +0.000 A 
BRANCH   3  10
ATOM      9  O   UNL     1       7.638   5.316  11.804  0.00  0.00    +0.000 OA
ATOM     10  C   UNL     1       7.935   5.344  12.987  0.00  0.00    +0.000 C 
BRANCH  10  11
ATOM     11  O   UNL     1       8.986   6.035  13.468  0.00  0.00    +0.000 OA
ATOM     12  H   UNL     1       8.848   7.006  13.422  0.00  0.00    +0.000 HD
ENDBRANCH  10  11
ENDBRANCH   3  10
BRANCH   8  13
ATOM     13  O   UNL     1       5.566   3.762  12.443  0.00  0.00    +0.000 OA
ATOM     14  H   UNL     1       5.757   2.837  12.197  0.00  0.00    +0.000 HD
ENDBRANCH   8  13
ENDBRANCH   1   5
BRANCH   1  15
ATOM     15  S   UNL     1       6.631   5.580  18.714  0.00  0.00    +0.000 S 
ATOM     16  O   UNL     1       7.170   5.364  20.038  0.00  0.00    +0.000 OA
ATOM     17  O   UNL     1       6.818   6.847  18.048  0.00  0.00    +0.000 OA
BRANCH  15  18
ATOM     18  C   UNL     1       4.887   5.249  18.778  0.00  0.00    +0.000 A 
ATOM     19  C   UNL     1       4.450   4.198  19.604  0.00  0.00    +0.000 A 
ATOM     20  C   UNL     1       3.085   3.882  19.664  0.00  0.00    +0.000 A 
ATOM     21  C   UNL     1       2.158   4.607  18.911  0.00  0.00    +0.000 A 
ATOM     22  C   UNL     1       2.603   5.652  18.093  0.00  0.00    +0.000 A 
ATOM     23  C   UNL     1       3.968   5.977  18.018  0.00  0.00    +0.000 A 
ATOM     24 CL   UNL     1       4.392   7.295  16.990  0.00  0.00    +0.000 Cl
BRANCH  20  25
ATOM     25  N   UNL     1       2.626   2.778  20.520  0.00  0.00    +0.000 N 
ATOM     26  O   UNL     1       1.615   2.158  20.165  0.00  0.00    +0.000 OA
ATOM     27  O   UNL     1       3.279   2.535  21.545  0.00  0.00    +0.000 OA
ENDBRANCH  20  25
ENDBRANCH  15  18
ENDBRANCH   1  15
TORSDOF 7
ENDMDL
