MODEL 1
REMARK VINA RESULT:     -10.0      0.000      0.000
REMARK  Name = 
REMARK  4 active torsions:
REMARK  status: ('A' for Active; 'I' for Inactive)
REMARK    1  A    between atoms: C_2  and  C_3
REMARK    2  A    between atoms: C_2  and  C_9
REMARK    3  A    between atoms: C_15  and  C_16
REMARK    4  A    between atoms: C_28  and  C_29
REMARK                            x       y       z     vdW  Elec       q    Type
REMARK                         _______ _______ _______ _____ _____    ______ ____
ROOT
ATOM      1  C   UNL     1       2.791   6.166  18.363  0.00  0.00    +0.000 A 
ATOM      2  O   UNL     1       2.884   7.349  17.739  0.00  0.00    +0.000 OA
ATOM      3  C   UNL     1       2.255   8.262  18.474  0.00  0.00    +0.000 A 
ATOM      4  C   UNL     1       2.133   9.559  17.997  0.00  0.00    +0.000 A 
ATOM      5  C   UNL     1       1.482  10.465  18.802  0.00  0.00    +0.000 A 
ATOM      6  C   UNL     1       1.008  10.082  20.056  0.00  0.00    +0.000 A 
ATOM      7  C   UNL     1       0.255  11.091  20.835  0.00  0.00    +0.000 A 
ATOM      8  C   UNL     1      -0.027  10.770  22.102  0.00  0.00    +0.000 A 
ATOM      9  C   UNL     1       0.480   9.539  22.733  0.00  0.00    +0.000 A 
ATOM     10  O   UNL     1       0.519   9.454  23.956  0.00  0.00    +0.000 OA
ATOM     11  O   UNL     1       0.864   8.491  21.894  0.00  0.00    +0.000 OA
ATOM     12  C   UNL     1       1.199   8.742  20.530  0.00  0.00    +0.000 A 
ATOM     13  C   UNL     1       1.790   7.740  19.683  0.00  0.00    +0.000 A 
ATOM     14  C   UNL     1       2.085   6.287  19.573  0.00  0.00    +0.000 A 
ENDROOT
BRANCH   7  15
ATOM     15  C   UNL     1      -0.255  12.390  20.298  0.00  0.00    +0.000 A 
ATOM     16  C   UNL     1      -1.585  12.799  20.481  0.00  0.00    +0.000 A 
ATOM     17  C   UNL     1      -2.009  14.069  20.062  0.00  0.00    +0.000 A 
ATOM     18  C   UNL     1      -1.112  14.947  19.456  0.00  0.00    +0.000 A 
ATOM     19  C   UNL     1       0.210  14.553  19.265  0.00  0.00    +0.000 A 
ATOM     20  C   UNL     1       0.633  13.284  19.681  0.00  0.00    +0.000 A 
ENDBRANCH   7  15
BRANCH  14  21
ATOM     21  C   UNL     1       1.784   5.038  20.329  0.00  0.00    +0.000 A 
ATOM     22  C   UNL     1       0.797   4.148  19.825  0.00  0.00    +0.000 A 
ATOM     23  C   UNL     1       0.690   2.816  20.249  0.00  0.00    +0.000 A 
ATOM     24  C   UNL     1       1.503   2.362  21.273  0.00  0.00    +0.000 A 
ATOM     25  C   UNL     1       2.394   3.252  21.875  0.00  0.00    +0.000 A 
ATOM     26  C   UNL     1       2.541   4.582  21.409  0.00  0.00    +0.000 A 
ENDBRANCH  14  21
BRANCH   1  28
ATOM     27  O   UNL     1       2.804   4.234  16.981  0.00  0.00    +0.000 OA
ATOM     28  C   UNL     1       3.415   5.072  17.625  0.00  0.00    +0.000 C 
BRANCH  28  29
ATOM     29  C   UNL     1       4.910   4.968  17.702  0.00  0.00    +0.000 A 
ATOM     30  C   UNL     1       5.686   4.529  16.616  0.00  0.00    +0.000 A 
ATOM     31  C   UNL     1       7.076   4.507  16.706  0.00  0.00    +0.000 A 
ATOM     32  C   UNL     1       7.701   4.895  17.890  0.00  0.00    +0.000 A 
ATOM     33  C   UNL     1       6.937   5.300  18.983  0.00  0.00    +0.000 A 
ATOM     34  C   UNL     1       5.543   5.336  18.895  0.00  0.00    +0.000 A 
ENDBRANCH  28  29
ENDBRANCH   1  28
TORSDOF 4
ENDMDL
MODEL 2
REMARK VINA RESULT:      -9.0      0.982      1.565
REMARK  Name = 
REMARK  4 active torsions:
REMARK  status: ('A' for Active; 'I' for Inactive)
REMARK    1  A    between atoms: C_2  and  C_3
REMARK    2  A    between atoms: C_2  and  C_9
REMARK    3  A    between atoms: C_15  and  C_16
REMARK    4  A    between atoms: C_28  and  C_29
REMARK                            x       y       z     vdW  Elec       q    Type
REMARK                         _______ _______ _______ _____ _____    ______ ____
ROOT
ATOM      1  C   UNL     1       3.077   5.572  17.844  0.00  0.00    +0.000 A 
ATOM      2  O   UNL     1       3.214   6.740  17.200  0.00  0.00    +0.000 OA
ATOM      3  C   UNL     1       2.662   7.696  17.942  0.00  0.00    +0.000 A 
ATOM      4  C   UNL     1       2.596   8.992  17.451  0.00  0.00    +0.000 A 
ATOM      5  C   UNL     1       2.025   9.943  18.264  0.00  0.00    +0.000 A 
ATOM      6  C   UNL     1       1.574   9.604  19.538  0.00  0.00    +0.000 A 
ATOM      7  C   UNL     1       0.906  10.663  20.327  0.00  0.00    +0.000 A 
ATOM      8  C   UNL     1       0.650  10.375  21.608  0.00  0.00    +0.000 A 
ATOM      9  C   UNL     1       1.109   9.125  22.240  0.00  0.00    +0.000 A 
ATOM     10  O   UNL     1       1.187   9.055  23.462  0.00  0.00    +0.000 OA
ATOM     11  O   UNL     1       1.406   8.047  21.403  0.00  0.00    +0.000 OA
ATOM     12  C   UNL     1       1.707   8.261  20.026  0.00  0.00    +0.000 A 
ATOM     13  C   UNL     1       2.211   7.217  19.174  0.00  0.00    +0.000 A 
ATOM     14  C   UNL     1       2.421   5.748  19.076  0.00  0.00    +0.000 A 
ENDROOT
BRANCH   7  15
ATOM     15  C   UNL     1       0.451  11.982  19.789  0.00  0.00    +0.000 A 
ATOM     16  C   UNL     1       1.201  13.155  19.965  0.00  0.00    +0.000 A 
ATOM     17  C   UNL     1       0.804  14.357  19.359  0.00  0.00    +0.000 A 
ATOM     18  C   UNL     1      -0.343  14.404  18.569  0.00  0.00    +0.000 A 
ATOM     19  C   UNL     1      -1.098  13.248  18.389  0.00  0.00    +0.000 A 
ATOM     20  C   UNL     1      -0.705  12.049  18.997  0.00  0.00    +0.000 A 
ENDBRANCH   7  15
BRANCH  14  21
ATOM     21  C   UNL     1       2.078   4.528  19.861  0.00  0.00    +0.000 A 
ATOM     22  C   UNL     1       2.793   4.254  21.058  0.00  0.00    +0.000 A 
ATOM     23  C   UNL     1       2.329   3.358  22.031  0.00  0.00    +0.000 A 
ATOM     24  C   UNL     1       1.182   2.624  21.785  0.00  0.00    +0.000 A 
ATOM     25  C   UNL     1       0.529   2.779  20.561  0.00  0.00    +0.000 A 
ATOM     26  C   UNL     1       0.967   3.725  19.602  0.00  0.00    +0.000 A 
ENDBRANCH  14  21
BRANCH   1  28
ATOM     27  O   UNL     1       3.009   3.395  16.898  0.00  0.00    +0.000 OA
ATOM     28  C   UNL     1       3.613   4.435  17.102  0.00  0.00    +0.000 C 
BRANCH  28  29
ATOM     29  C   UNL     1       5.018   4.562  16.590  0.00  0.00    +0.000 A 
ATOM     30  C   UNL     1       5.308   4.644  15.218  0.00  0.00    +0.000 A 
ATOM     31  C   UNL     1       6.620   4.824  14.785  0.00  0.00    +0.000 A 
ATOM     32  C   UNL     1       7.656   4.895  15.717  0.00  0.00    +0.000 A 
ATOM     33  C   UNL     1       7.379   4.781  17.078  0.00  0.00    +0.000 A 
ATOM     34  C   UNL     1       6.064   4.612  17.519  0.00  0.00    +0.000 A 
ENDBRANCH  28  29
ENDBRANCH   1  28
TORSDOF 4
ENDMDL
MODEL 3
REMARK VINA RESULT:      -9.0      2.336      8.338
REMARK  Name = 
REMARK  4 active torsions:
REMARK  status: ('A' for Active; 'I' for Inactive)
REMARK    1  A    between atoms: C_2  and  C_3
REMARK    2  A    between atoms: C_2  and  C_9
REMARK    3  A    between atoms: C_15  and  C_16
REMARK    4  A    between atoms: C_28  and  C_29
REMARK                            x       y       z     vdW  Elec       q    Type
REMARK                         _______ _______ _______ _____ _____    ______ ____
ROOT
ATOM      1  C   UNL     1       0.476  10.393  18.554  0.00  0.00    +0.000 A 
ATOM      2  O   UNL     1       1.272  10.049  17.532  0.00  0.00    +0.000 OA
ATOM      3  C   UNL     1       1.946   8.954  17.874  0.00  0.00    +0.000 A 
ATOM      4  C   UNL     1       2.908   8.445  17.014  0.00  0.00    +0.000 A 
ATOM      5  C   UNL     1       3.568   7.306  17.412  0.00  0.00    +0.000 A 
ATOM      6  C   UNL     1       3.238   6.685  18.617  0.00  0.00    +0.000 A 
ATOM      7  C   UNL     1       4.039   5.505  19.014  0.00  0.00    +0.000 A 
ATOM      8  C   UNL     1       3.593   4.815  20.069  0.00  0.00    +0.000 A 
ATOM      9  C   UNL     1       2.315   5.130  20.732  0.00  0.00    +0.000 A 
ATOM     10  O   UNL     1       1.767   4.284  21.430  0.00  0.00    +0.000 OA
ATOM     11  O   UNL     1       1.795   6.415  20.560  0.00  0.00    +0.000 OA
ATOM     12  C   UNL     1       2.202   7.218  19.453  0.00  0.00    +0.000 A 
ATOM     13  C   UNL     1       1.554   8.458  19.120  0.00  0.00    +0.000 A 
ATOM     14  C   UNL     1       0.605   9.487  19.622  0.00  0.00    +0.000 A 
ENDROOT
BRANCH   7  15
ATOM     15  C   UNL     1       5.319   5.075  18.371  0.00  0.00    +0.000 A 
ATOM     16  C   UNL     1       5.344   4.430  17.125  0.00  0.00    +0.000 A 
ATOM     17  C   UNL     1       6.562   4.133  16.496  0.00  0.00    +0.000 A 
ATOM     18  C   UNL     1       7.771   4.477  17.100  0.00  0.00    +0.000 A 
ATOM     19  C   UNL     1       7.760   5.114  18.338  0.00  0.00    +0.000 A 
ATOM     20  C   UNL     1       6.544   5.408  18.969  0.00  0.00    +0.000 A 
ENDBRANCH   7  15
BRANCH  14  21
ATOM     21  C   UNL     1      -0.120   9.797  20.887  0.00  0.00    +0.000 A 
ATOM     22  C   UNL     1      -0.368   8.749  21.815  0.00  0.00    +0.000 A 
ATOM     23  C   UNL     1      -0.713   8.986  23.152  0.00  0.00    +0.000 A 
ATOM     24  C   UNL     1      -0.927  10.285  23.578  0.00  0.00    +0.000 A 
ATOM     25  C   UNL     1      -0.817  11.326  22.654  0.00  0.00    +0.000 A 
ATOM     26  C   UNL     1      -0.414  11.091  21.318  0.00  0.00    +0.000 A 
ENDBRANCH  14  21
BRANCH   1  28
ATOM     27  O   UNL     1       0.173  12.740  18.357  0.00  0.00    +0.000 OA
ATOM     28  C   UNL     1      -0.289  11.612  18.307  0.00  0.00    +0.000 C 
BRANCH  28  29
ATOM     29  C   UNL     1      -1.749  11.446  18.003  0.00  0.00    +0.000 A 
ATOM     30  C   UNL     1      -2.750  11.947  18.852  0.00  0.00    +0.000 A 
ATOM     31  C   UNL     1      -4.094  11.828  18.502  0.00  0.00    +0.000 A 
ATOM     32  C   UNL     1      -4.450  11.182  17.319  0.00  0.00    +0.000 A 
ATOM     33  C   UNL     1      -3.463  10.652  16.489  0.00  0.00    +0.000 A 
ATOM     34  C   UNL     1      -2.113  10.779  16.828  0.00  0.00    +0.000 A 
ENDBRANCH  28  29
ENDBRANCH   1  28
TORSDOF 4
ENDMDL
MODEL 4
REMARK VINA RESULT:      -8.9      2.144      8.380
REMARK  Name = 
REMARK  4 active torsions:
REMARK  status: ('A' for Active; 'I' for Inactive)
REMARK    1  A    between atoms: C_2  and  C_3
REMARK    2  A    between atoms: C_2  and  C_9
REMARK    3  A    between atoms: C_15  and  C_16
REMARK    4  A    between atoms: C_28  and  C_29
REMARK                            x       y       z     vdW  Elec       q    Type
REMARK                         _______ _______ _______ _____ _____    ______ ____
ROOT
ATOM      1  C   UNL     1       0.666  10.493  18.819  0.00  0.00    +0.000 A 
ATOM      2  O   UNL     1       1.326  10.128  17.710  0.00  0.00    +0.000 OA
ATOM      3  C   UNL     1       1.970   8.991  17.960  0.00  0.00    +0.000 A 
ATOM      4  C   UNL     1       2.802   8.448  16.992  0.00  0.00    +0.000 A 
ATOM      5  C   UNL     1       3.435   7.266  17.298  0.00  0.00    +0.000 A 
ATOM      6  C   UNL     1       3.204   6.639  18.521  0.00  0.00    +0.000 A 
ATOM      7  C   UNL     1       3.975   5.409  18.810  0.00  0.00    +0.000 A 
ATOM      8  C   UNL     1       3.607   4.721  19.897  0.00  0.00    +0.000 A 
ATOM      9  C   UNL     1       2.428   5.091  20.700  0.00  0.00    +0.000 A 
ATOM     10  O   UNL     1       1.912   4.262  21.441  0.00  0.00    +0.000 OA
ATOM     11  O   UNL     1       1.967   6.407  20.606  0.00  0.00    +0.000 OA
ATOM     12  C   UNL     1       2.296   7.210  19.474  0.00  0.00    +0.000 A 
ATOM     13  C   UNL     1       1.687   8.490  19.233  0.00  0.00    +0.000 A 
ATOM     14  C   UNL     1       0.858   9.558  19.852  0.00  0.00    +0.000 A 
ENDROOT
BRANCH   7  15
ATOM     15  C   UNL     1       5.151   4.923  18.024  0.00  0.00    +0.000 A 
ATOM     16  C   UNL     1       5.003   4.301  16.775  0.00  0.00    +0.000 A 
ATOM     17  C   UNL     1       6.128   3.951  16.012  0.00  0.00    +0.000 A 
ATOM     18  C   UNL     1       7.412   4.219  16.483  0.00  0.00    +0.000 A 
ATOM     19  C   UNL     1       7.572   4.833  17.723  0.00  0.00    +0.000 A 
ATOM     20  C   UNL     1       6.450   5.179  18.487  0.00  0.00    +0.000 A 
ENDBRANCH   7  15
BRANCH  14  21
ATOM     21  C   UNL     1       0.293   9.880  21.193  0.00  0.00    +0.000 A 
ATOM     22  C   UNL     1       0.124  11.244  21.561  0.00  0.00    +0.000 A 
ATOM     23  C   UNL     1      -0.702  11.647  22.619  0.00  0.00    +0.000 A 
ATOM     24  C   UNL     1      -1.304  10.687  23.413  0.00  0.00    +0.000 A 
ATOM     25  C   UNL     1      -1.052   9.339  23.154  0.00  0.00    +0.000 A 
ATOM     26  C   UNL     1      -0.263   8.931  22.051  0.00  0.00    +0.000 A 
ENDBRANCH  14  21
BRANCH   1  28
ATOM     27  O   UNL     1       0.468  12.859  18.751  0.00  0.00    +0.000 OA
ATOM     28  C   UNL     1      -0.051  11.757  18.676  0.00  0.00    +0.000 C 
BRANCH  28  29
ATOM     29  C   UNL     1      -1.533  11.674  18.453  0.00  0.00    +0.000 A 
ATOM     30  C   UNL     1      -2.086  11.012  17.344  0.00  0.00    +0.000 A 
ATOM     31  C   UNL     1      -3.468  10.904  17.206  0.00  0.00    +0.000 A 
ATOM     32  C   UNL     1      -4.308  11.481  18.157  0.00  0.00    +0.000 A 
ATOM     33  C   UNL     1      -3.767  12.168  19.242  0.00  0.00    +0.000 A 
ATOM     34  C   UNL     1      -2.382  12.270  19.393  0.00  0.00    +0.000 A 
ENDBRANCH  28  29
ENDBRANCH   1  28
TORSDOF 4
ENDMDL
MODEL 5
REMARK VINA RESULT:      -8.9      0.802      1.459
REMARK  Name = 
REMARK  4 active torsions:
REMARK  status: ('A' for Active; 'I' for Inactive)
REMARK    1  A    between atoms: C_2  and  C_3
REMARK    2  A    between atoms: C_2  and  C_9
REMARK    3  A    between atoms: C_15  and  C_16
REMARK    4  A    between atoms: C_28  and  C_29
REMARK                            x       y       z     vdW  Elec       q    Type
REMARK                         _______ _______ _______ _____ _____    ______ ____
ROOT
ATOM      1  C   UNL     1       3.009   5.682  17.868  0.00  0.00    +0.000 A 
ATOM      2  O   UNL     1       3.109   6.856  17.226  0.00  0.00    +0.000 OA
ATOM      3  C   UNL     1       2.541   7.795  17.978  0.00  0.00    +0.000 A 
ATOM      4  C   UNL     1       2.436   9.090  17.492  0.00  0.00    +0.000 A 
ATOM      5  C   UNL     1       1.849  10.024  18.314  0.00  0.00    +0.000 A 
ATOM      6  C   UNL     1       1.421   9.668  19.592  0.00  0.00    +0.000 A 
ATOM      7  C   UNL     1       0.734  10.707  20.392  0.00  0.00    +0.000 A 
ATOM      8  C   UNL     1       0.500  10.408  21.675  0.00  0.00    +0.000 A 
ATOM      9  C   UNL     1       0.998   9.169  22.297  0.00  0.00    +0.000 A 
ATOM     10  O   UNL     1       1.090   9.096  23.518  0.00  0.00    +0.000 OA
ATOM     11  O   UNL     1       1.313   8.101  21.453  0.00  0.00    +0.000 OA
ATOM     12  C   UNL     1       1.594   8.327  20.073  0.00  0.00    +0.000 A 
ATOM     13  C   UNL     1       2.116   7.300  19.213  0.00  0.00    +0.000 A 
ATOM     14  C   UNL     1       2.363   5.838  19.107  0.00  0.00    +0.000 A 
ENDROOT
BRANCH   7  15
ATOM     15  C   UNL     1       0.239  12.015  19.864  0.00  0.00    +0.000 A 
ATOM     16  C   UNL     1      -1.091  12.431  20.036  0.00  0.00    +0.000 A 
ATOM     17  C   UNL     1      -1.501  13.708  19.625  0.00  0.00    +0.000 A 
ATOM     18  C   UNL     1      -0.591  14.587  19.039  0.00  0.00    +0.000 A 
ATOM     19  C   UNL     1       0.730  14.186  18.859  0.00  0.00    +0.000 A 
ATOM     20  C   UNL     1       1.140  12.910  19.266  0.00  0.00    +0.000 A 
ENDBRANCH   7  15
BRANCH  14  21
ATOM     21  C   UNL     1       2.060   4.606  19.890  0.00  0.00    +0.000 A 
ATOM     22  C   UNL     1       2.778   4.359  21.092  0.00  0.00    +0.000 A 
ATOM     23  C   UNL     1       2.341   3.448  22.063  0.00  0.00    +0.000 A 
ATOM     24  C   UNL     1       1.223   2.672  21.811  0.00  0.00    +0.000 A 
ATOM     25  C   UNL     1       0.572   2.802  20.583  0.00  0.00    +0.000 A 
ATOM     26  C   UNL     1       0.980   3.763  19.626  0.00  0.00    +0.000 A 
ENDBRANCH  14  21
BRANCH   1  28
ATOM     27  O   UNL     1       2.945   3.560  16.804  0.00  0.00    +0.000 OA
ATOM     28  C   UNL     1       3.567   4.563  17.115  0.00  0.00    +0.000 C 
BRANCH  28  29
ATOM     29  C   UNL     1       5.016   4.656  16.736  0.00  0.00    +0.000 A 
ATOM     30  C   UNL     1       6.043   4.642  17.695  0.00  0.00    +0.000 A 
ATOM     31  C   UNL     1       7.378   4.667  17.298  0.00  0.00    +0.000 A 
ATOM     32  C   UNL     1       7.699   4.736  15.943  0.00  0.00    +0.000 A 
ATOM     33  C   UNL     1       6.686   4.784  14.987  0.00  0.00    +0.000 A 
ATOM     34  C   UNL     1       5.345   4.747  15.378  0.00  0.00    +0.000 A 
ENDBRANCH  28  29
ENDBRANCH   1  28
TORSDOF 4
ENDMDL
MODEL 6
REMARK VINA RESULT:      -8.7      1.841      8.134
REMARK  Name = 
REMARK  4 active torsions:
REMARK  status: ('A' for Active; 'I' for Inactive)
REMARK    1  A    between atoms: C_2  and  C_3
REMARK    2  A    between atoms: C_2  and  C_9
REMARK    3  A    between atoms: C_15  and  C_16
REMARK    4  A    between atoms: C_28  and  C_29
REMARK                            x       y       z     vdW  Elec       q    Type
REMARK                         _______ _______ _______ _____ _____    ______ ____
ROOT
ATOM      1  C   UNL     1       0.587  10.597  18.580  0.00  0.00    +0.000 A 
ATOM      2  O   UNL     1       1.428  10.264  17.591  0.00  0.00    +0.000 OA
ATOM      3  C   UNL     1       2.043   9.132  17.925  0.00  0.00    +0.000 A 
ATOM      4  C   UNL     1       3.034   8.621  17.100  0.00  0.00    +0.000 A 
ATOM      5  C   UNL     1       3.629   7.444  17.487  0.00  0.00    +0.000 A 
ATOM      6  C   UNL     1       3.210   6.788  18.644  0.00  0.00    +0.000 A 
ATOM      7  C   UNL     1       3.944   5.565  19.036  0.00  0.00    +0.000 A 
ATOM      8  C   UNL     1       3.414   4.851  20.035  0.00  0.00    +0.000 A 
ATOM      9  C   UNL     1       2.112   5.187  20.637  0.00  0.00    +0.000 A 
ATOM     10  O   UNL     1       1.495   4.335  21.268  0.00  0.00    +0.000 OA
ATOM     11  O   UNL     1       1.648   6.496  20.490  0.00  0.00    +0.000 OA
ATOM     12  C   UNL     1       2.146   7.327  19.443  0.00  0.00    +0.000 A 
ATOM     13  C   UNL     1       1.562   8.602  19.125  0.00  0.00    +0.000 A 
ATOM     14  C   UNL     1       0.623   9.645  19.615  0.00  0.00    +0.000 A 
ENDROOT
BRANCH   7  15
ATOM     15  C   UNL     1       5.243   5.113  18.449  0.00  0.00    +0.000 A 
ATOM     16  C   UNL     1       5.308   4.437  17.220  0.00  0.00    +0.000 A 
ATOM     17  C   UNL     1       6.546   4.120  16.642  0.00  0.00    +0.000 A 
ATOM     18  C   UNL     1       7.734   4.472  17.279  0.00  0.00    +0.000 A 
ATOM     19  C   UNL     1       7.684   5.140  18.500  0.00  0.00    +0.000 A 
ATOM     20  C   UNL     1       6.449   5.454  19.081  0.00  0.00    +0.000 A 
ENDBRANCH   7  15
BRANCH  14  21
ATOM     21  C   UNL     1      -0.163   9.932  20.849  0.00  0.00    +0.000 A 
ATOM     22  C   UNL     1      -0.076   9.033  21.947  0.00  0.00    +0.000 A 
ATOM     23  C   UNL     1      -0.477   9.379  23.244  0.00  0.00    +0.000 A 
ATOM     24  C   UNL     1      -1.081  10.605  23.463  0.00  0.00    +0.000 A 
ATOM     25  C   UNL     1      -1.297  11.456  22.379  0.00  0.00    +0.000 A 
ATOM     26  C   UNL     1      -0.841  11.130  21.078  0.00  0.00    +0.000 A 
ENDBRANCH  14  21
BRANCH   1  28
ATOM     27  O   UNL     1      -1.266  11.934  17.933  0.00  0.00    +0.000 OA
ATOM     28  C   UNL     1      -0.119  11.852  18.342  0.00  0.00    +0.000 C 
BRANCH  28  29
ATOM     29  C   UNL     1       0.646  13.118  18.594  0.00  0.00    +0.000 A 
ATOM     30  C   UNL     1       2.051  13.150  18.621  0.00  0.00    +0.000 A 
ATOM     31  C   UNL     1       2.725  14.356  18.796  0.00  0.00    +0.000 A 
ATOM     32  C   UNL     1       2.003  15.536  18.973  0.00  0.00    +0.000 A 
ATOM     33  C   UNL     1       0.610  15.508  18.980  0.00  0.00    +0.000 A 
ATOM     34  C   UNL     1      -0.073  14.302  18.794  0.00  0.00    +0.000 A 
ENDBRANCH  28  29
ENDBRANCH   1  28
TORSDOF 4
ENDMDL
MODEL 7
REMARK VINA RESULT:      -8.6      3.203     10.418
REMARK  Name = 
REMARK  4 active torsions:
REMARK  status: ('A' for Active; 'I' for Inactive)
REMARK    1  A    between atoms: C_2  and  C_3
REMARK    2  A    between atoms: C_2  and  C_9
REMARK    3  A    between atoms: C_15  and  C_16
REMARK    4  A    between atoms: C_28  and  C_29
REMARK                            x       y       z     vdW  Elec       q    Type
REMARK                         _______ _______ _______ _____ _____    ______ ____
ROOT
ATOM      1  C   UNL     1      -2.710  12.279  23.156  0.00  0.00    +0.000 A 
ATOM      2  O   UNL     1      -2.068  11.169  23.547  0.00  0.00    +0.000 OA
ATOM      3  C   UNL     1      -1.234  10.802  22.577  0.00  0.00    +0.000 A 
ATOM      4  C   UNL     1      -0.512   9.624  22.703  0.00  0.00    +0.000 A 
ATOM      5  C   UNL     1       0.342   9.298  21.676  0.00  0.00    +0.000 A 
ATOM      6  C   UNL     1       0.489  10.150  20.583  0.00  0.00    +0.000 A 
ATOM      7  C   UNL     1       1.371   9.699  19.483  0.00  0.00    +0.000 A 
ATOM      8  C   UNL     1       1.647  10.603  18.537  0.00  0.00    +0.000 A 
ATOM      9  C   UNL     1       1.202  12.004  18.634  0.00  0.00    +0.000 A 
ATOM     10  O   UNL     1       1.762  12.868  17.968  0.00  0.00    +0.000 OA
ATOM     11  O   UNL     1       0.117  12.283  19.469  0.00  0.00    +0.000 OA
ATOM     12  C   UNL     1      -0.241  11.384  20.516  0.00  0.00    +0.000 A 
ATOM     13  C   UNL     1      -1.214  11.717  21.522  0.00  0.00    +0.000 A 
ATOM     14  C   UNL     1      -2.283  12.687  21.879  0.00  0.00    +0.000 A 
ENDROOT
BRANCH   7  15
ATOM     15  C   UNL     1       1.915   8.315  19.327  0.00  0.00    +0.000 A 
ATOM     16  C   UNL     1       1.800   7.352  20.341  0.00  0.00    +0.000 A 
ATOM     17  C   UNL     1       2.224   6.032  20.127  0.00  0.00    +0.000 A 
ATOM     18  C   UNL     1       2.766   5.655  18.899  0.00  0.00    +0.000 A 
ATOM     19  C   UNL     1       2.890   6.602  17.886  0.00  0.00    +0.000 A 
ATOM     20  C   UNL     1       2.470   7.921  18.100  0.00  0.00    +0.000 A 
ENDBRANCH   7  15
BRANCH  14  21
ATOM     21  C   UNL     1      -2.990  13.835  21.245  0.00  0.00    +0.000 A 
ATOM     22  C   UNL     1      -4.325  13.656  20.788  0.00  0.00    +0.000 A 
ATOM     23  C   UNL     1      -5.181  14.730  20.510  0.00  0.00    +0.000 A 
ATOM     24  C   UNL     1      -4.693  16.023  20.578  0.00  0.00    +0.000 A 
ATOM     25  C   UNL     1      -3.349  16.223  20.899  0.00  0.00    +0.000 A 
ATOM     26  C   UNL     1      -2.499  15.141  21.234  0.00  0.00    +0.000 A 
ENDBRANCH  14  21
BRANCH   1  28
ATOM     27  O   UNL     1      -4.524  12.051  24.672  0.00  0.00    +0.000 OA
ATOM     28  C   UNL     1      -3.688  12.756  24.129  0.00  0.00    +0.000 C 
BRANCH  28  29
ATOM     29  C   UNL     1      -3.667  14.222  24.448  0.00  0.00    +0.000 A 
ATOM     30  C   UNL     1      -2.527  14.858  24.968  0.00  0.00    +0.000 A 
ATOM     31  C   UNL     1      -2.528  16.233  25.192  0.00  0.00    +0.000 A 
ATOM     32  C   UNL     1      -3.676  16.979  24.927  0.00  0.00    +0.000 A 
ATOM     33  C   UNL     1      -4.822  16.350  24.443  0.00  0.00    +0.000 A 
ATOM     34  C   UNL     1      -4.823  14.973  24.205  0.00  0.00    +0.000 A 
ENDBRANCH  28  29
ENDBRANCH   1  28
TORSDOF 4
ENDMDL
MODEL 8
REMARK VINA RESULT:      -8.6      1.293      2.017
REMARK  Name = 
REMARK  4 active torsions:
REMARK  status: ('A' for Active; 'I' for Inactive)
REMARK    1  A    between atoms: C_2  and  C_3
REMARK    2  A    between atoms: C_2  and  C_9
REMARK    3  A    between atoms: C_15  and  C_16
REMARK    4  A    between atoms: C_28  and  C_29
REMARK                            x       y       z     vdW  Elec       q    Type
REMARK                         _______ _______ _______ _____ _____    ______ ____
ROOT
ATOM      1  C   UNL     1       3.057   6.675  18.173  0.00  0.00    +0.000 A 
ATOM      2  O   UNL     1       3.078   7.928  17.693  0.00  0.00    +0.000 OA
ATOM      3  C   UNL     1       2.338   8.694  18.490  0.00  0.00    +0.000 A 
ATOM      4  C   UNL     1       2.128  10.025  18.157  0.00  0.00    +0.000 A 
ATOM      5  C   UNL     1       1.364  10.775  19.021  0.00  0.00    +0.000 A 
ATOM      6  C   UNL     1       0.865  10.210  20.194  0.00  0.00    +0.000 A 
ATOM      7  C   UNL     1      -0.008  11.057  21.037  0.00  0.00    +0.000 A 
ATOM      8  C   UNL     1      -0.322  10.567  22.242  0.00  0.00    +0.000 A 
ATOM      9  C   UNL     1       0.257   9.314  22.757  0.00  0.00    +0.000 A 
ATOM     10  O   UNL     1       0.246   9.090  23.963  0.00  0.00    +0.000 OA
ATOM     11  O   UNL     1       0.771   8.407  21.828  0.00  0.00    +0.000 OA
ATOM     12  C   UNL     1       1.148   8.843  20.523  0.00  0.00    +0.000 A 
ATOM     13  C   UNL     1       1.862   7.998  19.603  0.00  0.00    +0.000 A 
ATOM     14  C   UNL     1       2.286   6.597  19.346  0.00  0.00    +0.000 A 
ENDROOT
BRANCH   7  15
ATOM     15  C   UNL     1      -0.602  12.365  20.623  0.00  0.00    +0.000 A 
ATOM     16  C   UNL     1      -1.966  12.500  20.322  0.00  0.00    +0.000 A 
ATOM     17  C   UNL     1      -2.516  13.760  20.041  0.00  0.00    +0.000 A 
ATOM     18  C   UNL     1      -1.714  14.900  20.058  0.00  0.00    +0.000 A 
ATOM     19  C   UNL     1      -0.359  14.780  20.351  0.00  0.00    +0.000 A 
ATOM     20  C   UNL     1       0.192  13.522  20.629  0.00  0.00    +0.000 A 
ENDBRANCH   7  15
BRANCH  14  21
ATOM     21  C   UNL     1       2.058   5.247  19.937  0.00  0.00    +0.000 A 
ATOM     22  C   UNL     1       2.818   4.855  21.073  0.00  0.00    +0.000 A 
ATOM     23  C   UNL     1       2.448   3.786  21.901  0.00  0.00    +0.000 A 
ATOM     24  C   UNL     1       1.358   3.006  21.555  0.00  0.00    +0.000 A 
ATOM     25  C   UNL     1       0.670   3.290  20.374  0.00  0.00    +0.000 A 
ATOM     26  C   UNL     1       1.010   4.404  19.568  0.00  0.00    +0.000 A 
ENDBRANCH  14  21
BRANCH   1  28
ATOM     27  O   UNL     1       4.470   6.035  16.374  0.00  0.00    +0.000 OA
ATOM     28  C   UNL     1       3.808   5.729  17.353  0.00  0.00    +0.000 C 
BRANCH  28  29
ATOM     29  C   UNL     1       3.721   4.281  17.737  0.00  0.00    +0.000 A 
ATOM     30  C   UNL     1       4.579   3.709  18.691  0.00  0.00    +0.000 A 
ATOM     31  C   UNL     1       4.425   2.376  19.066  0.00  0.00    +0.000 A 
ATOM     32  C   UNL     1       3.434   1.596  18.472  0.00  0.00    +0.000 A 
ATOM     33  C   UNL     1       2.600   2.148  17.500  0.00  0.00    +0.000 A 
ATOM     34  C   UNL     1       2.742   3.488  17.128  0.00  0.00    +0.000 A 
ENDBRANCH  28  29
ENDBRANCH   1  28
TORSDOF 4
ENDMDL
MODEL 9
REMARK VINA RESULT:      -8.5      0.585      1.006
REMARK  Name = 
REMARK  4 active torsions:
REMARK  status: ('A' for Active; 'I' for Inactive)
REMARK    1  A    between atoms: C_2  and  C_3
REMARK    2  A    between atoms: C_2  and  C_9
REMARK    3  A    between atoms: C_15  and  C_16
REMARK    4  A    between atoms: C_28  and  C_29
REMARK                            x       y       z     vdW  Elec       q    Type
REMARK                         _______ _______ _______ _____ _____    ______ ____
ROOT
ATOM      1  C   UNL     1       3.220   6.255  18.068  0.00  0.00    +0.000 A 
ATOM      2  O   UNL     1       3.312   7.486  17.544  0.00  0.00    +0.000 OA
ATOM      3  C   UNL     1       2.567   8.311  18.275  0.00  0.00    +0.000 A 
ATOM      4  C   UNL     1       2.426   9.635  17.884  0.00  0.00    +0.000 A 
ATOM      5  C   UNL     1       1.654  10.446  18.682  0.00  0.00    +0.000 A 
ATOM      6  C   UNL     1       1.080   9.947  19.850  0.00  0.00    +0.000 A 
ATOM      7  C   UNL     1       0.204  10.859  20.620  0.00  0.00    +0.000 A 
ATOM      8  C   UNL     1      -0.183  10.429  21.826  0.00  0.00    +0.000 A 
ATOM      9  C   UNL     1       0.323   9.177  22.415  0.00  0.00    +0.000 A 
ATOM     10  O   UNL     1       0.247   9.000  23.626  0.00  0.00    +0.000 OA
ATOM     11  O   UNL     1       0.841   8.215  21.545  0.00  0.00    +0.000 OA
ATOM     12  C   UNL     1       1.294   8.584  20.244  0.00  0.00    +0.000 A 
ATOM     13  C   UNL     1       2.015   7.678  19.391  0.00  0.00    +0.000 A 
ATOM     14  C   UNL     1       2.394   6.252  19.206  0.00  0.00    +0.000 A 
ENDROOT
BRANCH   7  15
ATOM     15  C   UNL     1      -0.318  12.172  20.130  0.00  0.00    +0.000 A 
ATOM     16  C   UNL     1      -1.029  13.047  20.966  0.00  0.00    +0.000 A 
ATOM     17  C   UNL     1      -1.413  14.317  20.511  0.00  0.00    +0.000 A 
ATOM     18  C   UNL     1      -1.093  14.732  19.219  0.00  0.00    +0.000 A 
ATOM     19  C   UNL     1      -0.391  13.872  18.379  0.00  0.00    +0.000 A 
ATOM     20  C   UNL     1      -0.009  12.602  18.831  0.00  0.00    +0.000 A 
ENDBRANCH   7  15
BRANCH  14  21
ATOM     21  C   UNL     1       2.086   4.937  19.836  0.00  0.00    +0.000 A 
ATOM     22  C   UNL     1       2.663   4.624  21.098  0.00  0.00    +0.000 A 
ATOM     23  C   UNL     1       2.176   3.601  21.922  0.00  0.00    +0.000 A 
ATOM     24  C   UNL     1       1.158   2.784  21.459  0.00  0.00    +0.000 A 
ATOM     25  C   UNL     1       0.660   2.987  20.172  0.00  0.00    +0.000 A 
ATOM     26  C   UNL     1       1.114   4.056  19.361  0.00  0.00    +0.000 A 
ENDBRANCH  14  21
BRANCH   1  28
ATOM     27  O   UNL     1       3.486   4.518  16.471  0.00  0.00    +0.000 OA
ATOM     28  C   UNL     1       3.968   5.250  17.320  0.00  0.00    +0.000 C 
BRANCH  28  29
ATOM     29  C   UNL     1       5.424   5.101  17.654  0.00  0.00    +0.000 A 
ATOM     30  C   UNL     1       6.347   4.558  16.745  0.00  0.00    +0.000 A 
ATOM     31  C   UNL     1       7.701   4.495  17.070  0.00  0.00    +0.000 A 
ATOM     32  C   UNL     1       8.139   4.945  18.315  0.00  0.00    +0.000 A 
ATOM     33  C   UNL     1       7.224   5.454  19.234  0.00  0.00    +0.000 A 
ATOM     34  C   UNL     1       5.866   5.532  18.911  0.00  0.00    +0.000 A 
ENDBRANCH  28  29
ENDBRANCH   1  28
TORSDOF 4
ENDMDL
