MODEL 1
REMARK VINA RESULT:      -7.1      0.000      0.000
REMARK  Name = 
REMARK  14 active torsions:
REMARK  status: ('A' for Active; 'I' for Inactive)
REMARK    1  A    between atoms: C_2  and  O_3
REMARK    2  A    between atoms: C_2  and  C_4
REMARK    3  A    between atoms: C_4  and  O_5
REMARK    4  A    between atoms: O_5  and  C_6
REMARK    5  A    between atoms: C_9  and  C_10
REMARK    6  A    between atoms: C_10  and  C_12
REMARK    7  A    between atoms: C_12  and  N_13
REMARK    8  A    between atoms: C_14  and  C_16
REMARK    9  A    between atoms: C_16  and  C_17
REMARK   10  A    between atoms: C_17  and  C_18
REMARK   11  A    between atoms: C_25  and  O_26
REMARK   12  A    between atoms: O_26  and  C_27
REMARK   13  A    between atoms: C_27  and  C_28
REMARK   14  A    between atoms: C_28  and  O_30
REMARK                            x       y       z     vdW  Elec       q    Type
REMARK                         _______ _______ _______ _____ _____    ______ ____
ROOT
ATOM      1  C   UNL     1       4.672   3.835  17.174  0.00  0.00    +0.000 A 
ATOM      2  C   UNL     1       3.306   3.804  16.839  0.00  0.00    +0.000 A 
ATOM      3  C   UNL     1       2.321   4.122  17.771  0.00  0.00    +0.000 A 
ATOM      4  C   UNL     1       2.659   4.420  19.087  0.00  0.00    +0.000 A 
ATOM      5  C   UNL     1       4.019   4.376  19.453  0.00  0.00    +0.000 A 
ATOM      6  C   UNL     1       5.024   4.086  18.510  0.00  0.00    +0.000 A 
ENDROOT
BRANCH   4   7
ATOM      7  C   UNL     1       1.626   4.831  20.086  0.00  0.00    +0.000 C 
ATOM      8  O   UNL     1       0.777   3.999  20.418  0.00  0.00    +0.000 OA
BRANCH   7   9
ATOM      9  C   UNL     1       1.694   6.226  20.730  0.00  0.00    +0.000 C 
BRANCH   9  10
ATOM     10  N   UNL     1       1.850   7.281  19.747  0.00  0.00    +0.000 N 
ATOM     11  C   UNL     1       1.595   8.608  20.048  0.00  0.00    +0.000 C 
ATOM     12  O   UNL     1       1.188   8.988  21.137  0.00  0.00    +0.000 OA
ATOM     13  H   UNL     1       2.203   7.052  18.827  0.00  0.00    +0.000 HD
BRANCH  11  14
ATOM     14  C   UNL     1       1.787   9.531  18.859  0.00  0.00    +0.000 C 
BRANCH  14  15
ATOM     15  C   UNL     1       0.541   9.647  17.968  0.00  0.00    +0.000 C 
BRANCH  15  16
ATOM     16  C   UNL     1      -0.716  10.080  18.761  0.00  0.00    +0.000 C 
ATOM     17  C   UNL     1      -2.035   9.932  17.977  0.00  0.00    +0.000 C 
ATOM     18  C   UNL     1      -2.350  11.112  17.059  0.00  0.00    +0.000 C 
ATOM     19  N   UNL     1      -2.298  12.384  17.775  0.00  0.00    +0.000 NA
ATOM     20  C   UNL     1      -0.958  12.599  18.318  0.00  0.00    +0.000 C 
ATOM     21  C   UNL     1      -0.583  11.509  19.321  0.00  0.00    +0.000 C 
ATOM     22  H   UNL     1      -2.970  12.365  18.544  0.00  0.00    +0.000 HD
ENDBRANCH  15  16
ENDBRANCH  14  15
ENDBRANCH  11  14
ENDBRANCH   9  10
ENDBRANCH   7   9
ENDBRANCH   4   7
BRANCH   1  23
ATOM     23  O   UNL     1       5.657   3.667  16.225  0.00  0.00    +0.000 OA
BRANCH  23  24
ATOM     24  C   UNL     1       5.318   4.213  14.946  0.00  0.00    +0.000 C 
BRANCH  24  26
ATOM     25  O   UNL     1       7.261   5.244  13.976  0.00  0.00    +0.000 OA
ATOM     26  C   UNL     1       6.425   4.350  13.915  0.00  0.00    +0.000 C 
BRANCH  26  27
ATOM     27  O   UNL     1       6.439   3.418  12.945  0.00  0.00    +0.000 OA
ATOM     28  H   UNL     1       7.016   3.635  12.184  0.00  0.00    +0.000 HD
ENDBRANCH  26  27
ENDBRANCH  24  26
ENDBRANCH  23  24
ENDBRANCH   1  23
BRANCH   6  29
ATOM     29  O   UNL     1       6.309   4.264  18.963  0.00  0.00    +0.000 OA
BRANCH  29  30
ATOM     30  C   UNL     1       6.763   5.614  19.110  0.00  0.00    +0.000 C 
BRANCH  30  31
ATOM     31  C   UNL     1       7.080   6.245  17.764  0.00  0.00    +0.000 C 
ATOM     32  O   UNL     1       6.720   7.360  17.418  0.00  0.00    +0.000 OA
BRANCH  31  33
ATOM     33  O   UNL     1       7.883   5.486  16.978  0.00  0.00    +0.000 OA
ATOM     34  H   UNL     1       7.660   5.640  16.032  0.00  0.00    +0.000 HD
ENDBRANCH  31  33
ENDBRANCH  30  31
ENDBRANCH  29  30
ENDBRANCH   6  29
TORSDOF 14
ENDMDL
MODEL 2
REMARK VINA RESULT:      -7.0      4.020      8.150
REMARK  Name = 
REMARK  14 active torsions:
REMARK  status: ('A' for Active; 'I' for Inactive)
REMARK    1  A    between atoms: C_2  and  O_3
REMARK    2  A    between atoms: C_2  and  C_4
REMARK    3  A    between atoms: C_4  and  O_5
REMARK    4  A    between atoms: O_5  and  C_6
REMARK    5  A    between atoms: C_9  and  C_10
REMARK    6  A    between atoms: C_10  and  C_12
REMARK    7  A    between atoms: C_12  and  N_13
REMARK    8  A    between atoms: C_14  and  C_16
REMARK    9  A    between atoms: C_16  and  C_17
REMARK   10  A    between atoms: C_17  and  C_18
REMARK   11  A    between atoms: C_25  and  O_26
REMARK   12  A    between atoms: O_26  and  C_27
REMARK   13  A    between atoms: C_27  and  C_28
REMARK   14  A    between atoms: C_28  and  O_30
REMARK                            x       y       z     vdW  Elec       q    Type
REMARK                         _______ _______ _______ _____ _____    ______ ____
ROOT
ATOM      1  C   UNL     1       2.406   7.020  19.422  0.00  0.00    +0.000 A 
ATOM      2  C   UNL     1       2.776   7.775  18.294  0.00  0.00    +0.000 A 
ATOM      3  C   UNL     1       3.736   7.315  17.395  0.00  0.00    +0.000 A 
ATOM      4  C   UNL     1       4.406   6.118  17.622  0.00  0.00    +0.000 A 
ATOM      5  C   UNL     1       4.099   5.393  18.791  0.00  0.00    +0.000 A 
ATOM      6  C   UNL     1       3.108   5.833  19.689  0.00  0.00    +0.000 A 
ENDROOT
BRANCH   4   7
ATOM      7  C   UNL     1       5.388   5.573  16.637  0.00  0.00    +0.000 C 
ATOM      8  O   UNL     1       4.952   4.942  15.669  0.00  0.00    +0.000 OA
BRANCH   7   9
ATOM      9  C   UNL     1       6.887   5.877  16.800  0.00  0.00    +0.000 C 
BRANCH   9  10
ATOM     10  N   UNL     1       7.155   7.300  16.887  0.00  0.00    +0.000 N 
ATOM     11  C   UNL     1       7.926   7.842  17.902  0.00  0.00    +0.000 C 
ATOM     12  O   UNL     1       8.404   7.180  18.812  0.00  0.00    +0.000 OA
ATOM     13  H   UNL     1       6.812   7.913  16.159  0.00  0.00    +0.000 HD
BRANCH  11  14
ATOM     14  C   UNL     1       8.041   9.352  17.816  0.00  0.00    +0.000 C 
BRANCH  14  15
ATOM     15  C   UNL     1       9.014   9.950  18.842  0.00  0.00    +0.000 C 
BRANCH  15  16
ATOM     16  C   UNL     1       9.880  11.086  18.245  0.00  0.00    +0.000 C 
ATOM     17  C   UNL     1      11.118  11.443  19.092  0.00  0.00    +0.000 C 
ATOM     18  C   UNL     1      10.831  12.418  20.234  0.00  0.00    +0.000 C 
ATOM     19  N   UNL     1      10.147  13.619  19.761  0.00  0.00    +0.000 NA
ATOM     20  C   UNL     1       8.863  13.260  19.161  0.00  0.00    +0.000 C 
ATOM     21  C   UNL     1       9.051  12.351  17.948  0.00  0.00    +0.000 C 
ATOM     22  H   UNL     1      10.726  14.082  19.058  0.00  0.00    +0.000 HD
ENDBRANCH  15  16
ENDBRANCH  14  15
ENDBRANCH  11  14
ENDBRANCH   9  10
ENDBRANCH   7   9
ENDBRANCH   4   7
BRANCH   1  23
ATOM     23  O   UNL     1       1.357   7.393  20.234  0.00  0.00    +0.000 OA
BRANCH  23  24
ATOM     24  C   UNL     1       1.645   8.533  21.052  0.00  0.00    +0.000 C 
BRANCH  24  26
ATOM     25  O   UNL     1      -0.262   9.736  20.220  0.00  0.00    +0.000 OA
ATOM     26  C   UNL     1       0.677   9.703  21.006  0.00  0.00    +0.000 C 
BRANCH  26  27
ATOM     27  O   UNL     1       0.906  10.686  21.895  0.00  0.00    +0.000 OA
ATOM     28  H   UNL     1       1.624  11.301  21.642  0.00  0.00    +0.000 HD
ENDBRANCH  26  27
ENDBRANCH  24  26
ENDBRANCH  23  24
ENDBRANCH   1  23
BRANCH   6  29
ATOM     29  O   UNL     1       2.786   4.935  20.678  0.00  0.00    +0.000 OA
BRANCH  29  30
ATOM     30  C   UNL     1       3.108   3.562  20.435  0.00  0.00    +0.000 C 
BRANCH  30  31
ATOM     31  C   UNL     1       1.919   2.654  20.705  0.00  0.00    +0.000 C 
ATOM     32  O   UNL     1       1.350   1.984  19.856  0.00  0.00    +0.000 OA
BRANCH  31  33
ATOM     33  O   UNL     1       1.572   2.579  22.014  0.00  0.00    +0.000 OA
ATOM     34  H   UNL     1       1.849   1.709  22.379  0.00  0.00    +0.000 HD
ENDBRANCH  31  33
ENDBRANCH  30  31
ENDBRANCH  29  30
ENDBRANCH   6  29
TORSDOF 14
ENDMDL
MODEL 3
REMARK VINA RESULT:      -6.9      2.140      3.562
REMARK  Name = 
REMARK  14 active torsions:
REMARK  status: ('A' for Active; 'I' for Inactive)
REMARK    1  A    between atoms: C_2  and  O_3
REMARK    2  A    between atoms: C_2  and  C_4
REMARK    3  A    between atoms: C_4  and  O_5
REMARK    4  A    between atoms: O_5  and  C_6
REMARK    5  A    between atoms: C_9  and  C_10
REMARK    6  A    between atoms: C_10  and  C_12
REMARK    7  A    between atoms: C_12  and  N_13
REMARK    8  A    between atoms: C_14  and  C_16
REMARK    9  A    between atoms: C_16  and  C_17
REMARK   10  A    between atoms: C_17  and  C_18
REMARK   11  A    between atoms: C_25  and  O_26
REMARK   12  A    between atoms: O_26  and  C_27
REMARK   13  A    between atoms: C_27  and  C_28
REMARK   14  A    between atoms: C_28  and  O_30
REMARK                            x       y       z     vdW  Elec       q    Type
REMARK                         _______ _______ _______ _____ _____    ______ ____
ROOT
ATOM      1  C   UNL     1       4.459   5.342  17.173  0.00  0.00    +0.000 A 
ATOM      2  C   UNL     1       4.960   6.608  16.820  0.00  0.00    +0.000 A 
ATOM      3  C   UNL     1       4.258   7.775  17.114  0.00  0.00    +0.000 A 
ATOM      4  C   UNL     1       3.005   7.719  17.714  0.00  0.00    +0.000 A 
ATOM      5  C   UNL     1       2.460   6.451  18.000  0.00  0.00    +0.000 A 
ATOM      6  C   UNL     1       3.174   5.267  17.735  0.00  0.00    +0.000 A 
ENDROOT
BRANCH   4   7
ATOM      7  C   UNL     1       2.266   8.958  18.101  0.00  0.00    +0.000 C 
ATOM      8  O   UNL     1       2.399   9.959  17.391  0.00  0.00    +0.000 OA
BRANCH   7   9
ATOM      9  C   UNL     1       1.307   8.936  19.303  0.00  0.00    +0.000 C 
BRANCH   9  10
ATOM     10  N   UNL     1       0.338  10.014  19.256  0.00  0.00    +0.000 N 
ATOM     11  C   UNL     1      -0.481  10.313  20.332  0.00  0.00    +0.000 C 
ATOM     12  O   UNL     1      -0.481   9.679  21.377  0.00  0.00    +0.000 OA
ATOM     13  H   UNL     1       0.289  10.599  18.433  0.00  0.00    +0.000 HD
BRANCH  11  14
ATOM     14  C   UNL     1      -1.442  11.452  20.045  0.00  0.00    +0.000 C 
BRANCH  14  15
ATOM     15  C   UNL     1      -1.801  11.588  18.558  0.00  0.00    +0.000 C 
BRANCH  15  16
ATOM     16  C   UNL     1      -2.717  10.443  18.063  0.00  0.00    +0.000 C 
ATOM     17  C   UNL     1      -2.306   9.856  16.697  0.00  0.00    +0.000 C 
ATOM     18  C   UNL     1      -2.834  10.642  15.497  0.00  0.00    +0.000 C 
ATOM     19  N   UNL     1      -4.278  10.844  15.575  0.00  0.00    +0.000 NA
ATOM     20  C   UNL     1      -4.614  11.606  16.777  0.00  0.00    +0.000 C 
ATOM     21  C   UNL     1      -4.201  10.856  18.043  0.00  0.00    +0.000 C 
ATOM     22  H   UNL     1      -4.743   9.935  15.616  0.00  0.00    +0.000 HD
ENDBRANCH  15  16
ENDBRANCH  14  15
ENDBRANCH  11  14
ENDBRANCH   9  10
ENDBRANCH   7   9
ENDBRANCH   4   7
BRANCH   1  23
ATOM     23  O   UNL     1       5.209   4.195  17.021  0.00  0.00    +0.000 OA
BRANCH  23  24
ATOM     24  C   UNL     1       6.548   4.443  16.578  0.00  0.00    +0.000 C 
BRANCH  24  26
ATOM     25  O   UNL     1       6.257   3.642  14.331  0.00  0.00    +0.000 OA
ATOM     26  C   UNL     1       6.816   4.432  15.084  0.00  0.00    +0.000 C 
BRANCH  26  27
ATOM     27  O   UNL     1       7.688   5.354  14.639  0.00  0.00    +0.000 OA
ATOM     28  H   UNL     1       8.164   5.099  13.821  0.00  0.00    +0.000 HD
ENDBRANCH  26  27
ENDBRANCH  24  26
ENDBRANCH  23  24
ENDBRANCH   1  23
BRANCH   6  29
ATOM     29  O   UNL     1       2.602   4.123  18.237  0.00  0.00    +0.000 OA
BRANCH  29  30
ATOM     30  C   UNL     1       3.075   3.668  19.510  0.00  0.00    +0.000 C 
BRANCH  30  31
ATOM     31  C   UNL     1       3.983   2.458  19.368  0.00  0.00    +0.000 C 
ATOM     32  O   UNL     1       3.624   1.366  18.954  0.00  0.00    +0.000 OA
BRANCH  31  33
ATOM     33  O   UNL     1       5.281   2.707  19.672  0.00  0.00    +0.000 OA
ATOM     34  H   UNL     1       5.834   1.936  19.415  0.00  0.00    +0.000 HD
ENDBRANCH  31  33
ENDBRANCH  30  31
ENDBRANCH  29  30
ENDBRANCH   6  29
TORSDOF 14
ENDMDL
MODEL 4
REMARK VINA RESULT:      -6.8      3.611      4.968
REMARK  Name = 
REMARK  14 active torsions:
REMARK  status: ('A' for Active; 'I' for Inactive)
REMARK    1  A    between atoms: C_2  and  O_3
REMARK    2  A    between atoms: C_2  and  C_4
REMARK    3  A    between atoms: C_4  and  O_5
REMARK    4  A    between atoms: O_5  and  C_6
REMARK    5  A    between atoms: C_9  and  C_10
REMARK    6  A    between atoms: C_10  and  C_12
REMARK    7  A    between atoms: C_12  and  N_13
REMARK    8  A    between atoms: C_14  and  C_16
REMARK    9  A    between atoms: C_16  and  C_17
REMARK   10  A    between atoms: C_17  and  C_18
REMARK   11  A    between atoms: C_25  and  O_26
REMARK   12  A    between atoms: O_26  and  C_27
REMARK   13  A    between atoms: C_27  and  C_28
REMARK   14  A    between atoms: C_28  and  O_30
REMARK                            x       y       z     vdW  Elec       q    Type
REMARK                         _______ _______ _______ _____ _____    ______ ____
ROOT
ATOM      1  C   UNL     1       3.916   5.078  18.774  0.00  0.00    +0.000 A 
ATOM      2  C   UNL     1       3.058   5.281  19.870  0.00  0.00    +0.000 A 
ATOM      3  C   UNL     1       2.293   6.439  19.991  0.00  0.00    +0.000 A 
ATOM      4  C   UNL     1       2.403   7.463  19.056  0.00  0.00    +0.000 A 
ATOM      5  C   UNL     1       3.318   7.303  17.996  0.00  0.00    +0.000 A 
ATOM      6  C   UNL     1       4.073   6.124  17.849  0.00  0.00    +0.000 A 
ENDROOT
BRANCH   4   7
ATOM      7  C   UNL     1       1.542   8.682  19.127  0.00  0.00    +0.000 C 
ATOM      8  O   UNL     1       1.085   9.007  20.227  0.00  0.00    +0.000 OA
BRANCH   7   9
ATOM      9  C   UNL     1       1.320   9.539  17.869  0.00  0.00    +0.000 C 
BRANCH   9  10
ATOM     10  N   UNL     1       2.108  10.756  17.884  0.00  0.00    +0.000 N 
ATOM     11  C   UNL     1       1.637  11.929  18.450  0.00  0.00    +0.000 C 
ATOM     12  O   UNL     1       0.523  12.042  18.941  0.00  0.00    +0.000 OA
ATOM     13  H   UNL     1       3.049  10.740  17.515  0.00  0.00    +0.000 HD
BRANCH  11  14
ATOM     14  C   UNL     1       2.613  13.083  18.317  0.00  0.00    +0.000 C 
BRANCH  14  15
ATOM     15  C   UNL     1       2.185  14.338  19.093  0.00  0.00    +0.000 C 
BRANCH  15  16
ATOM     16  C   UNL     1       2.477  15.643  18.316  0.00  0.00    +0.000 C 
ATOM     17  C   UNL     1       3.822  15.638  17.562  0.00  0.00    +0.000 C 
ATOM     18  C   UNL     1       5.023  16.020  18.427  0.00  0.00    +0.000 C 
ATOM     19  N   UNL     1       4.809  17.287  19.121  0.00  0.00    +0.000 NA
ATOM     20  C   UNL     1       3.649  17.185  20.006  0.00  0.00    +0.000 C 
ATOM     21  C   UNL     1       2.374  16.889  19.217  0.00  0.00    +0.000 C 
ATOM     22  H   UNL     1       4.640  18.023  18.433  0.00  0.00    +0.000 HD
ENDBRANCH  15  16
ENDBRANCH  14  15
ENDBRANCH  11  14
ENDBRANCH   9  10
ENDBRANCH   7   9
ENDBRANCH   4   7
BRANCH   1  23
ATOM     23  O   UNL     1       4.563   3.879  18.569  0.00  0.00    +0.000 OA
BRANCH  23  24
ATOM     24  C   UNL     1       3.815   2.954  17.773  0.00  0.00    +0.000 C 
BRANCH  24  26
ATOM     25  O   UNL     1       2.214   1.694  19.047  0.00  0.00    +0.000 OA
ATOM     26  C   UNL     1       3.283   1.702  18.448  0.00  0.00    +0.000 C 
BRANCH  26  27
ATOM     27  O   UNL     1       4.049   0.604  18.331  0.00  0.00    +0.000 OA
ATOM     28  H   UNL     1       4.951   0.774  17.986  0.00  0.00    +0.000 HD
ENDBRANCH  26  27
ENDBRANCH  24  26
ENDBRANCH  23  24
ENDBRANCH   1  23
BRANCH   6  29
ATOM     29  O   UNL     1       4.778   6.033  16.673  0.00  0.00    +0.000 OA
BRANCH  29  30
ATOM     30  C   UNL     1       6.183   6.299  16.739  0.00  0.00    +0.000 C 
BRANCH  30  31
ATOM     31  C   UNL     1       7.000   5.088  16.319  0.00  0.00    +0.000 C 
ATOM     32  O   UNL     1       7.554   4.964  15.237  0.00  0.00    +0.000 OA
BRANCH  31  33
ATOM     33  O   UNL     1       7.139   4.155  17.295  0.00  0.00    +0.000 OA
ATOM     34  H   UNL     1       6.359   3.557  17.292  0.00  0.00    +0.000 HD
ENDBRANCH  31  33
ENDBRANCH  30  31
ENDBRANCH  29  30
ENDBRANCH   6  29
TORSDOF 14
ENDMDL
MODEL 5
REMARK VINA RESULT:      -6.8      4.042      8.333
REMARK  Name = 
REMARK  14 active torsions:
REMARK  status: ('A' for Active; 'I' for Inactive)
REMARK    1  A    between atoms: C_2  and  O_3
REMARK    2  A    between atoms: C_2  and  C_4
REMARK    3  A    between atoms: C_4  and  O_5
REMARK    4  A    between atoms: O_5  and  C_6
REMARK    5  A    between atoms: C_9  and  C_10
REMARK    6  A    between atoms: C_10  and  C_12
REMARK    7  A    between atoms: C_12  and  N_13
REMARK    8  A    between atoms: C_14  and  C_16
REMARK    9  A    between atoms: C_16  and  C_17
REMARK   10  A    between atoms: C_17  and  C_18
REMARK   11  A    between atoms: C_25  and  O_26
REMARK   12  A    between atoms: O_26  and  C_27
REMARK   13  A    between atoms: C_27  and  C_28
REMARK   14  A    between atoms: C_28  and  O_30
REMARK                            x       y       z     vdW  Elec       q    Type
REMARK                         _______ _______ _______ _____ _____    ______ ____
ROOT
ATOM      1  C   UNL     1       2.209   7.221  19.070  0.00  0.00    +0.000 A 
ATOM      2  C   UNL     1       2.969   8.031  18.207  0.00  0.00    +0.000 A 
ATOM      3  C   UNL     1       3.957   7.492  17.387  0.00  0.00    +0.000 A 
ATOM      4  C   UNL     1       4.267   6.137  17.443  0.00  0.00    +0.000 A 
ATOM      5  C   UNL     1       3.565   5.331  18.362  0.00  0.00    +0.000 A 
ATOM      6  C   UNL     1       2.543   5.861  19.173  0.00  0.00    +0.000 A 
ENDROOT
BRANCH   4   7
ATOM      7  C   UNL     1       5.274   5.526  16.525  0.00  0.00    +0.000 C 
ATOM      8  O   UNL     1       4.861   4.886  15.553  0.00  0.00    +0.000 OA
BRANCH   7   9
ATOM      9  C   UNL     1       6.774   5.776  16.756  0.00  0.00    +0.000 C 
BRANCH   9  10
ATOM     10  N   UNL     1       7.090   7.188  16.857  0.00  0.00    +0.000 N 
ATOM     11  C   UNL     1       7.860   7.696  17.890  0.00  0.00    +0.000 C 
ATOM     12  O   UNL     1       8.299   7.013  18.804  0.00  0.00    +0.000 OA
ATOM     13  H   UNL     1       6.781   7.817  16.128  0.00  0.00    +0.000 HD
BRANCH  11  14
ATOM     14  C   UNL     1       8.029   9.202  17.816  0.00  0.00    +0.000 C 
BRANCH  14  15
ATOM     15  C   UNL     1       9.088   9.746  18.786  0.00  0.00    +0.000 C 
BRANCH  15  16
ATOM     16  C   UNL     1       9.364  11.254  18.575  0.00  0.00    +0.000 C 
ATOM     17  C   UNL     1      10.696  11.555  17.859  0.00  0.00    +0.000 C 
ATOM     18  C   UNL     1      11.911  11.580  18.787  0.00  0.00    +0.000 C 
ATOM     19  N   UNL     1      11.706  12.474  19.924  0.00  0.00    +0.000 NA
ATOM     20  C   UNL     1      10.561  12.024  20.715  0.00  0.00    +0.000 C 
ATOM     21  C   UNL     1       9.274  12.048  19.893  0.00  0.00    +0.000 C 
ATOM     22  H   UNL     1      11.523  13.418  19.580  0.00  0.00    +0.000 HD
ENDBRANCH  15  16
ENDBRANCH  14  15
ENDBRANCH  11  14
ENDBRANCH   9  10
ENDBRANCH   7   9
ENDBRANCH   4   7
BRANCH   1  23
ATOM     23  O   UNL     1       1.133   7.718  19.774  0.00  0.00    +0.000 OA
BRANCH  23  24
ATOM     24  C   UNL     1       1.394   8.980  20.400  0.00  0.00    +0.000 C 
BRANCH  24  26
ATOM     25  O   UNL     1      -0.128   9.177  22.250  0.00  0.00    +0.000 OA
ATOM     26  C   UNL     1       1.036   9.133  21.867  0.00  0.00    +0.000 C 
BRANCH  26  27
ATOM     27  O   UNL     1       2.075   9.197  22.719  0.00  0.00    +0.000 OA
ATOM     28  H   UNL     1       2.679   8.427  22.679  0.00  0.00    +0.000 HD
ENDBRANCH  26  27
ENDBRANCH  24  26
ENDBRANCH  23  24
ENDBRANCH   1  23
BRANCH   6  29
ATOM     29  O   UNL     1       1.823   4.927  19.878  0.00  0.00    +0.000 OA
BRANCH  29  30
ATOM     30  C   UNL     1       2.466   4.334  21.011  0.00  0.00    +0.000 C 
BRANCH  30  31
ATOM     31  C   UNL     1       2.252   2.830  21.051  0.00  0.00    +0.000 C 
ATOM     32  O   UNL     1       1.679   2.187  20.185  0.00  0.00    +0.000 OA
BRANCH  31  33
ATOM     33  O   UNL     1       2.830   2.222  22.117  0.00  0.00    +0.000 OA
ATOM     34  H   UNL     1       2.146   2.023  22.795  0.00  0.00    +0.000 HD
ENDBRANCH  31  33
ENDBRANCH  30  31
ENDBRANCH  29  30
ENDBRANCH   6  29
TORSDOF 14
ENDMDL
MODEL 6
REMARK VINA RESULT:      -6.8      3.432      5.320
REMARK  Name = 
REMARK  14 active torsions:
REMARK  status: ('A' for Active; 'I' for Inactive)
REMARK    1  A    between atoms: C_2  and  O_3
REMARK    2  A    between atoms: C_2  and  C_4
REMARK    3  A    between atoms: C_4  and  O_5
REMARK    4  A    between atoms: O_5  and  C_6
REMARK    5  A    between atoms: C_9  and  C_10
REMARK    6  A    between atoms: C_10  and  C_12
REMARK    7  A    between atoms: C_12  and  N_13
REMARK    8  A    between atoms: C_14  and  C_16
REMARK    9  A    between atoms: C_16  and  C_17
REMARK   10  A    between atoms: C_17  and  C_18
REMARK   11  A    between atoms: C_25  and  O_26
REMARK   12  A    between atoms: O_26  and  C_27
REMARK   13  A    between atoms: C_27  and  C_28
REMARK   14  A    between atoms: C_28  and  O_30
REMARK                            x       y       z     vdW  Elec       q    Type
REMARK                         _______ _______ _______ _____ _____    ______ ____
ROOT
ATOM      1  C   UNL     1       3.702   6.016  18.255  0.00  0.00    +0.000 A 
ATOM      2  C   UNL     1       3.547   7.158  17.448  0.00  0.00    +0.000 A 
ATOM      3  C   UNL     1       2.755   8.231  17.851  0.00  0.00    +0.000 A 
ATOM      4  C   UNL     1       2.039   8.178  19.042  0.00  0.00    +0.000 A 
ATOM      5  C   UNL     1       2.125   7.005  19.819  0.00  0.00    +0.000 A 
ATOM      6  C   UNL     1       2.947   5.928  19.436  0.00  0.00    +0.000 A 
ENDROOT
BRANCH   4   7
ATOM      7  C   UNL     1       1.240   9.343  19.527  0.00  0.00    +0.000 C 
ATOM      8  O   UNL     1       1.095  10.305  18.767  0.00  0.00    +0.000 OA
BRANCH   7   9
ATOM      9  C   UNL     1       0.554   9.284  20.903  0.00  0.00    +0.000 C 
BRANCH   9  10
ATOM     10  N   UNL     1      -0.102  10.531  21.246  0.00  0.00    +0.000 N 
ATOM     11  C   UNL     1      -0.415  10.860  22.555  0.00  0.00    +0.000 C 
ATOM     12  O   UNL     1      -0.201  10.122  23.506  0.00  0.00    +0.000 OA
ATOM     13  H   UNL     1      -0.294  11.205  20.518  0.00  0.00    +0.000 HD
BRANCH  11  14
ATOM     14  C   UNL     1      -1.131  12.192  22.674  0.00  0.00    +0.000 C 
BRANCH  14  15
ATOM     15  C   UNL     1      -2.574  12.066  23.185  0.00  0.00    +0.000 C 
BRANCH  15  16
ATOM     16  C   UNL     1      -3.402  13.351  22.943  0.00  0.00    +0.000 C 
ATOM     17  C   UNL     1      -4.469  13.623  24.023  0.00  0.00    +0.000 C 
ATOM     18  C   UNL     1      -5.783  12.874  23.802  0.00  0.00    +0.000 C 
ATOM     19  N   UNL     1      -6.316  13.098  22.461  0.00  0.00    +0.000 NA
ATOM     20  C   UNL     1      -5.366  12.618  21.458  0.00  0.00    +0.000 C 
ATOM     21  C   UNL     1      -4.041  13.374  21.541  0.00  0.00    +0.000 C 
ATOM     22  H   UNL     1      -6.469  14.098  22.323  0.00  0.00    +0.000 HD
ENDBRANCH  15  16
ENDBRANCH  14  15
ENDBRANCH  11  14
ENDBRANCH   9  10
ENDBRANCH   7   9
ENDBRANCH   4   7
BRANCH   1  23
ATOM     23  O   UNL     1       4.595   5.016  17.936  0.00  0.00    +0.000 OA
BRANCH  23  24
ATOM     24  C   UNL     1       4.040   4.002  17.091  0.00  0.00    +0.000 C 
BRANCH  24  26
ATOM     25  O   UNL     1       3.859   2.093  18.539  0.00  0.00    +0.000 OA
ATOM     26  C   UNL     1       3.304   2.851  17.752  0.00  0.00    +0.000 C 
BRANCH  26  27
ATOM     27  O   UNL     1       2.003   2.729  17.434  0.00  0.00    +0.000 OA
ATOM     28  H   UNL     1       1.614   1.855  17.648  0.00  0.00    +0.000 HD
ENDBRANCH  26  27
ENDBRANCH  24  26
ENDBRANCH  23  24
ENDBRANCH   1  23
BRANCH   6  29
ATOM     29  O   UNL     1       3.077   4.938  20.379  0.00  0.00    +0.000 OA
BRANCH  29  30
ATOM     30  C   UNL     1       1.933   4.667  21.196  0.00  0.00    +0.000 C 
BRANCH  30  31
ATOM     31  C   UNL     1       1.550   3.197  21.150  0.00  0.00    +0.000 C 
ATOM     32  O   UNL     1       1.938   2.353  21.943  0.00  0.00    +0.000 OA
BRANCH  31  33
ATOM     33  O   UNL     1       0.653   2.894  20.178  0.00  0.00    +0.000 OA
ATOM     34  H   UNL     1       1.128   2.556  19.386  0.00  0.00    +0.000 HD
ENDBRANCH  31  33
ENDBRANCH  30  31
ENDBRANCH  29  30
ENDBRANCH   6  29
TORSDOF 14
ENDMDL
MODEL 7
REMARK VINA RESULT:      -6.8      2.016      3.578
REMARK  Name = 
REMARK  14 active torsions:
REMARK  status: ('A' for Active; 'I' for Inactive)
REMARK    1  A    between atoms: C_2  and  O_3
REMARK    2  A    between atoms: C_2  and  C_4
REMARK    3  A    between atoms: C_4  and  O_5
REMARK    4  A    between atoms: O_5  and  C_6
REMARK    5  A    between atoms: C_9  and  C_10
REMARK    6  A    between atoms: C_10  and  C_12
REMARK    7  A    between atoms: C_12  and  N_13
REMARK    8  A    between atoms: C_14  and  C_16
REMARK    9  A    between atoms: C_16  and  C_17
REMARK   10  A    between atoms: C_17  and  C_18
REMARK   11  A    between atoms: C_25  and  O_26
REMARK   12  A    between atoms: O_26  and  C_27
REMARK   13  A    between atoms: C_27  and  C_28
REMARK   14  A    between atoms: C_28  and  O_30
REMARK                            x       y       z     vdW  Elec       q    Type
REMARK                         _______ _______ _______ _____ _____    ______ ____
ROOT
ATOM      1  C   UNL     1       3.446   3.828  19.991  0.00  0.00    +0.000 A 
ATOM      2  C   UNL     1       2.239   4.283  20.553  0.00  0.00    +0.000 A 
ATOM      3  C   UNL     1       1.813   5.599  20.391  0.00  0.00    +0.000 A 
ATOM      4  C   UNL     1       2.603   6.525  19.719  0.00  0.00    +0.000 A 
ATOM      5  C   UNL     1       3.851   6.099  19.222  0.00  0.00    +0.000 A 
ATOM      6  C   UNL     1       4.277   4.763  19.353  0.00  0.00    +0.000 A 
ENDROOT
BRANCH   4   7
ATOM      7  C   UNL     1       2.135   7.922  19.475  0.00  0.00    +0.000 C 
ATOM      8  O   UNL     1       2.428   8.454  18.399  0.00  0.00    +0.000 OA
BRANCH   7   9
ATOM      9  C   UNL     1       1.242   8.624  20.511  0.00  0.00    +0.000 C 
BRANCH   9  10
ATOM     10  N   UNL     1       0.173   9.387  19.893  0.00  0.00    +0.000 N 
ATOM     11  C   UNL     1      -0.095  10.697  20.250  0.00  0.00    +0.000 C 
ATOM     12  O   UNL     1       0.512  11.296  21.126  0.00  0.00    +0.000 OA
ATOM     13  H   UNL     1      -0.363   8.969  19.145  0.00  0.00    +0.000 HD
BRANCH  11  14
ATOM     14  C   UNL     1      -1.279  11.283  19.503  0.00  0.00    +0.000 C 
BRANCH  14  15
ATOM     15  C   UNL     1      -1.285  10.942  18.006  0.00  0.00    +0.000 C 
BRANCH  15  16
ATOM     16  C   UNL     1      -2.472  10.031  17.611  0.00  0.00    +0.000 C 
ATOM     17  C   UNL     1      -2.575   9.754  16.097  0.00  0.00    +0.000 C 
ATOM     18  C   UNL     1      -3.302  10.845  15.312  0.00  0.00    +0.000 C 
ATOM     19  N   UNL     1      -4.611  11.146  15.887  0.00  0.00    +0.000 NA
ATOM     20  C   UNL     1      -4.457  11.624  17.261  0.00  0.00    +0.000 C 
ATOM     21  C   UNL     1      -3.814  10.562  18.150  0.00  0.00    +0.000 C 
ATOM     22  H   UNL     1      -5.179  10.297  15.892  0.00  0.00    +0.000 HD
ENDBRANCH  15  16
ENDBRANCH  14  15
ENDBRANCH  11  14
ENDBRANCH   9  10
ENDBRANCH   7   9
ENDBRANCH   4   7
BRANCH   1  23
ATOM     23  O   UNL     1       3.805   2.498  20.019  0.00  0.00    +0.000 OA
BRANCH  23  24
ATOM     24  C   UNL     1       3.460   1.788  18.824  0.00  0.00    +0.000 C 
BRANCH  24  26
ATOM     25  O   UNL     1       1.074   1.800  18.542  0.00  0.00    +0.000 OA
ATOM     26  C   UNL     1       2.167   2.163  18.123  0.00  0.00    +0.000 C 
BRANCH  26  27
ATOM     27  O   UNL     1       2.297   2.931  17.026  0.00  0.00    +0.000 OA
ATOM     28  H   UNL     1       3.171   2.865  16.588  0.00  0.00    +0.000 HD
ENDBRANCH  26  27
ENDBRANCH  24  26
ENDBRANCH  23  24
ENDBRANCH   1  23
BRANCH   6  29
ATOM     29  O   UNL     1       5.421   4.452  18.658  0.00  0.00    +0.000 OA
BRANCH  29  30
ATOM     30  C   UNL     1       5.473   4.851  17.285  0.00  0.00    +0.000 C 
BRANCH  30  31
ATOM     31  C   UNL     1       6.886   5.223  16.865  0.00  0.00    +0.000 C 
ATOM     32  O   UNL     1       7.838   4.458  16.875  0.00  0.00    +0.000 OA
BRANCH  31  33
ATOM     33  O   UNL     1       7.001   6.489  16.390  0.00  0.00    +0.000 OA
ATOM     34  H   UNL     1       6.985   6.474  15.406  0.00  0.00    +0.000 HD
ENDBRANCH  31  33
ENDBRANCH  30  31
ENDBRANCH  29  30
ENDBRANCH   6  29
TORSDOF 14
ENDMDL
MODEL 8
REMARK VINA RESULT:      -6.7      3.853      5.633
REMARK  Name = 
REMARK  14 active torsions:
REMARK  status: ('A' for Active; 'I' for Inactive)
REMARK    1  A    between atoms: C_2  and  O_3
REMARK    2  A    between atoms: C_2  and  C_4
REMARK    3  A    between atoms: C_4  and  O_5
REMARK    4  A    between atoms: O_5  and  C_6
REMARK    5  A    between atoms: C_9  and  C_10
REMARK    6  A    between atoms: C_10  and  C_12
REMARK    7  A    between atoms: C_12  and  N_13
REMARK    8  A    between atoms: C_14  and  C_16
REMARK    9  A    between atoms: C_16  and  C_17
REMARK   10  A    between atoms: C_17  and  C_18
REMARK   11  A    between atoms: C_25  and  O_26
REMARK   12  A    between atoms: O_26  and  C_27
REMARK   13  A    between atoms: C_27  and  C_28
REMARK   14  A    between atoms: C_28  and  O_30
REMARK                            x       y       z     vdW  Elec       q    Type
REMARK                         _______ _______ _______ _____ _____    ______ ____
ROOT
ATOM      1  C   UNL     1       3.163   6.585  18.369  0.00  0.00    +0.000 A 
ATOM      2  C   UNL     1       2.926   7.694  17.537  0.00  0.00    +0.000 A 
ATOM      3  C   UNL     1       2.189   8.790  17.980  0.00  0.00    +0.000 A 
ATOM      4  C   UNL     1       1.611   8.794  19.245  0.00  0.00    +0.000 A 
ATOM      5  C   UNL     1       1.776   7.653  20.056  0.00  0.00    +0.000 A 
ATOM      6  C   UNL     1       2.544   6.553  19.630  0.00  0.00    +0.000 A 
ENDROOT
BRANCH   4   7
ATOM      7  C   UNL     1       0.876   9.985  19.765  0.00  0.00    +0.000 C 
ATOM      8  O   UNL     1       0.266  10.691  18.957  0.00  0.00    +0.000 OA
BRANCH   7   9
ATOM      9  C   UNL     1       0.825  10.254  21.279  0.00  0.00    +0.000 C 
BRANCH   9  10
ATOM     10  N   UNL     1      -0.031  11.377  21.612  0.00  0.00    +0.000 N 
ATOM     11  C   UNL     1      -0.834  11.379  22.741  0.00  0.00    +0.000 C 
ATOM     12  O   UNL     1      -0.912  10.436  23.515  0.00  0.00    +0.000 OA
ATOM     13  H   UNL     1      -0.008  12.205  21.032  0.00  0.00    +0.000 HD
BRANCH  11  14
ATOM     14  C   UNL     1      -1.672  12.637  22.868  0.00  0.00    +0.000 C 
BRANCH  14  15
ATOM     15  C   UNL     1      -3.183  12.366  22.875  0.00  0.00    +0.000 C 
BRANCH  15  16
ATOM     16  C   UNL     1      -3.850  12.766  24.213  0.00  0.00    +0.000 C 
ATOM     17  C   UNL     1      -5.391  12.707  24.189  0.00  0.00    +0.000 C 
ATOM     18  C   UNL     1      -6.053  13.960  23.619  0.00  0.00    +0.000 C 
ATOM     19  N   UNL     1      -5.578  15.173  24.280  0.00  0.00    +0.000 NA
ATOM     20  C   UNL     1      -4.136  15.316  24.089  0.00  0.00    +0.000 C 
ATOM     21  C   UNL     1      -3.375  14.146  24.708  0.00  0.00    +0.000 C 
ATOM     22  H   UNL     1      -5.778  15.111  25.280  0.00  0.00    +0.000 HD
ENDBRANCH  15  16
ENDBRANCH  14  15
ENDBRANCH  11  14
ENDBRANCH   9  10
ENDBRANCH   7   9
ENDBRANCH   4   7
BRANCH   1  23
ATOM     23  O   UNL     1       4.010   5.564  17.995  0.00  0.00    +0.000 OA
BRANCH  23  24
ATOM     24  C   UNL     1       5.384   5.960  17.918  0.00  0.00    +0.000 C 
BRANCH  24  26
ATOM     25  O   UNL     1       6.731   5.401  19.828  0.00  0.00    +0.000 OA
ATOM     26  C   UNL     1       6.406   5.133  18.677  0.00  0.00    +0.000 C 
BRANCH  26  27
ATOM     27  O   UNL     1       6.916   4.080  18.013  0.00  0.00    +0.000 OA
ATOM     28  H   UNL     1       7.817   4.224  17.657  0.00  0.00    +0.000 HD
ENDBRANCH  26  27
ENDBRANCH  24  26
ENDBRANCH  23  24
ENDBRANCH   1  23
BRANCH   6  29
ATOM     29  O   UNL     1       2.774   5.601  20.593  0.00  0.00    +0.000 OA
BRANCH  29  30
ATOM     30  C   UNL     1       1.783   4.579  20.742  0.00  0.00    +0.000 C 
BRANCH  30  31
ATOM     31  C   UNL     1       2.412   3.197  20.807  0.00  0.00    +0.000 C 
ATOM     32  O   UNL     1       2.815   2.571  19.839  0.00  0.00    +0.000 OA
BRANCH  31  33
ATOM     33  O   UNL     1       2.569   2.725  22.069  0.00  0.00    +0.000 OA
ATOM     34  H   UNL     1       2.992   3.415  22.629  0.00  0.00    +0.000 HD
ENDBRANCH  31  33
ENDBRANCH  30  31
ENDBRANCH  29  30
ENDBRANCH   6  29
TORSDOF 14
ENDMDL
MODEL 9
REMARK VINA RESULT:      -6.7      3.047      5.045
REMARK  Name = 
REMARK  14 active torsions:
REMARK  status: ('A' for Active; 'I' for Inactive)
REMARK    1  A    between atoms: C_2  and  O_3
REMARK    2  A    between atoms: C_2  and  C_4
REMARK    3  A    between atoms: C_4  and  O_5
REMARK    4  A    between atoms: O_5  and  C_6
REMARK    5  A    between atoms: C_9  and  C_10
REMARK    6  A    between atoms: C_10  and  C_12
REMARK    7  A    between atoms: C_12  and  N_13
REMARK    8  A    between atoms: C_14  and  C_16
REMARK    9  A    between atoms: C_16  and  C_17
REMARK   10  A    between atoms: C_17  and  C_18
REMARK   11  A    between atoms: C_25  and  O_26
REMARK   12  A    between atoms: O_26  and  C_27
REMARK   13  A    between atoms: C_27  and  C_28
REMARK   14  A    between atoms: C_28  and  O_30
REMARK                            x       y       z     vdW  Elec       q    Type
REMARK                         _______ _______ _______ _____ _____    ______ ____
ROOT
ATOM      1  C   UNL     1       3.044   6.072  18.409  0.00  0.00    +0.000 A 
ATOM      2  C   UNL     1       2.821   7.409  18.032  0.00  0.00    +0.000 A 
ATOM      3  C   UNL     1       2.183   8.308  18.884  0.00  0.00    +0.000 A 
ATOM      4  C   UNL     1       1.689   7.891  20.115  0.00  0.00    +0.000 A 
ATOM      5  C   UNL     1       1.836   6.534  20.468  0.00  0.00    +0.000 A 
ATOM      6  C   UNL     1       2.507   5.626  19.628  0.00  0.00    +0.000 A 
ENDROOT
BRANCH   4   7
ATOM      7  C   UNL     1       1.063   8.852  21.073  0.00  0.00    +0.000 C 
ATOM      8  O   UNL     1       1.628   9.045  22.154  0.00  0.00    +0.000 OA
BRANCH   7   9
ATOM      9  C   UNL     1      -0.199   9.630  20.664  0.00  0.00    +0.000 C 
BRANCH   9  10
ATOM     10  N   UNL     1       0.105  10.774  19.826  0.00  0.00    +0.000 N 
ATOM     11  C   UNL     1       0.498  11.990  20.359  0.00  0.00    +0.000 C 
ATOM     12  O   UNL     1       0.584  12.206  21.559  0.00  0.00    +0.000 OA
ATOM     13  H   UNL     1       0.077  10.672  18.821  0.00  0.00    +0.000 HD
BRANCH  11  14
ATOM     14  C   UNL     1       0.726  13.053  19.300  0.00  0.00    +0.000 C 
BRANCH  14  15
ATOM     15  C   UNL     1       2.158  13.066  18.745  0.00  0.00    +0.000 C 
BRANCH  15  16
ATOM     16  C   UNL     1       3.011  14.215  19.334  0.00  0.00    +0.000 C 
ATOM     17  C   UNL     1       2.187  15.427  19.812  0.00  0.00    +0.000 C 
ATOM     18  C   UNL     1       1.830  16.415  18.702  0.00  0.00    +0.000 C 
ATOM     19  N   UNL     1       3.011  16.838  17.953  0.00  0.00    +0.000 NA
ATOM     20  C   UNL     1       3.645  15.682  17.321  0.00  0.00    +0.000 C 
ATOM     21  C   UNL     1       4.118  14.670  18.363  0.00  0.00    +0.000 C 
ATOM     22  H   UNL     1       3.677  17.275  18.594  0.00  0.00    +0.000 HD
ENDBRANCH  15  16
ENDBRANCH  14  15
ENDBRANCH  11  14
ENDBRANCH   9  10
ENDBRANCH   7   9
ENDBRANCH   4   7
BRANCH   1  23
ATOM     23  O   UNL     1       3.801   5.217  17.638  0.00  0.00    +0.000 OA
BRANCH  23  24
ATOM     24  C   UNL     1       5.212   5.394  17.806  0.00  0.00    +0.000 C 
BRANCH  24  26
ATOM     25  O   UNL     1       6.685   5.310  19.702  0.00  0.00    +0.000 OA
ATOM     26  C   UNL     1       5.877   4.721  18.993  0.00  0.00    +0.000 C 
BRANCH  26  27
ATOM     27  O   UNL     1       5.509   3.449  19.227  0.00  0.00    +0.000 OA
ATOM     28  H   UNL     1       5.110   3.299  20.109  0.00  0.00    +0.000 HD
ENDBRANCH  26  27
ENDBRANCH  24  26
ENDBRANCH  23  24
ENDBRANCH   1  23
BRANCH   6  29
ATOM     29  O   UNL     1       2.740   4.391  20.182  0.00  0.00    +0.000 OA
BRANCH  29  30
ATOM     30  C   UNL     1       1.688   3.426  20.079  0.00  0.00    +0.000 C 
BRANCH  30  31
ATOM     31  C   UNL     1       2.001   2.368  19.033  0.00  0.00    +0.000 C 
ATOM     32  O   UNL     1       3.125   2.082  18.649  0.00  0.00    +0.000 OA
BRANCH  31  33
ATOM     33  O   UNL     1       0.911   1.687  18.598  0.00  0.00    +0.000 OA
ATOM     34  H   UNL     1       0.913   0.782  18.983  0.00  0.00    +0.000 HD
ENDBRANCH  31  33
ENDBRANCH  30  31
ENDBRANCH  29  30
ENDBRANCH   6  29
TORSDOF 14
ENDMDL
