MODEL 1
REMARK VINA RESULT:      -8.2      0.000      0.000
REMARK  Name = 
REMARK  6 active torsions:
REMARK  status: ('A' for Active; 'I' for Inactive)
REMARK    1  A    between atoms: O_1  and  C_2
REMARK    2  A    between atoms: C_2  and  C_3
REMARK    3  A    between atoms: C_2  and  C_9
REMARK    4  A    between atoms: C_2  and  C_19
REMARK    5  A    between atoms: C_3  and  N_4
REMARK    6  A    between atoms: C_9  and  N_10
REMARK                            x       y       z     vdW  Elec       q    Type
REMARK                         _______ _______ _______ _____ _____    ______ ____
ROOT
ATOM      1  C   UNL     1       3.526   4.206  18.030  0.00  0.00    +0.000 C 
ENDROOT
BRANCH   1   2
ATOM      2  C   UNL     1       2.789   3.530  19.187  0.00  0.00    +0.000 A 
ATOM      3  C   UNL     1       1.384   3.604  19.275  0.00  0.00    +0.000 A 
ATOM      4  C   UNL     1       0.712   3.167  20.417  0.00  0.00    +0.000 A 
ATOM      5  C   UNL     1       1.435   2.624  21.473  0.00  0.00    +0.000 A 
ATOM      6  F   UNL     1       0.792   2.246  22.585  0.00  0.00    +0.000 F 
ATOM      7  C   UNL     1       2.810   2.489  21.397  0.00  0.00    +0.000 A 
ATOM      8  C   UNL     1       3.474   2.948  20.266  0.00  0.00    +0.000 A 
ATOM      9  F   UNL     1       4.811   2.863  20.247  0.00  0.00    +0.000 F 
ENDBRANCH   1   2
BRANCH   1  10
ATOM     10  O   UNL     1       2.589   4.446  16.957  0.00  0.00    +0.000 OA
ATOM     11  H   UNL     1       2.544   3.661  16.379  0.00  0.00    +0.000 HD
ENDBRANCH   1  10
BRANCH   1  12
ATOM     12  C   UNL     1       4.696   3.393  17.407  0.00  0.00    +0.000 C 
BRANCH  12  13
ATOM     13  N   UNL     1       5.634   4.078  16.540  0.00  0.00    +0.000 N 
ATOM     14  C   UNL     1       6.936   4.418  16.726  0.00  0.00    +0.000 A 
ATOM     15  N   UNL     1       7.408   4.980  15.634  0.00  0.00    +0.000 NA
ATOM     16  C   UNL     1       6.338   4.944  14.788  0.00  0.00    +0.000 A 
ATOM     17  N   UNL     1       5.234   4.397  15.287  0.00  0.00    +0.000 NA
ENDBRANCH  12  13
ENDBRANCH   1  12
BRANCH   1  18
ATOM     18  C   UNL     1       4.124   5.555  18.529  0.00  0.00    +0.000 C 
BRANCH  18  19
ATOM     19  N   UNL     1       3.164   6.633  18.711  0.00  0.00    +0.000 N 
ATOM     20  N   UNL     1       2.581   6.831  19.902  0.00  0.00    +0.000 NA
ATOM     21  C   UNL     1       1.911   7.977  19.714  0.00  0.00    +0.000 A 
ATOM     22  C   UNL     1       1.090   8.695  20.604  0.00  0.00    +0.000 A 
ATOM     23  C   UNL     1       0.572   9.900  20.087  0.00  0.00    +0.000 A 
ATOM     24  C   UNL     1       0.840  10.359  18.768  0.00  0.00    +0.000 A 
ATOM     25  C   UNL     1       1.641   9.648  17.851  0.00  0.00    +0.000 A 
ATOM     26  C   UNL     1       2.179   8.446  18.346  0.00  0.00    +0.000 A 
ATOM     27  N   UNL     1       2.988   7.553  17.746  0.00  0.00    +0.000 NA
ENDBRANCH  18  19
ENDBRANCH   1  18
TORSDOF 6
ENDMDL
MODEL 2
REMARK VINA RESULT:      -8.0      2.614      4.870
REMARK  Name = 
REMARK  6 active torsions:
REMARK  status: ('A' for Active; 'I' for Inactive)
REMARK    1  A    between atoms: O_1  and  C_2
REMARK    2  A    between atoms: C_2  and  C_3
REMARK    3  A    between atoms: C_2  and  C_9
REMARK    4  A    between atoms: C_2  and  C_19
REMARK    5  A    between atoms: C_3  and  N_4
REMARK    6  A    between atoms: C_9  and  N_10
REMARK                            x       y       z     vdW  Elec       q    Type
REMARK                         _______ _______ _______ _____ _____    ______ ____
ROOT
ATOM      1  C   UNL     1       3.372   5.949  18.169  0.00  0.00    +0.000 C 
ENDROOT
BRANCH   1   2
ATOM      2  C   UNL     1       4.426   5.445  17.181  0.00  0.00    +0.000 A 
ATOM      3  C   UNL     1       4.849   6.266  16.116  0.00  0.00    +0.000 A 
ATOM      4  C   UNL     1       5.658   5.758  15.097  0.00  0.00    +0.000 A 
ATOM      5  C   UNL     1       6.074   4.433  15.147  0.00  0.00    +0.000 A 
ATOM      6  F   UNL     1       6.812   3.938  14.146  0.00  0.00    +0.000 F 
ATOM      7  C   UNL     1       5.718   3.616  16.206  0.00  0.00    +0.000 A 
ATOM      8  C   UNL     1       4.895   4.122  17.205  0.00  0.00    +0.000 A 
ATOM      9  F   UNL     1       4.515   3.291  18.183  0.00  0.00    +0.000 F 
ENDBRANCH   1   2
BRANCH   1  10
ATOM     10  O   UNL     1       3.814   5.658  19.513  0.00  0.00    +0.000 OA
ATOM     11  H   UNL     1       3.423   6.302  20.134  0.00  0.00    +0.000 HD
ENDBRANCH   1  10
BRANCH   1  12
ATOM     12  C   UNL     1       1.959   5.312  18.032  0.00  0.00    +0.000 C 
BRANCH  12  13
ATOM     13  N   UNL     1       1.610   4.205  18.899  0.00  0.00    +0.000 N 
ATOM     14  C   UNL     1       1.538   2.870  18.655  0.00  0.00    +0.000 A 
ATOM     15  N   UNL     1       1.235   2.232  19.766  0.00  0.00    +0.000 NA
ATOM     16  C   UNL     1       1.147   3.241  20.680  0.00  0.00    +0.000 A 
ATOM     17  N   UNL     1       1.374   4.462  20.206  0.00  0.00    +0.000 NA
ENDBRANCH  12  13
ENDBRANCH   1  12
BRANCH   1  18
ATOM     18  C   UNL     1       3.198   7.486  17.985  0.00  0.00    +0.000 C 
BRANCH  18  19
ATOM     19  N   UNL     1       2.190   8.105  18.832  0.00  0.00    +0.000 N 
ATOM     20  N   UNL     1       2.110   7.793  20.134  0.00  0.00    +0.000 NA
ATOM     21  C   UNL     1       1.196   8.662  20.588  0.00  0.00    +0.000 A 
ATOM     22  C   UNL     1       0.674   8.822  21.886  0.00  0.00    +0.000 A 
ATOM     23  C   UNL     1      -0.250   9.877  22.024  0.00  0.00    +0.000 A 
ATOM     24  C   UNL     1      -0.641  10.715  20.944  0.00  0.00    +0.000 A 
ATOM     25  C   UNL     1      -0.148  10.563  19.631  0.00  0.00    +0.000 A 
ATOM     26  C   UNL     1       0.784   9.522  19.468  0.00  0.00    +0.000 A 
ATOM     27  N   UNL     1       1.450   9.126  18.367  0.00  0.00    +0.000 NA
ENDBRANCH  18  19
ENDBRANCH   1  18
TORSDOF 6
ENDMDL
MODEL 3
REMARK VINA RESULT:      -7.8      2.688      5.112
REMARK  Name = 
REMARK  6 active torsions:
REMARK  status: ('A' for Active; 'I' for Inactive)
REMARK    1  A    between atoms: O_1  and  C_2
REMARK    2  A    between atoms: C_2  and  C_3
REMARK    3  A    between atoms: C_2  and  C_9
REMARK    4  A    between atoms: C_2  and  C_19
REMARK    5  A    between atoms: C_3  and  N_4
REMARK    6  A    between atoms: C_9  and  N_10
REMARK                            x       y       z     vdW  Elec       q    Type
REMARK                         _______ _______ _______ _____ _____    ______ ____
ROOT
ATOM      1  C   UNL     1       4.298   4.973  18.711  0.00  0.00    +0.000 C 
ENDROOT
BRANCH   1   2
ATOM      2  C   UNL     1       5.246   5.125  17.520  0.00  0.00    +0.000 A 
ATOM      3  C   UNL     1       4.748   5.528  16.264  0.00  0.00    +0.000 A 
ATOM      4  C   UNL     1       5.554   5.483  15.125  0.00  0.00    +0.000 A 
ATOM      5  C   UNL     1       6.873   5.062  15.234  0.00  0.00    +0.000 A 
ATOM      6  F   UNL     1       7.631   4.978  14.133  0.00  0.00    +0.000 F 
ATOM      7  C   UNL     1       7.408   4.709  16.461  0.00  0.00    +0.000 A 
ATOM      8  C   UNL     1       6.593   4.735  17.587  0.00  0.00    +0.000 A 
ATOM      9  F   UNL     1       7.118   4.327  18.749  0.00  0.00    +0.000 F 
ENDBRANCH   1   2
BRANCH   1  10
ATOM     10  O   UNL     1       4.795   5.770  19.808  0.00  0.00    +0.000 OA
ATOM     11  H   UNL     1       5.007   5.191  20.565  0.00  0.00    +0.000 HD
ENDBRANCH   1  10
BRANCH   1  12
ATOM     12  C   UNL     1       4.137   3.529  19.266  0.00  0.00    +0.000 C 
BRANCH  12  13
ATOM     13  N   UNL     1       2.879   3.158  19.882  0.00  0.00    +0.000 N 
ATOM     14  C   UNL     1       1.812   2.476  19.391  0.00  0.00    +0.000 A 
ATOM     15  N   UNL     1       0.910   2.321  20.338  0.00  0.00    +0.000 NA
ATOM     16  C   UNL     1       1.494   2.924  21.413  0.00  0.00    +0.000 A 
ATOM     17  N   UNL     1       2.698   3.444  21.192  0.00  0.00    +0.000 NA
ENDBRANCH  12  13
ENDBRANCH   1  12
BRANCH   1  18
ATOM     18  C   UNL     1       2.879   5.462  18.295  0.00  0.00    +0.000 C 
BRANCH  18  19
ATOM     19  N   UNL     1       2.453   6.718  18.892  0.00  0.00    +0.000 N 
ATOM     20  N   UNL     1       2.254   7.802  18.127  0.00  0.00    +0.000 NA
ATOM     21  C   UNL     1       1.729   8.680  18.994  0.00  0.00    +0.000 A 
ATOM     22  C   UNL     1       1.318  10.011  18.788  0.00  0.00    +0.000 A 
ATOM     23  C   UNL     1       0.762  10.638  19.921  0.00  0.00    +0.000 A 
ATOM     24  C   UNL     1       0.630   9.993  21.181  0.00  0.00    +0.000 A 
ATOM     25  C   UNL     1       1.052   8.669  21.419  0.00  0.00    +0.000 A 
ATOM     26  C   UNL     1       1.603   8.016  20.300  0.00  0.00    +0.000 A 
ATOM     27  N   UNL     1       2.077   6.762  20.182  0.00  0.00    +0.000 NA
ENDBRANCH  18  19
ENDBRANCH   1  18
TORSDOF 6
ENDMDL
MODEL 4
REMARK VINA RESULT:      -7.7      2.701      5.011
REMARK  Name = 
REMARK  6 active torsions:
REMARK  status: ('A' for Active; 'I' for Inactive)
REMARK    1  A    between atoms: O_1  and  C_2
REMARK    2  A    between atoms: C_2  and  C_3
REMARK    3  A    between atoms: C_2  and  C_9
REMARK    4  A    between atoms: C_2  and  C_19
REMARK    5  A    between atoms: C_3  and  N_4
REMARK    6  A    between atoms: C_9  and  N_10
REMARK                            x       y       z     vdW  Elec       q    Type
REMARK                         _______ _______ _______ _____ _____    ______ ____
ROOT
ATOM      1  C   UNL     1       3.550   5.945  18.420  0.00  0.00    +0.000 C 
ENDROOT
BRANCH   1   2
ATOM      2  C   UNL     1       4.696   5.477  17.521  0.00  0.00    +0.000 A 
ATOM      3  C   UNL     1       5.893   6.219  17.455  0.00  0.00    +0.000 A 
ATOM      4  C   UNL     1       6.869   5.922  16.501  0.00  0.00    +0.000 A 
ATOM      5  C   UNL     1       6.670   4.865  15.622  0.00  0.00    +0.000 A 
ATOM      6  F   UNL     1       7.587   4.611  14.680  0.00  0.00    +0.000 F 
ATOM      7  C   UNL     1       5.529   4.085  15.695  0.00  0.00    +0.000 A 
ATOM      8  C   UNL     1       4.552   4.400  16.632  0.00  0.00    +0.000 A 
ATOM      9  F   UNL     1       3.430   3.669  16.637  0.00  0.00    +0.000 F 
ENDBRANCH   1   2
BRANCH   1  10
ATOM     10  O   UNL     1       4.009   5.969  19.789  0.00  0.00    +0.000 OA
ATOM     11  H   UNL     1       3.598   6.719  20.260  0.00  0.00    +0.000 HD
ENDBRANCH   1  10
BRANCH   1  12
ATOM     12  C   UNL     1       2.275   5.053  18.407  0.00  0.00    +0.000 C 
BRANCH  12  13
ATOM     13  N   UNL     1       2.033   4.173  19.533  0.00  0.00    +0.000 N 
ATOM     14  C   UNL     1       0.944   4.027  20.333  0.00  0.00    +0.000 A 
ATOM     15  N   UNL     1       1.155   3.057  21.196  0.00  0.00    +0.000 NA
ATOM     16  C   UNL     1       2.405   2.622  20.864  0.00  0.00    +0.000 A 
ATOM     17  N   UNL     1       2.982   3.263  19.853  0.00  0.00    +0.000 NA
ENDBRANCH  12  13
ENDBRANCH   1  12
BRANCH   1  18
ATOM     18  C   UNL     1       3.110   7.372  17.979  0.00  0.00    +0.000 C 
BRANCH  18  19
ATOM     19  N   UNL     1       2.148   8.026  18.853  0.00  0.00    +0.000 N 
ATOM     20  N   UNL     1       2.078   7.700  20.153  0.00  0.00    +0.000 NA
ATOM     21  C   UNL     1       1.215   8.605  20.636  0.00  0.00    +0.000 A 
ATOM     22  C   UNL     1       0.726   8.771  21.946  0.00  0.00    +0.000 A 
ATOM     23  C   UNL     1      -0.144   9.866  22.115  0.00  0.00    +0.000 A 
ATOM     24  C   UNL     1      -0.515  10.736  21.055  0.00  0.00    +0.000 A 
ATOM     25  C   UNL     1      -0.056  10.581  19.731  0.00  0.00    +0.000 A 
ATOM     26  C   UNL     1       0.823   9.499  19.536  0.00  0.00    +0.000 A 
ATOM     27  N   UNL     1       1.448   9.088  18.417  0.00  0.00    +0.000 NA
ENDBRANCH  18  19
ENDBRANCH   1  18
TORSDOF 6
ENDMDL
MODEL 5
REMARK VINA RESULT:      -7.7      0.511      1.405
REMARK  Name = 
REMARK  6 active torsions:
REMARK  status: ('A' for Active; 'I' for Inactive)
REMARK    1  A    between atoms: O_1  and  C_2
REMARK    2  A    between atoms: C_2  and  C_3
REMARK    3  A    between atoms: C_2  and  C_9
REMARK    4  A    between atoms: C_2  and  C_19
REMARK    5  A    between atoms: C_3  and  N_4
REMARK    6  A    between atoms: C_9  and  N_10
REMARK                            x       y       z     vdW  Elec       q    Type
REMARK                         _______ _______ _______ _____ _____    ______ ____
ROOT
ATOM      1  C   UNL     1       3.355   4.295  18.017  0.00  0.00    +0.000 C 
ENDROOT
BRANCH   1   2
ATOM      2  C   UNL     1       2.699   3.567  19.192  0.00  0.00    +0.000 A 
ATOM      3  C   UNL     1       1.302   3.622  19.370  0.00  0.00    +0.000 A 
ATOM      4  C   UNL     1       0.707   3.134  20.535  0.00  0.00    +0.000 A 
ATOM      5  C   UNL     1       1.500   2.560  21.521  0.00  0.00    +0.000 A 
ATOM      6  F   UNL     1       0.932   2.133  22.656  0.00  0.00    +0.000 F 
ATOM      7  C   UNL     1       2.869   2.443  21.355  0.00  0.00    +0.000 A 
ATOM      8  C   UNL     1       3.456   2.952  20.202  0.00  0.00    +0.000 A 
ATOM      9  F   UNL     1       4.789   2.883  20.096  0.00  0.00    +0.000 F 
ENDBRANCH   1   2
BRANCH   1  10
ATOM     10  O   UNL     1       2.329   4.694  17.083  0.00  0.00    +0.000 OA
ATOM     11  H   UNL     1       1.749   5.361  17.497  0.00  0.00    +0.000 HD
ENDBRANCH   1  10
BRANCH   1  12
ATOM     12  C   UNL     1       4.385   3.465  17.199  0.00  0.00    +0.000 C 
BRANCH  12  13
ATOM     13  N   UNL     1       5.347   4.170  16.375  0.00  0.00    +0.000 N 
ATOM     14  C   UNL     1       5.217   4.756  15.156  0.00  0.00    +0.000 A 
ATOM     15  N   UNL     1       6.350   5.334  14.819  0.00  0.00    +0.000 NA
ATOM     16  C   UNL     1       7.151   5.080  15.894  0.00  0.00    +0.000 A 
ATOM     17  N   UNL     1       6.586   4.381  16.874  0.00  0.00    +0.000 NA
ENDBRANCH  12  13
ENDBRANCH   1  12
BRANCH   1  18
ATOM     18  C   UNL     1       4.106   5.550  18.554  0.00  0.00    +0.000 C 
BRANCH  18  19
ATOM     19  N   UNL     1       3.273   6.717  18.798  0.00  0.00    +0.000 N 
ATOM     20  N   UNL     1       2.996   7.576  17.805  0.00  0.00    +0.000 NA
ATOM     21  C   UNL     1       2.100   8.398  18.369  0.00  0.00    +0.000 A 
ATOM     22  C   UNL     1       1.442   9.518  17.828  0.00  0.00    +0.000 A 
ATOM     23  C   UNL     1       0.517  10.135  18.694  0.00  0.00    +0.000 A 
ATOM     24  C   UNL     1       0.267   9.678  20.017  0.00  0.00    +0.000 A 
ATOM     25  C   UNL     1       0.927   8.572  20.590  0.00  0.00    +0.000 A 
ATOM     26  C   UNL     1       1.850   7.932  19.742  0.00  0.00    +0.000 A 
ATOM     27  N   UNL     1       2.622   6.853  19.967  0.00  0.00    +0.000 NA
ENDBRANCH  18  19
ENDBRANCH   1  18
TORSDOF 6
ENDMDL
MODEL 6
REMARK VINA RESULT:      -7.7      2.890      5.266
REMARK  Name = 
REMARK  6 active torsions:
REMARK  status: ('A' for Active; 'I' for Inactive)
REMARK    1  A    between atoms: O_1  and  C_2
REMARK    2  A    between atoms: C_2  and  C_3
REMARK    3  A    between atoms: C_2  and  C_9
REMARK    4  A    between atoms: C_2  and  C_19
REMARK    5  A    between atoms: C_3  and  N_4
REMARK    6  A    between atoms: C_9  and  N_10
REMARK                            x       y       z     vdW  Elec       q    Type
REMARK                         _______ _______ _______ _____ _____    ______ ____
ROOT
ATOM      1  C   UNL     1       4.015   4.840  18.298  0.00  0.00    +0.000 C 
ENDROOT
BRANCH   1   2
ATOM      2  C   UNL     1       4.855   4.939  17.023  0.00  0.00    +0.000 A 
ATOM      3  C   UNL     1       5.174   3.777  16.292  0.00  0.00    +0.000 A 
ATOM      4  C   UNL     1       6.095   3.820  15.244  0.00  0.00    +0.000 A 
ATOM      5  C   UNL     1       6.686   5.029  14.899  0.00  0.00    +0.000 A 
ATOM      6  F   UNL     1       7.602   5.059  13.922  0.00  0.00    +0.000 F 
ATOM      7  C   UNL     1       6.355   6.197  15.563  0.00  0.00    +0.000 A 
ATOM      8  C   UNL     1       5.454   6.143  16.620  0.00  0.00    +0.000 A 
ATOM      9  F   UNL     1       5.201   7.277  17.286  0.00  0.00    +0.000 F 
ENDBRANCH   1   2
BRANCH   1  10
ATOM     10  O   UNL     1       4.665   5.591  19.346  0.00  0.00    +0.000 OA
ATOM     11  H   UNL     1       4.524   6.546  19.202  0.00  0.00    +0.000 HD
ENDBRANCH   1  10
BRANCH   1  12
ATOM     12  C   UNL     1       3.810   3.404  18.861  0.00  0.00    +0.000 C 
BRANCH  12  13
ATOM     13  N   UNL     1       2.811   3.198  19.891  0.00  0.00    +0.000 N 
ATOM     14  C   UNL     1       1.621   2.542  19.860  0.00  0.00    +0.000 A 
ATOM     15  N   UNL     1       1.073   2.562  21.057  0.00  0.00    +0.000 NA
ATOM     16  C   UNL     1       1.995   3.241  21.800  0.00  0.00    +0.000 A 
ATOM     17  N   UNL     1       3.076   3.644  21.140  0.00  0.00    +0.000 NA
ENDBRANCH  12  13
ENDBRANCH   1  12
BRANCH   1  18
ATOM     18  C   UNL     1       2.599   5.426  18.020  0.00  0.00    +0.000 C 
BRANCH  18  19
ATOM     19  N   UNL     1       2.299   6.677  18.698  0.00  0.00    +0.000 N 
ATOM     20  N   UNL     1       2.080   7.798  17.993  0.00  0.00    +0.000 NA
ATOM     21  C   UNL     1       1.688   8.666  18.937  0.00  0.00    +0.000 A 
ATOM     22  C   UNL     1       1.328  10.021  18.817  0.00  0.00    +0.000 A 
ATOM     23  C   UNL     1       0.919  10.631  20.021  0.00  0.00    +0.000 A 
ATOM     24  C   UNL     1       0.881   9.946  21.266  0.00  0.00    +0.000 A 
ATOM     25  C   UNL     1       1.256   8.595  21.416  0.00  0.00    +0.000 A 
ATOM     26  C   UNL     1       1.659   7.960  20.227  0.00  0.00    +0.000 A 
ATOM     27  N   UNL     1       2.056   6.690  20.020  0.00  0.00    +0.000 NA
ENDBRANCH  18  19
ENDBRANCH   1  18
TORSDOF 6
ENDMDL
MODEL 7
REMARK VINA RESULT:      -7.7      2.612      5.134
REMARK  Name = 
REMARK  6 active torsions:
REMARK  status: ('A' for Active; 'I' for Inactive)
REMARK    1  A    between atoms: O_1  and  C_2
REMARK    2  A    between atoms: C_2  and  C_3
REMARK    3  A    between atoms: C_2  and  C_9
REMARK    4  A    between atoms: C_2  and  C_19
REMARK    5  A    between atoms: C_3  and  N_4
REMARK    6  A    between atoms: C_9  and  N_10
REMARK                            x       y       z     vdW  Elec       q    Type
REMARK                         _______ _______ _______ _____ _____    ______ ____
ROOT
ATOM      1  C   UNL     1       4.427   4.731  18.839  0.00  0.00    +0.000 C 
ENDROOT
BRANCH   1   2
ATOM      2  C   UNL     1       5.360   4.714  17.627  0.00  0.00    +0.000 A 
ATOM      3  C   UNL     1       6.454   5.600  17.561  0.00  0.00    +0.000 A 
ATOM      4  C   UNL     1       7.197   5.738  16.387  0.00  0.00    +0.000 A 
ATOM      5  C   UNL     1       6.870   4.971  15.275  0.00  0.00    +0.000 A 
ATOM      6  F   UNL     1       7.556   5.137  14.137  0.00  0.00    +0.000 F 
ATOM      7  C   UNL     1       5.835   4.054  15.323  0.00  0.00    +0.000 A 
ATOM      8  C   UNL     1       5.086   3.939  16.489  0.00  0.00    +0.000 A 
ATOM      9  F   UNL     1       4.050   3.091  16.486  0.00  0.00    +0.000 F 
ENDBRANCH   1   2
BRANCH   1  10
ATOM     10  O   UNL     1       4.948   5.659  19.816  0.00  0.00    +0.000 OA
ATOM     11  H   UNL     1       5.626   5.216  20.361  0.00  0.00    +0.000 HD
ENDBRANCH   1  10
BRANCH   1  12
ATOM     12  C   UNL     1       4.260   3.374  19.581  0.00  0.00    +0.000 C 
BRANCH  12  13
ATOM     13  N   UNL     1       2.959   3.035  20.123  0.00  0.00    +0.000 N 
ATOM     14  C   UNL     1       2.425   3.242  21.355  0.00  0.00    +0.000 A 
ATOM     15  N   UNL     1       1.180   2.817  21.376  0.00  0.00    +0.000 NA
ATOM     16  C   UNL     1       0.993   2.365  20.102  0.00  0.00    +0.000 A 
ATOM     17  N   UNL     1       2.043   2.481  19.295  0.00  0.00    +0.000 NA
ENDBRANCH  12  13
ENDBRANCH   1  12
BRANCH   1  18
ATOM     18  C   UNL     1       3.008   5.177  18.381  0.00  0.00    +0.000 C 
BRANCH  18  19
ATOM     19  N   UNL     1       2.580   6.483  18.860  0.00  0.00    +0.000 N 
ATOM     20  N   UNL     1       2.415   7.502  18.003  0.00  0.00    +0.000 NA
ATOM     21  C   UNL     1       1.877   8.453  18.779  0.00  0.00    +0.000 A 
ATOM     22  C   UNL     1       1.488   9.766  18.453  0.00  0.00    +0.000 A 
ATOM     23  C   UNL     1       0.908  10.490  19.514  0.00  0.00    +0.000 A 
ATOM     24  C   UNL     1       0.733   9.953  20.818  0.00  0.00    +0.000 A 
ATOM     25  C   UNL     1       1.132   8.648  21.176  0.00  0.00    +0.000 A 
ATOM     26  C   UNL     1       1.706   7.901  20.132  0.00  0.00    +0.000 A 
ATOM     27  N   UNL     1       2.169   6.637  20.131  0.00  0.00    +0.000 NA
ENDBRANCH  18  19
ENDBRANCH   1  18
TORSDOF 6
ENDMDL
MODEL 8
REMARK VINA RESULT:      -7.6      2.673      4.976
REMARK  Name = 
REMARK  6 active torsions:
REMARK  status: ('A' for Active; 'I' for Inactive)
REMARK    1  A    between atoms: O_1  and  C_2
REMARK    2  A    between atoms: C_2  and  C_3
REMARK    3  A    between atoms: C_2  and  C_9
REMARK    4  A    between atoms: C_2  and  C_19
REMARK    5  A    between atoms: C_3  and  N_4
REMARK    6  A    between atoms: C_9  and  N_10
REMARK                            x       y       z     vdW  Elec       q    Type
REMARK                         _______ _______ _______ _____ _____    ______ ____
ROOT
ATOM      1  C   UNL     1       3.080   6.182  18.580  0.00  0.00    +0.000 C 
ENDROOT
BRANCH   1   2
ATOM      2  C   UNL     1       4.374   5.840  17.839  0.00  0.00    +0.000 A 
ATOM      3  C   UNL     1       4.661   6.441  16.597  0.00  0.00    +0.000 A 
ATOM      4  C   UNL     1       5.731   6.001  15.817  0.00  0.00    +0.000 A 
ATOM      5  C   UNL     1       6.543   4.974  16.283  0.00  0.00    +0.000 A 
ATOM      6  F   UNL     1       7.542   4.524  15.513  0.00  0.00    +0.000 F 
ATOM      7  C   UNL     1       6.320   4.398  17.522  0.00  0.00    +0.000 A 
ATOM      8  C   UNL     1       5.239   4.827  18.282  0.00  0.00    +0.000 A 
ATOM      9  F   UNL     1       5.009   4.208  19.447  0.00  0.00    +0.000 F 
ENDBRANCH   1   2
BRANCH   1  10
ATOM     10  O   UNL     1       3.341   6.189  20.000  0.00  0.00    +0.000 OA
ATOM     11  H   UNL     1       2.510   6.035  20.488  0.00  0.00    +0.000 HD
ENDBRANCH   1  10
BRANCH   1  12
ATOM     12  C   UNL     1       1.898   5.194  18.363  0.00  0.00    +0.000 C 
BRANCH  12  13
ATOM     13  N   UNL     1       1.732   4.095  19.294  0.00  0.00    +0.000 N 
ATOM     14  C   UNL     1       2.077   2.784  19.196  0.00  0.00    +0.000 A 
ATOM     15  N   UNL     1       1.784   2.164  20.319  0.00  0.00    +0.000 NA
ATOM     16  C   UNL     1       1.269   3.163  21.091  0.00  0.00    +0.000 A 
ATOM     17  N   UNL     1       1.221   4.362  20.518  0.00  0.00    +0.000 NA
ENDBRANCH  12  13
ENDBRANCH   1  12
BRANCH   1  18
ATOM     18  C   UNL     1       2.588   7.586  18.120  0.00  0.00    +0.000 C 
BRANCH  18  19
ATOM     19  N   UNL     1       1.921   8.378  19.141  0.00  0.00    +0.000 N 
ATOM     20  N   UNL     1       1.303   9.525  18.819  0.00  0.00    +0.000 NA
ATOM     21  C   UNL     1       0.693   9.861  19.964  0.00  0.00    +0.000 A 
ATOM     22  C   UNL     1      -0.107  10.981  20.261  0.00  0.00    +0.000 A 
ATOM     23  C   UNL     1      -0.634  10.999  21.568  0.00  0.00    +0.000 A 
ATOM     24  C   UNL     1      -0.376   9.980  22.525  0.00  0.00    +0.000 A 
ATOM     25  C   UNL     1       0.437   8.859  22.259  0.00  0.00    +0.000 A 
ATOM     26  C   UNL     1       0.968   8.812  20.957  0.00  0.00    +0.000 A 
ATOM     27  N   UNL     1       1.756   7.885  20.381  0.00  0.00    +0.000 NA
ENDBRANCH  18  19
ENDBRANCH   1  18
TORSDOF 6
ENDMDL
MODEL 9
REMARK VINA RESULT:      -7.6      2.705      6.479
REMARK  Name = 
REMARK  6 active torsions:
REMARK  status: ('A' for Active; 'I' for Inactive)
REMARK    1  A    between atoms: O_1  and  C_2
REMARK    2  A    between atoms: C_2  and  C_3
REMARK    3  A    between atoms: C_2  and  C_9
REMARK    4  A    between atoms: C_2  and  C_19
REMARK    5  A    between atoms: C_3  and  N_4
REMARK    6  A    between atoms: C_9  and  N_10
REMARK                            x       y       z     vdW  Elec       q    Type
REMARK                         _______ _______ _______ _____ _____    ______ ____
ROOT
ATOM      1  C   UNL     1       4.543   4.573  18.008  0.00  0.00    +0.000 C 
ENDROOT
BRANCH   1   2
ATOM      2  C   UNL     1       3.821   5.872  18.370  0.00  0.00    +0.000 A 
ATOM      3  C   UNL     1       3.092   5.967  19.573  0.00  0.00    +0.000 A 
ATOM      4  C   UNL     1       2.271   7.067  19.829  0.00  0.00    +0.000 A 
ATOM      5  C   UNL     1       2.192   8.095  18.898  0.00  0.00    +0.000 A 
ATOM      6  F   UNL     1       1.369   9.127  19.126  0.00  0.00    +0.000 F 
ATOM      7  C   UNL     1       2.935   8.057  17.731  0.00  0.00    +0.000 A 
ATOM      8  C   UNL     1       3.733   6.949  17.473  0.00  0.00    +0.000 A 
ATOM      9  F   UNL     1       4.391   6.909  16.308  0.00  0.00    +0.000 F 
ENDBRANCH   1   2
BRANCH   1  10
ATOM     10  O   UNL     1       3.882   3.973  16.872  0.00  0.00    +0.000 OA
ATOM     11  H   UNL     1       2.937   4.215  16.876  0.00  0.00    +0.000 HD
ENDBRANCH   1  10
BRANCH   1  12
ATOM     12  C   UNL     1       4.567   3.482  19.117  0.00  0.00    +0.000 C 
BRANCH  12  13
ATOM     13  N   UNL     1       3.307   2.954  19.600  0.00  0.00    +0.000 N 
ATOM     14  C   UNL     1       2.787   2.893  20.854  0.00  0.00    +0.000 A 
ATOM     15  N   UNL     1       1.576   2.379  20.807  0.00  0.00    +0.000 NA
ATOM     16  C   UNL     1       1.394   2.154  19.474  0.00  0.00    +0.000 A 
ATOM     17  N   UNL     1       2.415   2.494  18.693  0.00  0.00    +0.000 NA
ENDBRANCH  12  13
ENDBRANCH   1  12
BRANCH   1  18
ATOM     18  C   UNL     1       6.024   4.897  17.655  0.00  0.00    +0.000 C 
BRANCH  18  19
ATOM     19  N   UNL     1       6.400   4.664  16.269  0.00  0.00    +0.000 N 
ATOM     20  N   UNL     1       5.766   3.734  15.538  0.00  0.00    +0.000 NA
ATOM     21  C   UNL     1       6.272   3.930  14.312  0.00  0.00    +0.000 A 
ATOM     22  C   UNL     1       6.004   3.249  13.110  0.00  0.00    +0.000 A 
ATOM     23  C   UNL     1       6.687   3.750  11.984  0.00  0.00    +0.000 A 
ATOM     24  C   UNL     1       7.586   4.849  12.045  0.00  0.00    +0.000 A 
ATOM     25  C   UNL     1       7.888   5.535  13.239  0.00  0.00    +0.000 A 
ATOM     26  C   UNL     1       7.211   5.060  14.378  0.00  0.00    +0.000 A 
ATOM     27  N   UNL     1       7.257   5.496  15.651  0.00  0.00    +0.000 NA
ENDBRANCH  18  19
ENDBRANCH   1  18
TORSDOF 6
ENDMDL
