MODEL 1
REMARK VINA RESULT:      -6.2      0.000      0.000
REMARK  Name = 
REMARK  10 active torsions:
REMARK  status: ('A' for Active; 'I' for Inactive)
REMARK    1  A    between atoms: C_1  and  O_2
REMARK    2  A    between atoms: O_2  and  C_3
REMARK    3  A    between atoms: C_3  and  C_4
REMARK    4  A    between atoms: C_4  and  C_5
REMARK    5  A    between atoms: C_8  and  C_9
REMARK    6  A    between atoms: C_9  and  N_10
REMARK    7  A    between atoms: N_10  and  C_11
REMARK    8  A    between atoms: C_11  and  C_12
REMARK    9  A    between atoms: C_11  and  C_13
REMARK   10  A    between atoms: C_13  and  N_14
REMARK                            x       y       z     vdW  Elec       q    Type
REMARK                         _______ _______ _______ _____ _____    ______ ____
ROOT
ATOM      1  C   UNL     1       7.427   4.504  17.404  0.00  0.00    +0.000 C 
ENDROOT
BRANCH   1   5
ATOM      2  C   UNL     1       6.368   4.226  14.030  0.00  0.00    +0.000 A 
ATOM      3  N   UNL     1       7.237   5.237  13.883  0.00  0.00    +0.000 NA
ATOM      4  O   UNL     1       7.728   5.420  15.175  0.00  0.00    +0.000 OA
ATOM      5  C   UNL     1       7.093   4.508  15.961  0.00  0.00    +0.000 A 
ATOM      6  N   UNL     1       6.270   3.720  15.296  0.00  0.00    +0.000 NA
BRANCH   2   7
ATOM      7  C   UNL     1       5.517   3.737  12.926  0.00  0.00    +0.000 C 
BRANCH   7   8
ATOM      8  C   UNL     1       6.306   2.923  11.915  0.00  0.00    +0.000 C 
BRANCH   8  10
ATOM      9  C   UNL     1       6.268   0.727  11.094  0.00  0.00    +0.000 C 
ATOM     10  O   UNL     1       5.482   1.869  11.412  0.00  0.00    +0.000 OA
ENDBRANCH   8  10
ENDBRANCH   7   8
ENDBRANCH   2   7
ENDBRANCH   1   5
BRANCH   1  11
ATOM     11  N   UNL     1       6.306   4.103  18.279  0.00  0.00    +0.000 NA
ATOM     12  H   UNL     1       6.732   3.757  19.146  0.00  0.00    +0.000 HD
BRANCH  11  13
ATOM     13  C   UNL     1       5.404   5.228  18.621  0.00  0.00    +0.000 C 
ATOM     14  C   UNL     1       6.073   6.571  18.288  0.00  0.00    +0.000 C 
BRANCH  13  15
ATOM     15  C   UNL     1       4.070   5.113  17.854  0.00  0.00    +0.000 C 
BRANCH  15  16
ATOM     16  N   UNL     1       3.346   3.879  18.100  0.00  0.00    +0.000 N 
ATOM     17  C   UNL     1       2.253   3.418  17.440  0.00  0.00    +0.000 A 
ATOM     18  N   UNL     1       1.811   2.328  18.023  0.00  0.00    +0.000 NA
ATOM     19  C   UNL     1       2.694   2.155  19.053  0.00  0.00    +0.000 A 
ATOM     20  N   UNL     1       3.663   3.074  19.130  0.00  0.00    +0.000 NA
ENDBRANCH  15  16
ENDBRANCH  13  15
ENDBRANCH  11  13
ENDBRANCH   1  11
TORSDOF 8
ENDMDL
MODEL 2
REMARK VINA RESULT:      -6.2      1.425      1.815
REMARK  Name = 
REMARK  10 active torsions:
REMARK  status: ('A' for Active; 'I' for Inactive)
REMARK    1  A    between atoms: C_1  and  O_2
REMARK    2  A    between atoms: O_2  and  C_3
REMARK    3  A    between atoms: C_3  and  C_4
REMARK    4  A    between atoms: C_4  and  C_5
REMARK    5  A    between atoms: C_8  and  C_9
REMARK    6  A    between atoms: C_9  and  N_10
REMARK    7  A    between atoms: N_10  and  C_11
REMARK    8  A    between atoms: C_11  and  C_12
REMARK    9  A    between atoms: C_11  and  C_13
REMARK   10  A    between atoms: C_13  and  N_14
REMARK                            x       y       z     vdW  Elec       q    Type
REMARK                         _______ _______ _______ _____ _____    ______ ____
ROOT
ATOM      1  C   UNL     1       6.217   5.308  17.386  0.00  0.00    +0.000 C 
ENDROOT
BRANCH   1   5
ATOM      2  C   UNL     1       6.731   4.393  13.997  0.00  0.00    +0.000 A 
ATOM      3  N   UNL     1       7.669   5.347  14.091  0.00  0.00    +0.000 NA
ATOM      4  O   UNL     1       7.556   5.771  15.414  0.00  0.00    +0.000 OA
ATOM      5  C   UNL     1       6.555   5.035  15.969  0.00  0.00    +0.000 A 
ATOM      6  N   UNL     1       6.037   4.143  15.148  0.00  0.00    +0.000 NA
BRANCH   2   7
ATOM      7  C   UNL     1       6.410   3.709  12.727  0.00  0.00    +0.000 C 
BRANCH   7   8
ATOM      8  C   UNL     1       4.915   3.512  12.547  0.00  0.00    +0.000 C 
BRANCH   8  10
ATOM      9  C   UNL     1       3.497   3.211  10.705  0.00  0.00    +0.000 C 
ATOM     10  O   UNL     1       4.679   2.761  11.355  0.00  0.00    +0.000 OA
ENDBRANCH   8  10
ENDBRANCH   7   8
ENDBRANCH   2   7
ENDBRANCH   1   5
BRANCH   1  11
ATOM     11  N   UNL     1       5.121   6.282  17.565  0.00  0.00    +0.000 NA
ATOM     12  H   UNL     1       4.818   6.545  16.621  0.00  0.00    +0.000 HD
BRANCH  11  13
ATOM     13  C   UNL     1       3.955   5.720  18.288  0.00  0.00    +0.000 C 
ATOM     14  C   UNL     1       2.873   6.795  18.477  0.00  0.00    +0.000 C 
BRANCH  13  15
ATOM     15  C   UNL     1       3.361   4.521  17.520  0.00  0.00    +0.000 C 
BRANCH  15  16
ATOM     16  N   UNL     1       2.482   3.682  18.313  0.00  0.00    +0.000 N 
ATOM     17  C   UNL     1       2.783   3.023  19.462  0.00  0.00    +0.000 A 
ATOM     18  N   UNL     1       1.767   2.273  19.822  0.00  0.00    +0.000 NA
ATOM     19  C   UNL     1       0.845   2.522  18.843  0.00  0.00    +0.000 A 
ATOM     20  N   UNL     1       1.233   3.393  17.904  0.00  0.00    +0.000 NA
ENDBRANCH  15  16
ENDBRANCH  13  15
ENDBRANCH  11  13
ENDBRANCH   1  11
TORSDOF 8
ENDMDL
MODEL 3
REMARK VINA RESULT:      -6.2      1.177      1.522
REMARK  Name = 
REMARK  10 active torsions:
REMARK  status: ('A' for Active; 'I' for Inactive)
REMARK    1  A    between atoms: C_1  and  O_2
REMARK    2  A    between atoms: O_2  and  C_3
REMARK    3  A    between atoms: C_3  and  C_4
REMARK    4  A    between atoms: C_4  and  C_5
REMARK    5  A    between atoms: C_8  and  C_9
REMARK    6  A    between atoms: C_9  and  N_10
REMARK    7  A    between atoms: N_10  and  C_11
REMARK    8  A    between atoms: C_11  and  C_12
REMARK    9  A    between atoms: C_11  and  C_13
REMARK   10  A    between atoms: C_13  and  N_14
REMARK                            x       y       z     vdW  Elec       q    Type
REMARK                         _______ _______ _______ _____ _____    ______ ____
ROOT
ATOM      1  C   UNL     1       6.404   4.944  16.874  0.00  0.00    +0.000 C 
ENDROOT
BRANCH   1   5
ATOM      2  C   UNL     1       7.030   4.363  13.431  0.00  0.00    +0.000 A 
ATOM      3  N   UNL     1       7.866   5.395  13.614  0.00  0.00    +0.000 NA
ATOM      4  O   UNL     1       7.702   5.697  14.965  0.00  0.00    +0.000 OA
ATOM      5  C   UNL     1       6.777   4.823  15.445  0.00  0.00    +0.000 A 
ATOM      6  N   UNL     1       6.357   3.953  14.547  0.00  0.00    +0.000 NA
BRANCH   2   7
ATOM      7  C   UNL     1       6.788   3.756  12.106  0.00  0.00    +0.000 C 
BRANCH   7   8
ATOM      8  C   UNL     1       5.402   3.142  12.003  0.00  0.00    +0.000 C 
BRANCH   8  10
ATOM      9  C   UNL     1       6.771   1.561  10.945  0.00  0.00    +0.000 C 
ATOM     10  O   UNL     1       5.519   1.783  11.581  0.00  0.00    +0.000 OA
ENDBRANCH   8  10
ENDBRANCH   7   8
ENDBRANCH   2   7
ENDBRANCH   1   5
BRANCH   1  11
ATOM     11  N   UNL     1       5.293   5.884  17.127  0.00  0.00    +0.000 NA
ATOM     12  H   UNL     1       4.892   6.102  16.208  0.00  0.00    +0.000 HD
BRANCH  11  13
ATOM     13  C   UNL     1       4.224   5.306  17.976  0.00  0.00    +0.000 C 
ATOM     14  C   UNL     1       3.178   6.378  18.324  0.00  0.00    +0.000 C 
BRANCH  13  15
ATOM     15  C   UNL     1       3.533   4.127  17.260  0.00  0.00    +0.000 C 
BRANCH  15  16
ATOM     16  N   UNL     1       2.594   3.394  18.089  0.00  0.00    +0.000 N 
ATOM     17  C   UNL     1       2.882   2.541  19.106  0.00  0.00    +0.000 A 
ATOM     18  N   UNL     1       1.777   1.980  19.540  0.00  0.00    +0.000 NA
ATOM     19  C   UNL     1       0.818   2.543  18.743  0.00  0.00    +0.000 A 
ATOM     20  N   UNL     1       1.271   3.429  17.849  0.00  0.00    +0.000 NA
ENDBRANCH  15  16
ENDBRANCH  13  15
ENDBRANCH  11  13
ENDBRANCH   1  11
TORSDOF 8
ENDMDL
MODEL 4
REMARK VINA RESULT:      -6.1      1.299      1.491
REMARK  Name = 
REMARK  10 active torsions:
REMARK  status: ('A' for Active; 'I' for Inactive)
REMARK    1  A    between atoms: C_1  and  O_2
REMARK    2  A    between atoms: O_2  and  C_3
REMARK    3  A    between atoms: C_3  and  C_4
REMARK    4  A    between atoms: C_4  and  C_5
REMARK    5  A    between atoms: C_8  and  C_9
REMARK    6  A    between atoms: C_9  and  N_10
REMARK    7  A    between atoms: N_10  and  C_11
REMARK    8  A    between atoms: C_11  and  C_12
REMARK    9  A    between atoms: C_11  and  C_13
REMARK   10  A    between atoms: C_13  and  N_14
REMARK                            x       y       z     vdW  Elec       q    Type
REMARK                         _______ _______ _______ _____ _____    ______ ____
ROOT
ATOM      1  C   UNL     1       6.245   4.838  17.699  0.00  0.00    +0.000 C 
ENDROOT
BRANCH   1   5
ATOM      2  C   UNL     1       6.634   4.160  14.238  0.00  0.00    +0.000 A 
ATOM      3  N   UNL     1       7.353   5.291  14.302  0.00  0.00    +0.000 NA
ATOM      4  O   UNL     1       7.272   5.639  15.649  0.00  0.00    +0.000 OA
ATOM      5  C   UNL     1       6.504   4.688  16.247  0.00  0.00    +0.000 A 
ATOM      6  N   UNL     1       6.116   3.731  15.427  0.00  0.00    +0.000 NA
BRANCH   2   7
ATOM      7  C   UNL     1       6.353   3.462  12.966  0.00  0.00    +0.000 C 
BRANCH   7   8
ATOM      8  C   UNL     1       4.973   3.796  12.425  0.00  0.00    +0.000 C 
BRANCH   8  10
ATOM      9  C   UNL     1       3.433   3.294  10.731  0.00  0.00    +0.000 C 
ATOM     10  O   UNL     1       4.737   3.038  11.238  0.00  0.00    +0.000 OA
ENDBRANCH   8  10
ENDBRANCH   7   8
ENDBRANCH   2   7
ENDBRANCH   1   5
BRANCH   1  11
ATOM     11  N   UNL     1       4.837   4.611  18.083  0.00  0.00    +0.000 NA
ATOM     12  H   UNL     1       4.852   3.863  18.786  0.00  0.00    +0.000 HD
BRANCH  11  13
ATOM     13  C   UNL     1       4.200   5.805  18.688  0.00  0.00    +0.000 C 
ATOM     14  C   UNL     1       3.875   6.845  17.603  0.00  0.00    +0.000 C 
BRANCH  13  15
ATOM     15  C   UNL     1       2.907   5.417  19.433  0.00  0.00    +0.000 C 
BRANCH  15  16
ATOM     16  N   UNL     1       2.423   4.082  19.133  0.00  0.00    +0.000 N 
ATOM     17  C   UNL     1       1.318   3.745  18.419  0.00  0.00    +0.000 A 
ATOM     18  N   UNL     1       1.142   2.445  18.462  0.00  0.00    +0.000 NA
ATOM     19  C   UNL     1       2.196   2.021  19.224  0.00  0.00    +0.000 A 
ATOM     20  N   UNL     1       3.018   2.990  19.645  0.00  0.00    +0.000 NA
ENDBRANCH  15  16
ENDBRANCH  13  15
ENDBRANCH  11  13
ENDBRANCH   1  11
TORSDOF 8
ENDMDL
MODEL 5
REMARK VINA RESULT:      -6.1      3.652      5.395
REMARK  Name = 
REMARK  10 active torsions:
REMARK  status: ('A' for Active; 'I' for Inactive)
REMARK    1  A    between atoms: C_1  and  O_2
REMARK    2  A    between atoms: O_2  and  C_3
REMARK    3  A    between atoms: C_3  and  C_4
REMARK    4  A    between atoms: C_4  and  C_5
REMARK    5  A    between atoms: C_8  and  C_9
REMARK    6  A    between atoms: C_9  and  N_10
REMARK    7  A    between atoms: N_10  and  C_11
REMARK    8  A    between atoms: C_11  and  C_12
REMARK    9  A    between atoms: C_11  and  C_13
REMARK   10  A    between atoms: C_13  and  N_14
REMARK                            x       y       z     vdW  Elec       q    Type
REMARK                         _______ _______ _______ _____ _____    ______ ____
ROOT
ATOM      1  C   UNL     1       4.089   2.660  19.909  0.00  0.00    +0.000 C 
ENDROOT
BRANCH   1   5
ATOM      2  C   UNL     1       6.336   4.622  17.988  0.00  0.00    +0.000 A 
ATOM      3  N   UNL     1       5.502   4.253  17.005  0.00  0.00    +0.000 NA
ATOM      4  O   UNL     1       4.556   3.474  17.669  0.00  0.00    +0.000 OA
ATOM      5  C   UNL     1       4.930   3.448  18.977  0.00  0.00    +0.000 A 
ATOM      6  N   UNL     1       6.001   4.173  19.235  0.00  0.00    +0.000 NA
BRANCH   2   7
ATOM      7  C   UNL     1       7.571   5.394  17.741  0.00  0.00    +0.000 C 
BRANCH   7   8
ATOM      8  C   UNL     1       7.285   6.867  17.502  0.00  0.00    +0.000 C 
BRANCH   8  10
ATOM      9  C   UNL     1       8.172   8.998  17.910  0.00  0.00    +0.000 C 
ATOM     10  O   UNL     1       8.105   7.653  18.367  0.00  0.00    +0.000 OA
ENDBRANCH   8  10
ENDBRANCH   7   8
ENDBRANCH   2   7
ENDBRANCH   1   5
BRANCH   1  11
ATOM     11  N   UNL     1       2.761   2.308  19.367  0.00  0.00    +0.000 NA
ATOM     12  H   UNL     1       2.802   1.308  19.142  0.00  0.00    +0.000 HD
BRANCH  11  13
ATOM     13  C   UNL     1       1.661   2.521  20.339  0.00  0.00    +0.000 C 
ATOM     14  C   UNL     1       2.225   2.675  21.760  0.00  0.00    +0.000 C 
BRANCH  13  15
ATOM     15  C   UNL     1       0.842   3.775  19.972  0.00  0.00    +0.000 C 
BRANCH  15  16
ATOM     16  N   UNL     1       1.634   4.872  19.447  0.00  0.00    +0.000 N 
ATOM     17  C   UNL     1       2.190   5.897  20.144  0.00  0.00    +0.000 A 
ATOM     18  N   UNL     1       2.731   6.757  19.312  0.00  0.00    +0.000 NA
ATOM     19  C   UNL     1       2.481   6.195  18.091  0.00  0.00    +0.000 A 
ATOM     20  N   UNL     1       1.824   5.030  18.125  0.00  0.00    +0.000 NA
ENDBRANCH  15  16
ENDBRANCH  13  15
ENDBRANCH  11  13
ENDBRANCH   1  11
TORSDOF 8
ENDMDL
MODEL 6
REMARK VINA RESULT:      -6.1      1.595      2.137
REMARK  Name = 
REMARK  10 active torsions:
REMARK  status: ('A' for Active; 'I' for Inactive)
REMARK    1  A    between atoms: C_1  and  O_2
REMARK    2  A    between atoms: O_2  and  C_3
REMARK    3  A    between atoms: C_3  and  C_4
REMARK    4  A    between atoms: C_4  and  C_5
REMARK    5  A    between atoms: C_8  and  C_9
REMARK    6  A    between atoms: C_9  and  N_10
REMARK    7  A    between atoms: N_10  and  C_11
REMARK    8  A    between atoms: C_11  and  C_12
REMARK    9  A    between atoms: C_11  and  C_13
REMARK   10  A    between atoms: C_13  and  N_14
REMARK                            x       y       z     vdW  Elec       q    Type
REMARK                         _______ _______ _______ _____ _____    ______ ____
ROOT
ATOM      1  C   UNL     1       4.633   6.037  16.711  0.00  0.00    +0.000 C 
ENDROOT
BRANCH   1   5
ATOM      2  C   UNL     1       6.568   4.532  14.146  0.00  0.00    +0.000 A 
ATOM      3  N   UNL     1       7.533   5.267  14.718  0.00  0.00    +0.000 NA
ATOM      4  O   UNL     1       6.866   5.900  15.766  0.00  0.00    +0.000 OA
ATOM      5  C   UNL     1       5.571   5.487  15.704  0.00  0.00    +0.000 A 
ATOM      6  N   UNL     1       5.342   4.612  14.744  0.00  0.00    +0.000 NA
BRANCH   2   7
ATOM      7  C   UNL     1       6.786   3.748  12.913  0.00  0.00    +0.000 C 
BRANCH   7   8
ATOM      8  C   UNL     1       5.477   3.349  12.251  0.00  0.00    +0.000 C 
BRANCH   8  10
ATOM      9  C   UNL     1       7.018   1.934  11.194  0.00  0.00    +0.000 C 
ATOM     10  O   UNL     1       5.656   2.111  11.562  0.00  0.00    +0.000 OA
ENDBRANCH   8  10
ENDBRANCH   7   8
ENDBRANCH   2   7
ENDBRANCH   1   5
BRANCH   1  11
ATOM     11  N   UNL     1       3.912   5.005  17.485  0.00  0.00    +0.000 NA
ATOM     12  H   UNL     1       3.373   4.463  16.801  0.00  0.00    +0.000 HD
BRANCH  11  13
ATOM     13  C   UNL     1       4.818   4.079  18.205  0.00  0.00    +0.000 C 
ATOM     14  C   UNL     1       5.521   4.808  19.361  0.00  0.00    +0.000 C 
BRANCH  13  15
ATOM     15  C   UNL     1       4.038   2.869  18.758  0.00  0.00    +0.000 C 
BRANCH  15  16
ATOM     16  N   UNL     1       3.115   3.195  19.829  0.00  0.00    +0.000 N 
ATOM     17  C   UNL     1       3.161   2.768  21.118  0.00  0.00    +0.000 A 
ATOM     18  N   UNL     1       2.091   3.178  21.759  0.00  0.00    +0.000 NA
ATOM     19  C   UNL     1       1.410   3.874  20.799  0.00  0.00    +0.000 A 
ATOM     20  N   UNL     1       2.008   3.925  19.603  0.00  0.00    +0.000 NA
ENDBRANCH  15  16
ENDBRANCH  13  15
ENDBRANCH  11  13
ENDBRANCH   1  11
TORSDOF 8
ENDMDL
MODEL 7
REMARK VINA RESULT:      -6.0      1.846      2.531
REMARK  Name = 
REMARK  10 active torsions:
REMARK  status: ('A' for Active; 'I' for Inactive)
REMARK    1  A    between atoms: C_1  and  O_2
REMARK    2  A    between atoms: O_2  and  C_3
REMARK    3  A    between atoms: C_3  and  C_4
REMARK    4  A    between atoms: C_4  and  C_5
REMARK    5  A    between atoms: C_8  and  C_9
REMARK    6  A    between atoms: C_9  and  N_10
REMARK    7  A    between atoms: N_10  and  C_11
REMARK    8  A    between atoms: C_11  and  C_12
REMARK    9  A    between atoms: C_11  and  C_13
REMARK   10  A    between atoms: C_13  and  N_14
REMARK                            x       y       z     vdW  Elec       q    Type
REMARK                         _______ _______ _______ _____ _____    ______ ____
ROOT
ATOM      1  C   UNL     1       5.888   4.477  16.871  0.00  0.00    +0.000 C 
ENDROOT
BRANCH   1   5
ATOM      2  C   UNL     1       6.989   4.465  13.499  0.00  0.00    +0.000 A 
ATOM      3  N   UNL     1       7.732   5.487  13.947  0.00  0.00    +0.000 NA
ATOM      4  O   UNL     1       7.377   5.568  15.293  0.00  0.00    +0.000 OA
ATOM      5  C   UNL     1       6.450   4.594  15.505  0.00  0.00    +0.000 A 
ATOM      6  N   UNL     1       6.203   3.859  14.438  0.00  0.00    +0.000 NA
BRANCH   2   7
ATOM      7  C   UNL     1       6.958   4.062  12.077  0.00  0.00    +0.000 C 
BRANCH   7   8
ATOM      8  C   UNL     1       6.099   2.830  11.852  0.00  0.00    +0.000 C 
BRANCH   8  10
ATOM      9  C   UNL     1       6.170   0.596  11.144  0.00  0.00    +0.000 C 
ATOM     10  O   UNL     1       6.872   1.833  11.182  0.00  0.00    +0.000 OA
ENDBRANCH   8  10
ENDBRANCH   7   8
ENDBRANCH   2   7
ENDBRANCH   1   5
BRANCH   1  11
ATOM     11  N   UNL     1       5.151   3.219  17.111  0.00  0.00    +0.000 NA
ATOM     12  H   UNL     1       5.771   2.632  17.680  0.00  0.00    +0.000 HD
BRANCH  11  13
ATOM     13  C   UNL     1       3.887   3.420  17.858  0.00  0.00    +0.000 C 
ATOM     14  C   UNL     1       3.083   2.111  17.912  0.00  0.00    +0.000 C 
BRANCH  13  15
ATOM     15  C   UNL     1       4.170   3.910  19.293  0.00  0.00    +0.000 C 
BRANCH  15  16
ATOM     16  N   UNL     1       3.289   4.971  19.745  0.00  0.00    +0.000 N 
ATOM     17  C   UNL     1       2.284   4.878  20.655  0.00  0.00    +0.000 A 
ATOM     18  N   UNL     1       1.635   6.018  20.714  0.00  0.00    +0.000 NA
ATOM     19  C   UNL     1       2.302   6.795  19.809  0.00  0.00    +0.000 A 
ATOM     20  N   UNL     1       3.335   6.200  19.201  0.00  0.00    +0.000 NA
ENDBRANCH  15  16
ENDBRANCH  13  15
ENDBRANCH  11  13
ENDBRANCH   1  11
TORSDOF 8
ENDMDL
MODEL 8
REMARK VINA RESULT:      -6.0      2.244      4.147
REMARK  Name = 
REMARK  10 active torsions:
REMARK  status: ('A' for Active; 'I' for Inactive)
REMARK    1  A    between atoms: C_1  and  O_2
REMARK    2  A    between atoms: O_2  and  C_3
REMARK    3  A    between atoms: C_3  and  C_4
REMARK    4  A    between atoms: C_4  and  C_5
REMARK    5  A    between atoms: C_8  and  C_9
REMARK    6  A    between atoms: C_9  and  N_10
REMARK    7  A    between atoms: N_10  and  C_11
REMARK    8  A    between atoms: C_11  and  C_12
REMARK    9  A    between atoms: C_11  and  C_13
REMARK   10  A    between atoms: C_13  and  N_14
REMARK                            x       y       z     vdW  Elec       q    Type
REMARK                         _______ _______ _______ _____ _____    ______ ____
ROOT
ATOM      1  C   UNL     1       4.361   2.904  19.859  0.00  0.00    +0.000 C 
ENDROOT
BRANCH   1   5
ATOM      2  C   UNL     1       6.041   5.137  17.675  0.00  0.00    +0.000 A 
ATOM      3  N   UNL     1       6.477   5.635  18.842  0.00  0.00    +0.000 NA
ATOM      4  O   UNL     1       5.872   4.803  19.783  0.00  0.00    +0.000 OA
ATOM      5  C   UNL     1       5.130   3.904  19.082  0.00  0.00    +0.000 A 
ATOM      6  N   UNL     1       5.230   4.043  17.774  0.00  0.00    +0.000 NA
BRANCH   2   7
ATOM      7  C   UNL     1       6.350   5.766  16.373  0.00  0.00    +0.000 C 
BRANCH   7   8
ATOM      8  C   UNL     1       5.711   5.021  15.214  0.00  0.00    +0.000 C 
BRANCH   8  10
ATOM      9  C   UNL     1       6.191   3.765  13.294  0.00  0.00    +0.000 C 
ATOM     10  O   UNL     1       6.721   4.313  14.495  0.00  0.00    +0.000 OA
ENDBRANCH   8  10
ENDBRANCH   7   8
ENDBRANCH   2   7
ENDBRANCH   1   5
BRANCH   1  11
ATOM     11  N   UNL     1       3.093   2.493  19.221  0.00  0.00    +0.000 NA
ATOM     12  H   UNL     1       3.227   1.521  18.924  0.00  0.00    +0.000 HD
BRANCH  11  13
ATOM     13  C   UNL     1       1.935   2.542  20.146  0.00  0.00    +0.000 C 
ATOM     14  C   UNL     1       2.417   2.641  21.602  0.00  0.00    +0.000 C 
BRANCH  13  15
ATOM     15  C   UNL     1       1.026   3.745  19.822  0.00  0.00    +0.000 C 
BRANCH  15  16
ATOM     16  N   UNL     1       1.738   4.925  19.368  0.00  0.00    +0.000 N 
ATOM     17  C   UNL     1       2.168   5.971  20.120  0.00  0.00    +0.000 A 
ATOM     18  N   UNL     1       2.665   6.903  19.340  0.00  0.00    +0.000 NA
ATOM     19  C   UNL     1       2.522   6.362  18.093  0.00  0.00    +0.000 A 
ATOM     20  N   UNL     1       1.973   5.143  18.061  0.00  0.00    +0.000 NA
ENDBRANCH  15  16
ENDBRANCH  13  15
ENDBRANCH  11  13
ENDBRANCH   1  11
TORSDOF 8
ENDMDL
MODEL 9
REMARK VINA RESULT:      -5.9      1.559      1.930
REMARK  Name = 
REMARK  10 active torsions:
REMARK  status: ('A' for Active; 'I' for Inactive)
REMARK    1  A    between atoms: C_1  and  O_2
REMARK    2  A    between atoms: O_2  and  C_3
REMARK    3  A    between atoms: C_3  and  C_4
REMARK    4  A    between atoms: C_4  and  C_5
REMARK    5  A    between atoms: C_8  and  C_9
REMARK    6  A    between atoms: C_9  and  N_10
REMARK    7  A    between atoms: N_10  and  C_11
REMARK    8  A    between atoms: C_11  and  C_12
REMARK    9  A    between atoms: C_11  and  C_13
REMARK   10  A    between atoms: C_13  and  N_14
REMARK                            x       y       z     vdW  Elec       q    Type
REMARK                         _______ _______ _______ _____ _____    ______ ____
ROOT
ATOM      1  C   UNL     1       6.794   4.905  17.758  0.00  0.00    +0.000 C 
ENDROOT
BRANCH   1   5
ATOM      2  C   UNL     1       6.288   4.511  14.269  0.00  0.00    +0.000 A 
ATOM      3  N   UNL     1       7.374   5.297  14.226  0.00  0.00    +0.000 NA
ATOM      4  O   UNL     1       7.667   5.504  15.573  0.00  0.00    +0.000 OA
ATOM      5  C   UNL     1       6.719   4.831  16.280  0.00  0.00    +0.000 A 
ATOM      6  N   UNL     1       5.865   4.170  15.523  0.00  0.00    +0.000 NA
BRANCH   2   7
ATOM      7  C   UNL     1       5.549   4.102  13.057  0.00  0.00    +0.000 C 
BRANCH   7   8
ATOM      8  C   UNL     1       6.336   3.113  12.215  0.00  0.00    +0.000 C 
BRANCH   8  10
ATOM      9  C   UNL     1       4.226   2.945  11.209  0.00  0.00    +0.000 C 
ATOM     10  O   UNL     1       5.428   2.254  11.524  0.00  0.00    +0.000 OA
ENDBRANCH   8  10
ENDBRANCH   7   8
ENDBRANCH   2   7
ENDBRANCH   1   5
BRANCH   1  11
ATOM     11  N   UNL     1       6.079   3.813  18.451  0.00  0.00    +0.000 NA
ATOM     12  H   UNL     1       6.398   3.838  19.425  0.00  0.00    +0.000 HD
BRANCH  11  13
ATOM     13  C   UNL     1       4.606   3.985  18.440  0.00  0.00    +0.000 C 
ATOM     14  C   UNL     1       3.915   2.658  18.087  0.00  0.00    +0.000 C 
BRANCH  13  15
ATOM     15  C   UNL     1       4.102   4.479  19.811  0.00  0.00    +0.000 C 
BRANCH  15  16
ATOM     16  N   UNL     1       2.803   3.954  20.192  0.00  0.00    +0.000 N 
ATOM     17  C   UNL     1       1.585   4.372  19.761  0.00  0.00    +0.000 A 
ATOM     18  N   UNL     1       0.642   3.737  20.418  0.00  0.00    +0.000 NA
ATOM     19  C   UNL     1       1.351   2.918  21.252  0.00  0.00    +0.000 A 
ATOM     20  N   UNL     1       2.681   3.006  21.138  0.00  0.00    +0.000 NA
ENDBRANCH  15  16
ENDBRANCH  13  15
ENDBRANCH  11  13
ENDBRANCH   1  11
TORSDOF 8
ENDMDL
