MODEL 1
REMARK VINA RESULT:      -7.5      0.000      0.000
REMARK  Name = 
REMARK  5 active torsions:
REMARK  status: ('A' for Active; 'I' for Inactive)
REMARK    1  A    between atoms: C_1  and  C_2
REMARK    2  A    between atoms: N_4  and  C_5
REMARK    3  A    between atoms: C_8  and  N_9
REMARK    4  A    between atoms: C_12  and  C_13
REMARK    5  A    between atoms: C_15  and  C_16
REMARK                            x       y       z     vdW  Elec       q    Type
REMARK                         _______ _______ _______ _____ _____    ______ ____
ROOT
ATOM      1  C   UNL     1       1.715   7.791  20.376  0.00  0.00    +0.000 A 
ATOM      2  C   UNL     1       2.073   8.129  19.071  0.00  0.00    +0.000 A 
ATOM      3  C   UNL     1       2.536   7.151  18.182  0.00  0.00    +0.000 A 
ATOM      4  C   UNL     1       2.667   5.818  18.582  0.00  0.00    +0.000 A 
ATOM      5  C   UNL     1       2.241   5.487  19.872  0.00  0.00    +0.000 A 
ATOM      6  C   UNL     1       1.803   6.460  20.771  0.00  0.00    +0.000 A 
ENDROOT
BRANCH   4   7
ATOM      7  N   UNL     1       3.188   4.877  17.668  0.00  0.00    +0.000 N 
ATOM      8  C   UNL     1       4.524   4.701  17.300  0.00  0.00    +0.000 A 
ATOM      9  N   UNL     1       5.507   5.013  18.153  0.00  0.00    +0.000 NA
ATOM     10  C   UNL     1       6.774   4.988  17.719  0.00  0.00    +0.000 A 
ATOM     11  C   UNL     1       7.814   5.439  18.697  0.00  0.00    +0.000 C 
ATOM     12  C   UNL     1       7.096   4.627  16.434  0.00  0.00    +0.000 A 
ATOM     13  C   UNL     1       6.036   4.278  15.618  0.00  0.00    +0.000 A 
ATOM     14  C   UNL     1       6.268   3.893  14.189  0.00  0.00    +0.000 C 
ATOM     15  N   UNL     1       4.752   4.302  16.038  0.00  0.00    +0.000 NA
ATOM     16  H   UNL     1       2.626   4.722  16.842  0.00  0.00    +0.000 HD
ENDBRANCH   4   7
BRANCH   1  20
ATOM     17  C   UNL     1      -0.155   9.977  22.804  0.00  0.00    +0.000 C 
ATOM     18  C   UNL     1      -0.001   8.808  21.868  0.00  0.00    +0.000 C 
ATOM     19  O   UNL     1      -0.942   8.052  21.648  0.00  0.00    +0.000 OA
ATOM     20  N   UNL     1       1.271   8.724  21.332  0.00  0.00    +0.000 N 
ATOM     21  H   UNL     1       1.976   9.340  21.718  0.00  0.00    +0.000 HD
ENDBRANCH   1  20
TORSDOF 2
ENDMDL
MODEL 2
REMARK VINA RESULT:      -7.2      0.457      1.188
REMARK  Name = 
REMARK  5 active torsions:
REMARK  status: ('A' for Active; 'I' for Inactive)
REMARK    1  A    between atoms: C_1  and  C_2
REMARK    2  A    between atoms: N_4  and  C_5
REMARK    3  A    between atoms: C_8  and  N_9
REMARK    4  A    between atoms: C_12  and  C_13
REMARK    5  A    between atoms: C_15  and  C_16
REMARK                            x       y       z     vdW  Elec       q    Type
REMARK                         _______ _______ _______ _____ _____    ______ ____
ROOT
ATOM      1  C   UNL     1       1.553   8.291  20.234  0.00  0.00    +0.000 A 
ATOM      2  C   UNL     1       1.796   7.001  20.705  0.00  0.00    +0.000 A 
ATOM      3  C   UNL     1       2.348   6.026  19.864  0.00  0.00    +0.000 A 
ATOM      4  C   UNL     1       2.653   6.314  18.531  0.00  0.00    +0.000 A 
ATOM      5  C   UNL     1       2.464   7.629  18.096  0.00  0.00    +0.000 A 
ATOM      6  C   UNL     1       1.892   8.599  18.919  0.00  0.00    +0.000 A 
ENDROOT
BRANCH   4   7
ATOM      7  N   UNL     1       3.157   5.285  17.706  0.00  0.00    +0.000 N 
ATOM      8  C   UNL     1       4.495   5.015  17.407  0.00  0.00    +0.000 A 
ATOM      9  N   UNL     1       5.459   5.334  18.279  0.00  0.00    +0.000 NA
ATOM     10  C   UNL     1       6.739   5.214  17.902  0.00  0.00    +0.000 A 
ATOM     11  C   UNL     1       7.763   5.676  18.892  0.00  0.00    +0.000 C 
ATOM     12  C   UNL     1       7.090   4.748  16.659  0.00  0.00    +0.000 A 
ATOM     13  C   UNL     1       6.046   4.399  15.824  0.00  0.00    +0.000 A 
ATOM     14  C   UNL     1       6.312   3.904  14.435  0.00  0.00    +0.000 C 
ATOM     15  N   UNL     1       4.750   4.519  16.186  0.00  0.00    +0.000 NA
ATOM     16  H   UNL     1       2.620   5.103  16.868  0.00  0.00    +0.000 HD
ENDBRANCH   4   7
BRANCH   1  20
ATOM     17  C   UNL     1      -0.555  10.520  22.415  0.00  0.00    +0.000 C 
ATOM     18  C   UNL     1      -0.169   9.210  21.780  0.00  0.00    +0.000 C 
ATOM     19  O   UNL     1      -0.841   8.201  21.966  0.00  0.00    +0.000 OA
ATOM     20  N   UNL     1       0.975   9.312  21.010  0.00  0.00    +0.000 N 
ATOM     21  H   UNL     1       1.493  10.181  21.067  0.00  0.00    +0.000 HD
ENDBRANCH   1  20
TORSDOF 2
ENDMDL
MODEL 3
REMARK VINA RESULT:      -7.0      1.117      1.566
REMARK  Name = 
REMARK  5 active torsions:
REMARK  status: ('A' for Active; 'I' for Inactive)
REMARK    1  A    between atoms: C_1  and  C_2
REMARK    2  A    between atoms: N_4  and  C_5
REMARK    3  A    between atoms: C_8  and  N_9
REMARK    4  A    between atoms: C_12  and  C_13
REMARK    5  A    between atoms: C_15  and  C_16
REMARK                            x       y       z     vdW  Elec       q    Type
REMARK                         _______ _______ _______ _____ _____    ______ ____
ROOT
ATOM      1  C   UNL     1       1.300   7.547  20.542  0.00  0.00    +0.000 A 
ATOM      2  C   UNL     1       1.531   6.237  20.962  0.00  0.00    +0.000 A 
ATOM      3  C   UNL     1       2.300   5.363  20.184  0.00  0.00    +0.000 A 
ATOM      4  C   UNL     1       2.839   5.772  18.961  0.00  0.00    +0.000 A 
ATOM      5  C   UNL     1       2.651   7.107  18.588  0.00  0.00    +0.000 A 
ATOM      6  C   UNL     1       1.867   7.976  19.346  0.00  0.00    +0.000 A 
ENDROOT
BRANCH   4   7
ATOM      7  N   UNL     1       3.561   4.841  18.184  0.00  0.00    +0.000 N 
ATOM      8  C   UNL     1       4.784   5.041  17.538  0.00  0.00    +0.000 A 
ATOM      9  N   UNL     1       5.665   5.925  18.019  0.00  0.00    +0.000 NA
ATOM     10  C   UNL     1       6.754   6.214  17.295  0.00  0.00    +0.000 A 
ATOM     11  C   UNL     1       7.649   7.279  17.847  0.00  0.00    +0.000 C 
ATOM     12  C   UNL     1       7.006   5.611  16.087  0.00  0.00    +0.000 A 
ATOM     13  C   UNL     1       6.076   4.678  15.669  0.00  0.00    +0.000 A 
ATOM     14  C   UNL     1       6.235   3.977  14.354  0.00  0.00    +0.000 C 
ATOM     15  N   UNL     1       4.969   4.378  16.385  0.00  0.00    +0.000 NA
ATOM     16  H   UNL     1       2.998   4.251  17.585  0.00  0.00    +0.000 HD
ENDBRANCH   4   7
BRANCH   1  20
ATOM     17  C   UNL     1      -0.192  10.070  22.904  0.00  0.00    +0.000 C 
ATOM     18  C   UNL     1       0.929   9.252  22.319  0.00  0.00    +0.000 C 
ATOM     19  O   UNL     1       2.063   9.319  22.783  0.00  0.00    +0.000 OA
ATOM     20  N   UNL     1       0.515   8.471  21.256  0.00  0.00    +0.000 N 
ATOM     21  H   UNL     1      -0.421   8.630  20.904  0.00  0.00    +0.000 HD
ENDBRANCH   1  20
TORSDOF 2
ENDMDL
MODEL 4
REMARK VINA RESULT:      -7.0      1.352      1.779
REMARK  Name = 
REMARK  5 active torsions:
REMARK  status: ('A' for Active; 'I' for Inactive)
REMARK    1  A    between atoms: C_1  and  C_2
REMARK    2  A    between atoms: N_4  and  C_5
REMARK    3  A    between atoms: C_8  and  N_9
REMARK    4  A    between atoms: C_12  and  C_13
REMARK    5  A    between atoms: C_15  and  C_16
REMARK                            x       y       z     vdW  Elec       q    Type
REMARK                         _______ _______ _______ _____ _____    ______ ____
ROOT
ATOM      1  C   UNL     1       1.297   8.850  19.745  0.00  0.00    +0.000 A 
ATOM      2  C   UNL     1       1.603   7.690  20.457  0.00  0.00    +0.000 A 
ATOM      3  C   UNL     1       2.287   6.634  19.842  0.00  0.00    +0.000 A 
ATOM      4  C   UNL     1       2.666   6.707  18.499  0.00  0.00    +0.000 A 
ATOM      5  C   UNL     1       2.410   7.903  17.820  0.00  0.00    +0.000 A 
ATOM      6  C   UNL     1       1.706   8.948  18.419  0.00  0.00    +0.000 A 
ENDROOT
BRANCH   4   7
ATOM      7  N   UNL     1       3.307   5.597  17.906  0.00  0.00    +0.000 N 
ATOM      8  C   UNL     1       4.595   5.548  17.369  0.00  0.00    +0.000 A 
ATOM      9  N   UNL     1       5.554   6.357  17.836  0.00  0.00    +0.000 NA
ATOM     10  C   UNL     1       6.730   6.404  17.197  0.00  0.00    +0.000 A 
ATOM     11  C   UNL     1       7.722   7.397  17.717  0.00  0.00    +0.000 C 
ATOM     12  C   UNL     1       6.991   5.627  16.095  0.00  0.00    +0.000 A 
ATOM     13  C   UNL     1       5.973   4.786  15.690  0.00  0.00    +0.000 A 
ATOM     14  C   UNL     1       6.137   3.913  14.484  0.00  0.00    +0.000 C 
ATOM     15  N   UNL     1       4.778   4.730  16.320  0.00  0.00    +0.000 NA
ATOM     16  H   UNL     1       2.716   5.021  17.322  0.00  0.00    +0.000 HD
ENDBRANCH   4   7
BRANCH   1  20
ATOM     17  C   UNL     1      -0.331  11.506  21.858  0.00  0.00    +0.000 C 
ATOM     18  C   UNL     1       0.614  10.362  21.603  0.00  0.00    +0.000 C 
ATOM     19  O   UNL     1       1.305   9.905  22.507  0.00  0.00    +0.000 OA
ATOM     20  N   UNL     1       0.587   9.937  20.287  0.00  0.00    +0.000 N 
ATOM     21  H   UNL     1       0.067  10.505  19.629  0.00  0.00    +0.000 HD
ENDBRANCH   1  20
TORSDOF 2
ENDMDL
MODEL 5
REMARK VINA RESULT:      -7.0      1.626      1.683
REMARK  Name = 
REMARK  5 active torsions:
REMARK  status: ('A' for Active; 'I' for Inactive)
REMARK    1  A    between atoms: C_1  and  C_2
REMARK    2  A    between atoms: N_4  and  C_5
REMARK    3  A    between atoms: C_8  and  N_9
REMARK    4  A    between atoms: C_12  and  C_13
REMARK    5  A    between atoms: C_15  and  C_16
REMARK                            x       y       z     vdW  Elec       q    Type
REMARK                         _______ _______ _______ _____ _____    ______ ____
ROOT
ATOM      1  C   UNL     1       1.363   8.971  19.616  0.00  0.00    +0.000 A 
ATOM      2  C   UNL     1       1.760   8.922  18.280  0.00  0.00    +0.000 A 
ATOM      3  C   UNL     1       2.391   7.782  17.764  0.00  0.00    +0.000 A 
ATOM      4  C   UNL     1       2.654   6.675  18.576  0.00  0.00    +0.000 A 
ATOM      5  C   UNL     1       2.191   6.719  19.895  0.00  0.00    +0.000 A 
ATOM      6  C   UNL     1       1.585   7.859  20.422  0.00  0.00    +0.000 A 
ENDROOT
BRANCH   4   7
ATOM      7  N   UNL     1       3.341   5.571  18.027  0.00  0.00    +0.000 N 
ATOM      8  C   UNL     1       4.614   5.562  17.453  0.00  0.00    +0.000 A 
ATOM      9  N   UNL     1       5.537   6.449  17.844  0.00  0.00    +0.000 NA
ATOM     10  C   UNL     1       6.691   6.524  17.167  0.00  0.00    +0.000 A 
ATOM     11  C   UNL     1       7.638   7.600  17.597  0.00  0.00    +0.000 C 
ATOM     12  C   UNL     1       6.964   5.700  16.103  0.00  0.00    +0.000 A 
ATOM     13  C   UNL     1       5.985   4.780  15.779  0.00  0.00    +0.000 A 
ATOM     14  C   UNL     1       6.165   3.849  14.619  0.00  0.00    +0.000 C 
ATOM     15  N   UNL     1       4.813   4.695  16.448  0.00  0.00    +0.000 NA
ATOM     16  H   UNL     1       2.767   4.929  17.496  0.00  0.00    +0.000 HD
ENDBRANCH   4   7
BRANCH   1  20
ATOM     17  C   UNL     1      -0.785  11.883  20.652  0.00  0.00    +0.000 C 
ATOM     18  C   UNL     1      -0.472  10.635  19.870  0.00  0.00    +0.000 C 
ATOM     19  O   UNL     1      -1.262  10.203  19.037  0.00  0.00    +0.000 OA
ATOM     20  N   UNL     1       0.752  10.092  20.210  0.00  0.00    +0.000 N 
ATOM     21  H   UNL     1       1.226  10.486  21.014  0.00  0.00    +0.000 HD
ENDBRANCH   1  20
TORSDOF 2
ENDMDL
MODEL 6
REMARK VINA RESULT:      -6.8      2.766      3.629
REMARK  Name = 
REMARK  5 active torsions:
REMARK  status: ('A' for Active; 'I' for Inactive)
REMARK    1  A    between atoms: C_1  and  C_2
REMARK    2  A    between atoms: N_4  and  C_5
REMARK    3  A    between atoms: C_8  and  N_9
REMARK    4  A    between atoms: C_12  and  C_13
REMARK    5  A    between atoms: C_15  and  C_16
REMARK                            x       y       z     vdW  Elec       q    Type
REMARK                         _______ _______ _______ _____ _____    ______ ____
ROOT
ATOM      1  C   UNL     1       0.933   9.970  18.913  0.00  0.00    +0.000 A 
ATOM      2  C   UNL     1       0.895   9.422  20.195  0.00  0.00    +0.000 A 
ATOM      3  C   UNL     1       1.519   8.198  20.467  0.00  0.00    +0.000 A 
ATOM      4  C   UNL     1       2.179   7.487  19.461  0.00  0.00    +0.000 A 
ATOM      5  C   UNL     1       2.262   8.082  18.199  0.00  0.00    +0.000 A 
ATOM      6  C   UNL     1       1.622   9.289  17.914  0.00  0.00    +0.000 A 
ENDROOT
BRANCH   4   7
ATOM      7  N   UNL     1       2.747   6.232  19.769  0.00  0.00    +0.000 N 
ATOM      8  C   UNL     1       3.435   5.376  18.905  0.00  0.00    +0.000 A 
ATOM      9  N   UNL     1       4.106   5.870  17.858  0.00  0.00    +0.000 NA
ATOM     10  C   UNL     1       4.619   5.021  16.958  0.00  0.00    +0.000 A 
ATOM     11  C   UNL     1       5.275   5.643  15.765  0.00  0.00    +0.000 C 
ATOM     12  C   UNL     1       4.499   3.659  17.092  0.00  0.00    +0.000 A 
ATOM     13  C   UNL     1       3.829   3.216  18.217  0.00  0.00    +0.000 A 
ATOM     14  C   UNL     1       3.616   1.752  18.452  0.00  0.00    +0.000 C 
ATOM     15  N   UNL     1       3.302   4.060  19.132  0.00  0.00    +0.000 NA
ATOM     16  H   UNL     1       2.200   5.653  20.392  0.00  0.00    +0.000 HD
ENDBRANCH   4   7
BRANCH   1  20
ATOM     17  C   UNL     1      -0.189  13.521  18.367  0.00  0.00    +0.000 C 
ATOM     18  C   UNL     1       0.777  12.453  18.808  0.00  0.00    +0.000 C 
ATOM     19  O   UNL     1       1.849  12.751  19.325  0.00  0.00    +0.000 OA
ATOM     20  N   UNL     1       0.304  11.178  18.558  0.00  0.00    +0.000 N 
ATOM     21  H   UNL     1      -0.537  11.099  18.001  0.00  0.00    +0.000 HD
ENDBRANCH   1  20
TORSDOF 2
ENDMDL
MODEL 7
REMARK VINA RESULT:      -6.7      2.092      2.423
REMARK  Name = 
REMARK  5 active torsions:
REMARK  status: ('A' for Active; 'I' for Inactive)
REMARK    1  A    between atoms: C_1  and  C_2
REMARK    2  A    between atoms: N_4  and  C_5
REMARK    3  A    between atoms: C_8  and  N_9
REMARK    4  A    between atoms: C_12  and  C_13
REMARK    5  A    between atoms: C_15  and  C_16
REMARK                            x       y       z     vdW  Elec       q    Type
REMARK                         _______ _______ _______ _____ _____    ______ ____
ROOT
ATOM      1  C   UNL     1       1.209   9.238  19.499  0.00  0.00    +0.000 A 
ATOM      2  C   UNL     1       1.602   8.187  20.327  0.00  0.00    +0.000 A 
ATOM      3  C   UNL     1       2.284   7.082  19.803  0.00  0.00    +0.000 A 
ATOM      4  C   UNL     1       2.572   6.995  18.438  0.00  0.00    +0.000 A 
ATOM      5  C   UNL     1       2.228   8.087  17.635  0.00  0.00    +0.000 A 
ATOM      6  C   UNL     1       1.527   9.180  18.146  0.00  0.00    +0.000 A 
ENDROOT
BRANCH   4   7
ATOM      7  N   UNL     1       3.213   5.838  17.945  0.00  0.00    +0.000 N 
ATOM      8  C   UNL     1       4.505   5.740  17.422  0.00  0.00    +0.000 A 
ATOM      9  N   UNL     1       5.462   6.584  17.825  0.00  0.00    +0.000 NA
ATOM     10  C   UNL     1       6.643   6.574  17.192  0.00  0.00    +0.000 A 
ATOM     11  C   UNL     1       7.634   7.607  17.630  0.00  0.00    +0.000 C 
ATOM     12  C   UNL     1       6.908   5.707  16.161  0.00  0.00    +0.000 A 
ATOM     13  C   UNL     1       5.890   4.836  15.823  0.00  0.00    +0.000 A 
ATOM     14  C   UNL     1       6.059   3.863  14.695  0.00  0.00    +0.000 C 
ATOM     15  N   UNL     1       4.691   4.836  16.447  0.00  0.00    +0.000 NA
ATOM     16  H   UNL     1       2.624   5.215  17.409  0.00  0.00    +0.000 HD
ENDBRANCH   4   7
BRANCH   1  20
ATOM     17  C   UNL     1      -0.069  12.631  20.513  0.00  0.00    +0.000 C 
ATOM     18  C   UNL     1       0.899  11.684  19.854  0.00  0.00    +0.000 C 
ATOM     19  O   UNL     1       1.915  12.103  19.311  0.00  0.00    +0.000 OA
ATOM     20  N   UNL     1       0.495  10.365  19.949  0.00  0.00    +0.000 N 
ATOM     21  H   UNL     1      -0.436  10.192  20.308  0.00  0.00    +0.000 HD
ENDBRANCH   1  20
TORSDOF 2
ENDMDL
MODEL 8
REMARK VINA RESULT:      -6.7      3.324      7.766
REMARK  Name = 
REMARK  5 active torsions:
REMARK  status: ('A' for Active; 'I' for Inactive)
REMARK    1  A    between atoms: C_1  and  C_2
REMARK    2  A    between atoms: N_4  and  C_5
REMARK    3  A    between atoms: C_8  and  N_9
REMARK    4  A    between atoms: C_12  and  C_13
REMARK    5  A    between atoms: C_15  and  C_16
REMARK                            x       y       z     vdW  Elec       q    Type
REMARK                         _______ _______ _______ _____ _____    ______ ____
ROOT
ATOM      1  C   UNL     1       5.983   4.108  14.751  0.00  0.00    +0.000 A 
ATOM      2  C   UNL     1       5.721   3.409  15.928  0.00  0.00    +0.000 A 
ATOM      3  C   UNL     1       5.245   4.076  17.064  0.00  0.00    +0.000 A 
ATOM      4  C   UNL     1       5.039   5.459  17.054  0.00  0.00    +0.000 A 
ATOM      5  C   UNL     1       5.245   6.132  15.845  0.00  0.00    +0.000 A 
ATOM      6  C   UNL     1       5.743   5.479  14.718  0.00  0.00    +0.000 A 
ENDROOT
BRANCH   4   7
ATOM      7  N   UNL     1       4.610   6.097  18.237  0.00  0.00    +0.000 N 
ATOM      8  C   UNL     1       3.583   5.695  19.095  0.00  0.00    +0.000 A 
ATOM      9  N   UNL     1       3.262   4.400  19.203  0.00  0.00    +0.000 NA
ATOM     10  C   UNL     1       2.173   4.059  19.905  0.00  0.00    +0.000 A 
ATOM     11  C   UNL     1       1.820   2.605  19.907  0.00  0.00    +0.000 C 
ATOM     12  C   UNL     1       1.394   4.995  20.539  0.00  0.00    +0.000 A 
ATOM     13  C   UNL     1       1.805   6.309  20.420  0.00  0.00    +0.000 A 
ATOM     14  C   UNL     1       1.016   7.417  21.048  0.00  0.00    +0.000 C 
ATOM     15  N   UNL     1       2.898   6.671  19.711  0.00  0.00    +0.000 NA
ATOM     16  H   UNL     1       4.589   7.108  18.198  0.00  0.00    +0.000 HD
ENDBRANCH   4   7
BRANCH   1  20
ATOM     17  C   UNL     1       6.612   2.510  11.401  0.00  0.00    +0.000 C 
ATOM     18  C   UNL     1       5.780   3.229  12.429  0.00  0.00    +0.000 C 
ATOM     19  O   UNL     1       4.606   3.504  12.205  0.00  0.00    +0.000 OA
ATOM     20  N   UNL     1       6.490   3.510  13.582  0.00  0.00    +0.000 N 
ATOM     21  H   UNL     1       7.489   3.342  13.561  0.00  0.00    +0.000 HD
ENDBRANCH   1  20
TORSDOF 2
ENDMDL
MODEL 9
REMARK VINA RESULT:      -6.7      1.822      2.858
REMARK  Name = 
REMARK  5 active torsions:
REMARK  status: ('A' for Active; 'I' for Inactive)
REMARK    1  A    between atoms: C_1  and  C_2
REMARK    2  A    between atoms: N_4  and  C_5
REMARK    3  A    between atoms: C_8  and  N_9
REMARK    4  A    between atoms: C_12  and  C_13
REMARK    5  A    between atoms: C_15  and  C_16
REMARK                            x       y       z     vdW  Elec       q    Type
REMARK                         _______ _______ _______ _____ _____    ______ ____
ROOT
ATOM      1  C   UNL     1       0.452   9.286  20.423  0.00  0.00    +0.000 A 
ATOM      2  C   UNL     1       0.572   9.746  19.113  0.00  0.00    +0.000 A 
ATOM      3  C   UNL     1       1.489   9.160  18.231  0.00  0.00    +0.000 A 
ATOM      4  C   UNL     1       2.317   8.113  18.644  0.00  0.00    +0.000 A 
ATOM      5  C   UNL     1       2.137   7.622  19.941  0.00  0.00    +0.000 A 
ATOM      6  C   UNL     1       1.244   8.217  20.833  0.00  0.00    +0.000 A 
ENDROOT
BRANCH   4   7
ATOM      7  N   UNL     1       3.264   7.589  17.738  0.00  0.00    +0.000 N 
ATOM      8  C   UNL     1       3.585   6.246  17.528  0.00  0.00    +0.000 A 
ATOM      9  N   UNL     1       2.673   5.291  17.746  0.00  0.00    +0.000 NA
ATOM     10  C   UNL     1       3.053   4.008  17.693  0.00  0.00    +0.000 A 
ATOM     11  C   UNL     1       2.006   2.996  18.039  0.00  0.00    +0.000 C 
ATOM     12  C   UNL     1       4.343   3.643  17.396  0.00  0.00    +0.000 A 
ATOM     13  C   UNL     1       5.224   4.677  17.142  0.00  0.00    +0.000 A 
ATOM     14  C   UNL     1       6.663   4.397  16.834  0.00  0.00    +0.000 C 
ATOM     15  N   UNL     1       4.858   5.978  17.196  0.00  0.00    +0.000 NA
ATOM     16  H   UNL     1       4.122   8.119  17.657  0.00  0.00    +0.000 HD
ENDBRANCH   4   7
BRANCH   1  20
ATOM     17  C   UNL     1      -1.365  11.323  23.015  0.00  0.00    +0.000 C 
ATOM     18  C   UNL     1      -0.292  11.074  21.988  0.00  0.00    +0.000 C 
ATOM     19  O   UNL     1       0.576  11.914  21.772  0.00  0.00    +0.000 OA
ATOM     20  N   UNL     1      -0.425   9.844  21.372  0.00  0.00    +0.000 N 
ATOM     21  H   UNL     1      -1.272   9.322  21.561  0.00  0.00    +0.000 HD
ENDBRANCH   1  20
TORSDOF 2
ENDMDL
