MODEL 1
REMARK VINA RESULT:      -6.9      0.000      0.000
REMARK  Name = 
REMARK  7 active torsions:
REMARK  status: ('A' for Active; 'I' for Inactive)
REMARK    1  A    between atoms: C_1  and  C_2
REMARK    2  A    between atoms: C_2  and  O_3
REMARK    3  A    between atoms: O_3  and  C_4
REMARK    4  A    between atoms: C_4  and  C_6
REMARK    5  A    between atoms: C_10  and  S_11
REMARK    6  A    between atoms: N_12  and  C_13
REMARK    7  A    between atoms: C_17  and  C_18
REMARK                            x       y       z     vdW  Elec       q    Type
REMARK                         _______ _______ _______ _____ _____    ______ ____
ROOT
ATOM      1  C   UNL     1       6.830   4.599  16.405  0.00  0.00    +0.000 C 
ATOM      2  C   UNL     1       5.530   3.830  16.648  0.00  0.00    +0.000 C 
ATOM      3  C   UNL     1       4.332   4.684  16.238  0.00  0.00    +0.000 C 
ATOM      4  N   UNL     1       4.330   5.901  17.059  0.00  0.00    +0.000 N 
ATOM      5  C   UNL     1       3.253   6.360  17.818  0.00  0.00    +0.000 C 
ATOM      6  N   UNL     1       3.193   7.589  18.255  0.00  0.00    +0.000 NA
ATOM      7  C   UNL     1       5.501   6.752  16.819  0.00  0.00    +0.000 C 
ATOM      8  C   UNL     1       6.784   5.960  17.115  0.00  0.00    +0.000 C 
ENDROOT
BRANCH   6   9
ATOM      9  C   UNL     1       2.170   8.109  19.074  0.00  0.00    +0.000 A 
ATOM     10  C   UNL     1       1.962   7.688  20.392  0.00  0.00    +0.000 A 
ATOM     11  C   UNL     1       0.923   8.203  21.172  0.00  0.00    +0.000 A 
ATOM     12  C   UNL     1       0.135   9.236  20.677  0.00  0.00    +0.000 A 
ATOM     13  C   UNL     1       0.385   9.764  19.409  0.00  0.00    +0.000 A 
ATOM     14  C   UNL     1      -0.383  10.963  18.934  0.00  0.00    +0.000 C 
ATOM     15  C   UNL     1       1.390   9.182  18.608  0.00  0.00    +0.000 A 
ENDBRANCH   6   9
BRANCH   1  16
ATOM     16  C   UNL     1       7.113   4.660  14.905  0.00  0.00    +0.000 C 
ATOM     17  O   UNL     1       7.758   5.551  14.372  0.00  0.00    +0.000 OA
BRANCH  16  18
ATOM     18  O   UNL     1       6.446   3.685  14.240  0.00  0.00    +0.000 OA
BRANCH  18  20
ATOM     19  C   UNL     1       5.197   3.303  12.247  0.00  0.00    +0.000 C 
ATOM     20  C   UNL     1       6.535   3.749  12.808  0.00  0.00    +0.000 C 
ENDBRANCH  18  20
ENDBRANCH  16  18
ENDBRANCH   1  16
BRANCH   5  21
ATOM     21  S   UNL     1       2.013   5.145  18.192  0.00  0.00    +0.000 S 
ATOM     22  H   UNL     1       2.027   4.603  16.966  0.00  0.00    +0.000 HD
ENDBRANCH   5  21
TORSDOF 5
ENDMDL
MODEL 2
REMARK VINA RESULT:      -6.4      4.348      8.836
REMARK  Name = 
REMARK  7 active torsions:
REMARK  status: ('A' for Active; 'I' for Inactive)
REMARK    1  A    between atoms: C_1  and  C_2
REMARK    2  A    between atoms: C_2  and  O_3
REMARK    3  A    between atoms: O_3  and  C_4
REMARK    4  A    between atoms: C_4  and  C_6
REMARK    5  A    between atoms: C_10  and  S_11
REMARK    6  A    between atoms: N_12  and  C_13
REMARK    7  A    between atoms: C_17  and  C_18
REMARK                            x       y       z     vdW  Elec       q    Type
REMARK                         _______ _______ _______ _____ _____    ______ ____
ROOT
ATOM      1  C   UNL     1      -0.529  10.168  21.014  0.00  0.00    +0.000 C 
ATOM      2  C   UNL     1      -0.222   8.870  21.763  0.00  0.00    +0.000 C 
ATOM      3  C   UNL     1       1.261   8.530  21.636  0.00  0.00    +0.000 C 
ATOM      4  N   UNL     1       1.572   8.348  20.213  0.00  0.00    +0.000 N 
ATOM      5  C   UNL     1       2.192   7.226  19.660  0.00  0.00    +0.000 C 
ATOM      6  N   UNL     1       2.731   7.253  18.471  0.00  0.00    +0.000 NA
ATOM      7  C   UNL     1       1.397   9.576  19.429  0.00  0.00    +0.000 C 
ATOM      8  C   UNL     1      -0.053  10.067  19.557  0.00  0.00    +0.000 C 
ENDROOT
BRANCH   6   9
ATOM      9  C   UNL     1       3.321   6.150  17.823  0.00  0.00    +0.000 A 
ATOM     10  C   UNL     1       4.585   6.204  17.224  0.00  0.00    +0.000 A 
ATOM     11  C   UNL     1       5.133   5.101  16.565  0.00  0.00    +0.000 A 
ATOM     12  C   UNL     1       4.467   3.881  16.588  0.00  0.00    +0.000 A 
ATOM     13  C   UNL     1       3.257   3.756  17.274  0.00  0.00    +0.000 A 
ATOM     14  C   UNL     1       2.609   2.407  17.405  0.00  0.00    +0.000 C 
ATOM     15  C   UNL     1       2.683   4.897  17.870  0.00  0.00    +0.000 A 
ENDBRANCH   6   9
BRANCH   1  16
ATOM     16  C   UNL     1       0.031  11.354  21.798  0.00  0.00    +0.000 C 
ATOM     17  O   UNL     1       0.935  12.069  21.392  0.00  0.00    +0.000 OA
BRANCH  16  18
ATOM     18  O   UNL     1      -0.505  11.417  23.042  0.00  0.00    +0.000 OA
BRANCH  18  20
ATOM     19  C   UNL     1      -2.122  13.134  22.704  0.00  0.00    +0.000 C 
ATOM     20  C   UNL     1      -1.916  11.679  23.088  0.00  0.00    +0.000 C 
ENDBRANCH  18  20
ENDBRANCH  16  18
ENDBRANCH   1  16
BRANCH   5  21
ATOM     21  S   UNL     1       2.140   5.759  20.658  0.00  0.00    +0.000 S 
ATOM     22  H   UNL     1       3.429   5.452  20.458  0.00  0.00    +0.000 HD
ENDBRANCH   5  21
TORSDOF 5
ENDMDL
MODEL 3
REMARK VINA RESULT:      -6.3      4.127      8.321
REMARK  Name = 
REMARK  7 active torsions:
REMARK  status: ('A' for Active; 'I' for Inactive)
REMARK    1  A    between atoms: C_1  and  C_2
REMARK    2  A    between atoms: C_2  and  O_3
REMARK    3  A    between atoms: O_3  and  C_4
REMARK    4  A    between atoms: C_4  and  C_6
REMARK    5  A    between atoms: C_10  and  S_11
REMARK    6  A    between atoms: N_12  and  C_13
REMARK    7  A    between atoms: C_17  and  C_18
REMARK                            x       y       z     vdW  Elec       q    Type
REMARK                         _______ _______ _______ _____ _____    ______ ____
ROOT
ATOM      1  C   UNL     1      -0.554  10.159  20.614  0.00  0.00    +0.000 C 
ATOM      2  C   UNL     1      -0.309   8.901  21.450  0.00  0.00    +0.000 C 
ATOM      3  C   UNL     1       1.175   8.542  21.434  0.00  0.00    +0.000 C 
ATOM      4  N   UNL     1       1.571   8.280  20.044  0.00  0.00    +0.000 N 
ATOM      5  C   UNL     1       2.211   7.125  19.593  0.00  0.00    +0.000 C 
ATOM      6  N   UNL     1       2.823   7.083  18.440  0.00  0.00    +0.000 NA
ATOM      7  C   UNL     1       1.459   9.465  19.186  0.00  0.00    +0.000 C 
ATOM      8  C   UNL     1       0.010   9.975  19.197  0.00  0.00    +0.000 C 
ENDROOT
BRANCH   6   9
ATOM      9  C   UNL     1       3.439   5.941  17.890  0.00  0.00    +0.000 A 
ATOM     10  C   UNL     1       2.755   4.742  17.662  0.00  0.00    +0.000 A 
ATOM     11  C   UNL     1       3.399   3.617  17.139  0.00  0.00    +0.000 A 
ATOM     12  C   UNL     1       4.725   3.707  16.732  0.00  0.00    +0.000 A 
ATOM     13  C   UNL     1       5.409   4.920  16.835  0.00  0.00    +0.000 A 
ATOM     14  C   UNL     1       6.797   5.045  16.274  0.00  0.00    +0.000 C 
ATOM     15  C   UNL     1       4.767   6.024  17.433  0.00  0.00    +0.000 A 
ENDBRANCH   6   9
BRANCH   1  16
ATOM     16  C   UNL     1      -0.030  11.380  21.367  0.00  0.00    +0.000 C 
ATOM     17  O   UNL     1      -0.048  11.487  22.584  0.00  0.00    +0.000 OA
BRANCH  16  18
ATOM     18  O   UNL     1       0.323  12.370  20.509  0.00  0.00    +0.000 OA
BRANCH  18  20
ATOM     19  C   UNL     1       2.204  13.200  19.306  0.00  0.00    +0.000 C 
ATOM     20  C   UNL     1       1.651  12.887  20.684  0.00  0.00    +0.000 C 
ENDBRANCH  18  20
ENDBRANCH  16  18
ENDBRANCH   1  16
BRANCH   5  21
ATOM     21  S   UNL     1       2.081   5.715  20.663  0.00  0.00    +0.000 S 
ATOM     22  H   UNL     1       3.400   5.479  20.684  0.00  0.00    +0.000 HD
ENDBRANCH   5  21
TORSDOF 5
ENDMDL
MODEL 4
REMARK VINA RESULT:      -6.3      2.744      3.851
REMARK  Name = 
REMARK  7 active torsions:
REMARK  status: ('A' for Active; 'I' for Inactive)
REMARK    1  A    between atoms: C_1  and  C_2
REMARK    2  A    between atoms: C_2  and  O_3
REMARK    3  A    between atoms: O_3  and  C_4
REMARK    4  A    between atoms: C_4  and  C_6
REMARK    5  A    between atoms: C_10  and  S_11
REMARK    6  A    between atoms: N_12  and  C_13
REMARK    7  A    between atoms: C_17  and  C_18
REMARK                            x       y       z     vdW  Elec       q    Type
REMARK                         _______ _______ _______ _____ _____    ______ ____
ROOT
ATOM      1  C   UNL     1       4.980   5.298  18.338  0.00  0.00    +0.000 C 
ATOM      2  C   UNL     1       4.190   5.447  19.639  0.00  0.00    +0.000 C 
ATOM      3  C   UNL     1       2.734   5.786  19.333  0.00  0.00    +0.000 C 
ATOM      4  N   UNL     1       2.701   7.060  18.603  0.00  0.00    +0.000 N 
ATOM      5  C   UNL     1       1.944   8.176  18.963  0.00  0.00    +0.000 C 
ATOM      6  N   UNL     1       1.700   9.143  18.121  0.00  0.00    +0.000 NA
ATOM      7  C   UNL     1       3.355   6.983  17.293  0.00  0.00    +0.000 C 
ATOM      8  C   UNL     1       4.819   6.556  17.471  0.00  0.00    +0.000 C 
ENDROOT
BRANCH   6   9
ATOM      9  C   UNL     1       0.997  10.326  18.425  0.00  0.00    +0.000 A 
ATOM     10  C   UNL     1       1.634  11.540  18.706  0.00  0.00    +0.000 A 
ATOM     11  C   UNL     1       0.911  12.691  19.031  0.00  0.00    +0.000 A 
ATOM     12  C   UNL     1      -0.478  12.673  18.974  0.00  0.00    +0.000 A 
ATOM     13  C   UNL     1      -1.149  11.511  18.585  0.00  0.00    +0.000 A 
ATOM     14  C   UNL     1      -2.639  11.536  18.400  0.00  0.00    +0.000 C 
ATOM     15  C   UNL     1      -0.406  10.339  18.333  0.00  0.00    +0.000 A 
ENDBRANCH   6   9
BRANCH   1  16
ATOM     16  C   UNL     1       4.593   3.987  17.654  0.00  0.00    +0.000 C 
ATOM     17  O   UNL     1       4.447   3.869  16.447  0.00  0.00    +0.000 OA
BRANCH  16  18
ATOM     18  O   UNL     1       4.302   3.026  18.566  0.00  0.00    +0.000 OA
BRANCH  18  20
ATOM     19  C   UNL     1       2.171   2.063  19.023  0.00  0.00    +0.000 C 
ATOM     20  C   UNL     1       3.388   2.013  18.117  0.00  0.00    +0.000 C 
ENDBRANCH  18  20
ENDBRANCH  16  18
ENDBRANCH   1  16
BRANCH   5  21
ATOM     21  S   UNL     1       1.394   8.210  20.651  0.00  0.00    +0.000 S 
ATOM     22  H   UNL     1       2.202   7.215  21.043  0.00  0.00    +0.000 HD
ENDBRANCH   5  21
TORSDOF 5
ENDMDL
MODEL 5
REMARK VINA RESULT:      -6.3      0.656      1.490
REMARK  Name = 
REMARK  7 active torsions:
REMARK  status: ('A' for Active; 'I' for Inactive)
REMARK    1  A    between atoms: C_1  and  C_2
REMARK    2  A    between atoms: C_2  and  O_3
REMARK    3  A    between atoms: O_3  and  C_4
REMARK    4  A    between atoms: C_4  and  C_6
REMARK    5  A    between atoms: C_10  and  S_11
REMARK    6  A    between atoms: N_12  and  C_13
REMARK    7  A    between atoms: C_17  and  C_18
REMARK                            x       y       z     vdW  Elec       q    Type
REMARK                         _______ _______ _______ _____ _____    ______ ____
ROOT
ATOM      1  C   UNL     1       6.878   5.011  16.734  0.00  0.00    +0.000 C 
ATOM      2  C   UNL     1       5.620   4.228  17.117  0.00  0.00    +0.000 C 
ATOM      3  C   UNL     1       4.383   4.905  16.533  0.00  0.00    +0.000 C 
ATOM      4  N   UNL     1       4.293   6.261  17.090  0.00  0.00    +0.000 N 
ATOM      5  C   UNL     1       3.175   6.797  17.731  0.00  0.00    +0.000 C 
ATOM      6  N   UNL     1       3.034   8.083  17.909  0.00  0.00    +0.000 NA
ATOM      7  C   UNL     1       5.416   7.117  16.691  0.00  0.00    +0.000 C 
ATOM      8  C   UNL     1       6.737   6.482  17.152  0.00  0.00    +0.000 C 
ENDROOT
BRANCH   6   9
ATOM      9  C   UNL     1       1.967   8.694  18.597  0.00  0.00    +0.000 A 
ATOM     10  C   UNL     1       0.945   9.397  17.948  0.00  0.00    +0.000 A 
ATOM     11  C   UNL     1      -0.087  10.014  18.658  0.00  0.00    +0.000 A 
ATOM     12  C   UNL     1      -0.174   9.848  20.036  0.00  0.00    +0.000 A 
ATOM     13  C   UNL     1       0.761   9.057  20.707  0.00  0.00    +0.000 A 
ATOM     14  C   UNL     1       0.587   8.775  22.171  0.00  0.00    +0.000 C 
ATOM     15  C   UNL     1       1.838   8.502  19.984  0.00  0.00    +0.000 A 
ENDBRANCH   6   9
BRANCH   1  16
ATOM     16  C   UNL     1       7.187   4.784  15.255  0.00  0.00    +0.000 C 
ATOM     17  O   UNL     1       7.894   5.526  14.589  0.00  0.00    +0.000 OA
BRANCH  16  18
ATOM     18  O   UNL     1       6.470   3.746  14.757  0.00  0.00    +0.000 OA
BRANCH  18  20
ATOM     19  C   UNL     1       5.026   3.656  12.865  0.00  0.00    +0.000 C 
ATOM     20  C   UNL     1       6.472   3.631  13.326  0.00  0.00    +0.000 C 
ENDBRANCH  18  20
ENDBRANCH  16  18
ENDBRANCH   1  16
BRANCH   5  21
ATOM     21  S   UNL     1       2.002   5.609  18.334  0.00  0.00    +0.000 S 
ATOM     22  H   UNL     1       2.033   6.065  19.594  0.00  0.00    +0.000 HD
ENDBRANCH   5  21
TORSDOF 5
ENDMDL
MODEL 6
REMARK VINA RESULT:      -6.3      1.146      1.472
REMARK  Name = 
REMARK  7 active torsions:
REMARK  status: ('A' for Active; 'I' for Inactive)
REMARK    1  A    between atoms: C_1  and  C_2
REMARK    2  A    between atoms: C_2  and  O_3
REMARK    3  A    between atoms: O_3  and  C_4
REMARK    4  A    between atoms: C_4  and  C_6
REMARK    5  A    between atoms: C_10  and  S_11
REMARK    6  A    between atoms: N_12  and  C_13
REMARK    7  A    between atoms: C_17  and  C_18
REMARK                            x       y       z     vdW  Elec       q    Type
REMARK                         _______ _______ _______ _____ _____    ______ ____
ROOT
ATOM      1  C   UNL     1       6.707   5.079  17.149  0.00  0.00    +0.000 C 
ATOM      2  C   UNL     1       5.709   4.297  18.004  0.00  0.00    +0.000 C 
ATOM      3  C   UNL     1       4.281   4.629  17.578  0.00  0.00    +0.000 C 
ATOM      4  N   UNL     1       4.062   6.067  17.778  0.00  0.00    +0.000 N 
ATOM      5  C   UNL     1       3.014   6.629  18.508  0.00  0.00    +0.000 C 
ATOM      6  N   UNL     1       2.684   7.886  18.383  0.00  0.00    +0.000 NA
ATOM      7  C   UNL     1       4.915   6.898  16.922  0.00  0.00    +0.000 C 
ATOM      8  C   UNL     1       6.392   6.581  17.202  0.00  0.00    +0.000 C 
ENDROOT
BRANCH   6   9
ATOM      9  C   UNL     1       1.680   8.539  19.127  0.00  0.00    +0.000 A 
ATOM     10  C   UNL     1       1.579   8.443  20.519  0.00  0.00    +0.000 A 
ATOM     11  C   UNL     1       0.558   9.081  21.227  0.00  0.00    +0.000 A 
ATOM     12  C   UNL     1      -0.326   9.921  20.559  0.00  0.00    +0.000 A 
ATOM     13  C   UNL     1      -0.187  10.135  19.186  0.00  0.00    +0.000 A 
ATOM     14  C   UNL     1      -1.061  11.142  18.495  0.00  0.00    +0.000 C 
ATOM     15  C   UNL     1       0.804   9.425  18.476  0.00  0.00    +0.000 A 
ENDBRANCH   6   9
BRANCH   1  16
ATOM     16  C   UNL     1       6.757   4.477  15.746  0.00  0.00    +0.000 C 
ATOM     17  O   UNL     1       6.329   3.366  15.468  0.00  0.00    +0.000 OA
BRANCH  16  18
ATOM     18  O   UNL     1       7.454   5.271  14.896  0.00  0.00    +0.000 OA
BRANCH  18  20
ATOM     19  C   UNL     1       8.366   5.734  12.744  0.00  0.00    +0.000 C 
ATOM     20  C   UNL     1       7.306   4.956  13.502  0.00  0.00    +0.000 C 
ENDBRANCH  18  20
ENDBRANCH  16  18
ENDBRANCH   1  16
BRANCH   5  21
ATOM     21  S   UNL     1       2.211   5.535  19.653  0.00  0.00    +0.000 S 
ATOM     22  H   UNL     1       1.402   6.480  20.150  0.00  0.00    +0.000 HD
ENDBRANCH   5  21
TORSDOF 5
ENDMDL
MODEL 7
REMARK VINA RESULT:      -6.3      2.031      3.262
REMARK  Name = 
REMARK  7 active torsions:
REMARK  status: ('A' for Active; 'I' for Inactive)
REMARK    1  A    between atoms: C_1  and  C_2
REMARK    2  A    between atoms: C_2  and  O_3
REMARK    3  A    between atoms: O_3  and  C_4
REMARK    4  A    between atoms: C_4  and  C_6
REMARK    5  A    between atoms: C_10  and  S_11
REMARK    6  A    between atoms: N_12  and  C_13
REMARK    7  A    between atoms: C_17  and  C_18
REMARK                            x       y       z     vdW  Elec       q    Type
REMARK                         _______ _______ _______ _____ _____    ______ ____
ROOT
ATOM      1  C   UNL     1       4.976   5.425  18.191  0.00  0.00    +0.000 C 
ATOM      2  C   UNL     1       4.203   5.521  19.508  0.00  0.00    +0.000 C 
ATOM      3  C   UNL     1       2.740   5.862  19.233  0.00  0.00    +0.000 C 
ATOM      4  N   UNL     1       2.689   7.161  18.551  0.00  0.00    +0.000 N 
ATOM      5  C   UNL     1       1.930   8.257  18.962  0.00  0.00    +0.000 C 
ATOM      6  N   UNL     1       1.669   9.253  18.158  0.00  0.00    +0.000 NA
ATOM      7  C   UNL     1       3.326   7.137  17.230  0.00  0.00    +0.000 C 
ATOM      8  C   UNL     1       4.796   6.713  17.373  0.00  0.00    +0.000 C 
ENDROOT
BRANCH   6   9
ATOM      9  C   UNL     1       0.962  10.419  18.515  0.00  0.00    +0.000 A 
ATOM     10  C   UNL     1       1.595  11.624  18.842  0.00  0.00    +0.000 A 
ATOM     11  C   UNL     1       0.869  12.757  19.217  0.00  0.00    +0.000 A 
ATOM     12  C   UNL     1      -0.520  12.735  19.168  0.00  0.00    +0.000 A 
ATOM     13  C   UNL     1      -1.188  11.587  18.736  0.00  0.00    +0.000 A 
ATOM     14  C   UNL     1      -2.680  11.613  18.561  0.00  0.00    +0.000 C 
ATOM     15  C   UNL     1      -0.442  10.430  18.432  0.00  0.00    +0.000 A 
ENDBRANCH   6   9
BRANCH   1  16
ATOM     16  C   UNL     1       4.588   4.138  17.465  0.00  0.00    +0.000 C 
ATOM     17  O   UNL     1       4.278   3.104  18.037  0.00  0.00    +0.000 OA
BRANCH  16  18
ATOM     18  O   UNL     1       4.768   4.257  16.126  0.00  0.00    +0.000 OA
BRANCH  18  20
ATOM     19  C   UNL     1       6.118   4.165  14.166  0.00  0.00    +0.000 C 
ATOM     20  C   UNL     1       6.031   3.785  15.633  0.00  0.00    +0.000 C 
ENDBRANCH  18  20
ENDBRANCH  16  18
ENDBRANCH   1  16
BRANCH   5  21
ATOM     21  S   UNL     1       1.403   8.227  20.656  0.00  0.00    +0.000 S 
ATOM     22  H   UNL     1       1.880   6.997  20.890  0.00  0.00    +0.000 HD
ENDBRANCH   5  21
TORSDOF 5
ENDMDL
MODEL 8
REMARK VINA RESULT:      -6.2      1.491      2.009
REMARK  Name = 
REMARK  7 active torsions:
REMARK  status: ('A' for Active; 'I' for Inactive)
REMARK    1  A    between atoms: C_1  and  C_2
REMARK    2  A    between atoms: C_2  and  O_3
REMARK    3  A    between atoms: O_3  and  C_4
REMARK    4  A    between atoms: C_4  and  C_6
REMARK    5  A    between atoms: C_10  and  S_11
REMARK    6  A    between atoms: N_12  and  C_13
REMARK    7  A    between atoms: C_17  and  C_18
REMARK                            x       y       z     vdW  Elec       q    Type
REMARK                         _______ _______ _______ _____ _____    ______ ____
ROOT
ATOM      1  C   UNL     1       6.923   6.039  17.713  0.00  0.00    +0.000 C 
ATOM      2  C   UNL     1       5.976   5.407  18.735  0.00  0.00    +0.000 C 
ATOM      3  C   UNL     1       4.555   5.365  18.177  0.00  0.00    +0.000 C 
ATOM      4  N   UNL     1       4.124   6.742  17.910  0.00  0.00    +0.000 N 
ATOM      5  C   UNL     1       2.951   7.327  18.392  0.00  0.00    +0.000 C 
ATOM      6  N   UNL     1       2.461   8.418  17.869  0.00  0.00    +0.000 NA
ATOM      7  C   UNL     1       4.920   7.398  16.867  0.00  0.00    +0.000 C 
ATOM      8  C   UNL     1       6.398   7.417  17.283  0.00  0.00    +0.000 C 
ENDROOT
BRANCH   6   9
ATOM      9  C   UNL     1       1.319   9.100  18.336  0.00  0.00    +0.000 A 
ATOM     10  C   UNL     1       1.279   9.765  19.567  0.00  0.00    +0.000 A 
ATOM     11  C   UNL     1       0.124  10.410  20.015  0.00  0.00    +0.000 A 
ATOM     12  C   UNL     1      -0.988  10.493  19.185  0.00  0.00    +0.000 A 
ATOM     13  C   UNL     1      -0.948   9.941  17.903  0.00  0.00    +0.000 A 
ATOM     14  C   UNL     1      -2.103  10.147  16.965  0.00  0.00    +0.000 C 
ATOM     15  C   UNL     1       0.200   9.230  17.495  0.00  0.00    +0.000 A 
ENDBRANCH   6   9
BRANCH   1  16
ATOM     16  C   UNL     1       7.170   5.055  16.571  0.00  0.00    +0.000 C 
ATOM     17  O   UNL     1       7.902   4.081  16.661  0.00  0.00    +0.000 OA
BRANCH  16  18
ATOM     18  O   UNL     1       6.587   5.480  15.423  0.00  0.00    +0.000 OA
BRANCH  18  20
ATOM     19  C   UNL     1       6.347   3.981  13.587  0.00  0.00    +0.000 C 
ATOM     20  C   UNL     1       5.671   4.552  14.821  0.00  0.00    +0.000 C 
ENDBRANCH  18  20
ENDBRANCH  16  18
ENDBRANCH   1  16
BRANCH   5  21
ATOM     21  S   UNL     1       2.218   6.520  19.793  0.00  0.00    +0.000 S 
ATOM     22  H   UNL     1       2.754   5.323  19.515  0.00  0.00    +0.000 HD
ENDBRANCH   5  21
TORSDOF 5
ENDMDL
MODEL 9
REMARK VINA RESULT:      -6.2      4.175      8.742
REMARK  Name = 
REMARK  7 active torsions:
REMARK  status: ('A' for Active; 'I' for Inactive)
REMARK    1  A    between atoms: C_1  and  C_2
REMARK    2  A    between atoms: C_2  and  O_3
REMARK    3  A    between atoms: O_3  and  C_4
REMARK    4  A    between atoms: C_4  and  C_6
REMARK    5  A    between atoms: C_10  and  S_11
REMARK    6  A    between atoms: N_12  and  C_13
REMARK    7  A    between atoms: C_17  and  C_18
REMARK                            x       y       z     vdW  Elec       q    Type
REMARK                         _______ _______ _______ _____ _____    ______ ____
ROOT
ATOM      1  C   UNL     1      -0.420  10.448  20.249  0.00  0.00    +0.000 C 
ATOM      2  C   UNL     1      -0.214   9.269  21.202  0.00  0.00    +0.000 C 
ATOM      3  C   UNL     1       1.251   8.839  21.195  0.00  0.00    +0.000 C 
ATOM      4  N   UNL     1       1.602   8.420  19.833  0.00  0.00    +0.000 N 
ATOM      5  C   UNL     1       2.177   7.196  19.489  0.00  0.00    +0.000 C 
ATOM      6  N   UNL     1       2.759   7.009  18.335  0.00  0.00    +0.000 NA
ATOM      7  C   UNL     1       1.526   9.517  18.862  0.00  0.00    +0.000 C 
ATOM      8  C   UNL     1       0.103  10.096  18.848  0.00  0.00    +0.000 C 
ENDROOT
BRANCH   6   9
ATOM      9  C   UNL     1       3.309   5.789  17.892  0.00  0.00    +0.000 A 
ATOM     10  C   UNL     1       2.528   4.670  17.584  0.00  0.00    +0.000 A 
ATOM     11  C   UNL     1       3.102   3.465  17.172  0.00  0.00    +0.000 A 
ATOM     12  C   UNL     1       4.474   3.391  16.956  0.00  0.00    +0.000 A 
ATOM     13  C   UNL     1       5.274   4.521  17.141  0.00  0.00    +0.000 A 
ATOM     14  C   UNL     1       6.731   4.470  16.781  0.00  0.00    +0.000 C 
ATOM     15  C   UNL     1       4.688   5.707  17.628  0.00  0.00    +0.000 A 
ENDBRANCH   6   9
BRANCH   1  16
ATOM     16  C   UNL     1       0.178  11.712  20.864  0.00  0.00    +0.000 C 
ATOM     17  O   UNL     1       0.880  12.500  20.248  0.00  0.00    +0.000 OA
BRANCH  16  18
ATOM     18  O   UNL     1      -0.055  11.765  22.199  0.00  0.00    +0.000 OA
BRANCH  18  20
ATOM     19  C   UNL     1      -0.933  13.847  22.954  0.00  0.00    +0.000 C 
ATOM     20  C   UNL     1      -1.277  12.416  22.582  0.00  0.00    +0.000 C 
ENDBRANCH  18  20
ENDBRANCH  16  18
ENDBRANCH   1  16
BRANCH   5  21
ATOM     21  S   UNL     1       2.005   5.908  20.698  0.00  0.00    +0.000 S 
ATOM     22  H   UNL     1       2.269   4.919  19.833  0.00  0.00    +0.000 HD
ENDBRANCH   5  21
TORSDOF 5
ENDMDL
