MODEL 1
REMARK VINA RESULT:      -7.4      0.000      0.000
REMARK  Name = 
REMARK  6 active torsions:
REMARK  status: ('A' for Active; 'I' for Inactive)
REMARK    1  A    between atoms: C_1  and  C_2
REMARK    2  A    between atoms: C_2  and  C_3
REMARK    3  A    between atoms: C_2  and  C_4
REMARK    4  A    between atoms: C_2  and  N_5
REMARK    5  A    between atoms: C_14  and  C_15
REMARK    6  A    between atoms: C_21  and  C_22
REMARK                            x       y       z     vdW  Elec       q    Type
REMARK                         _______ _______ _______ _____ _____    ______ ____
ROOT
ATOM      1  N   UNL     1       3.798   6.345  17.607  0.00  0.00    +0.000 N 
ATOM      2  C   UNL     1       3.260   6.583  18.850  0.00  0.00    +0.000 C 
ATOM      3  O   UNL     1       3.526   5.902  19.833  0.00  0.00    +0.000 OA
ATOM      4  N   UNL     1       2.362   7.643  18.906  0.00  0.00    +0.000 N 
ATOM      5  C   UNL     1       1.811   8.342  17.747  0.00  0.00    +0.000 C 
ATOM      6  C   UNL     1       1.852   9.841  17.985  0.00  0.00    +0.000 C 
ATOM      7  N   UNL     1       1.273  10.177  19.277  0.00  0.00    +0.000 N 
ATOM      8  C   UNL     1       0.834  11.404  19.674  0.00  0.00    +0.000 A 
ATOM      9 CL   UNL     1       0.854  12.686  18.534  0.00  0.00    +0.000 Cl
ATOM     10  C   UNL     1       0.429  11.350  20.994  0.00  0.00    +0.000 A 
ATOM     11  C   UNL     1       0.594   9.959  21.404  0.00  0.00    +0.000 A 
ATOM     12  C   UNL     1       1.157   9.273  20.313  0.00  0.00    +0.000 A 
ATOM     13  C   UNL     1       1.629   7.846  20.160  0.00  0.00    +0.000 C 
ATOM     14  H   UNL     1       3.958   7.186  17.078  0.00  0.00    +0.000 HD
ENDROOT
BRANCH  10  15
ATOM     15  C   UNL     1      -0.101  12.515  21.722  0.00  0.00    +0.000 A 
ATOM     16  C   UNL     1       0.558  13.749  21.690  0.00  0.00    +0.000 A 
ATOM     17  C   UNL     1       0.060  14.847  22.411  0.00  0.00    +0.000 A 
ATOM     18  C   UNL     1      -1.087  14.717  23.190  0.00  0.00    +0.000 A 
ATOM     19  C   UNL     1      -1.751  13.497  23.233  0.00  0.00    +0.000 A 
ATOM     20  C   UNL     1      -1.276  12.416  22.482  0.00  0.00    +0.000 A 
ENDBRANCH  10  15
BRANCH  11  21
ATOM     21  C   UNL     1       0.300   9.399  22.724  0.00  0.00    +0.000 C 
ATOM     22  N   UNL     1      -0.892   8.740  22.853  0.00  0.00    +0.000 N 
ATOM     23  O   UNL     1       1.017   9.541  23.707  0.00  0.00    +0.000 OA
ATOM     24  H   UNL     1      -1.624   8.824  22.170  0.00  0.00    +0.000 HD
ATOM     25  H   UNL     1      -1.141   8.472  23.794  0.00  0.00    +0.000 HD
ENDBRANCH  11  21
BRANCH   1  27
ATOM     26  C   UNL     1       4.155   3.877  17.348  0.00  0.00    +0.000 C 
ATOM     27  C   UNL     1       4.776   5.283  17.296  0.00  0.00    +0.000 C 
ATOM     28  C   UNL     1       5.977   5.371  18.249  0.00  0.00    +0.000 C 
ATOM     29  C   UNL     1       5.276   5.518  15.855  0.00  0.00    +0.000 C 
ENDBRANCH   1  27
TORSDOF 3
ENDMDL
MODEL 2
REMARK VINA RESULT:      -7.3      0.126      1.251
REMARK  Name = 
REMARK  6 active torsions:
REMARK  status: ('A' for Active; 'I' for Inactive)
REMARK    1  A    between atoms: C_1  and  C_2
REMARK    2  A    between atoms: C_2  and  C_3
REMARK    3  A    between atoms: C_2  and  C_4
REMARK    4  A    between atoms: C_2  and  N_5
REMARK    5  A    between atoms: C_14  and  C_15
REMARK    6  A    between atoms: C_21  and  C_22
REMARK                            x       y       z     vdW  Elec       q    Type
REMARK                         _______ _______ _______ _____ _____    ______ ____
ROOT
ATOM      1  N   UNL     1       3.716   6.383  17.585  0.00  0.00    +0.000 N 
ATOM      2  C   UNL     1       3.209   6.621  18.841  0.00  0.00    +0.000 C 
ATOM      3  O   UNL     1       3.494   5.937  19.816  0.00  0.00    +0.000 OA
ATOM      4  N   UNL     1       2.318   7.685  18.920  0.00  0.00    +0.000 N 
ATOM      5  C   UNL     1       1.743   8.390  17.775  0.00  0.00    +0.000 C 
ATOM      6  C   UNL     1       1.798   9.888  18.015  0.00  0.00    +0.000 C 
ATOM      7  N   UNL     1       1.250  10.225  19.321  0.00  0.00    +0.000 N 
ATOM      8  C   UNL     1       0.827  11.453  19.730  0.00  0.00    +0.000 A 
ATOM      9 CL   UNL     1       0.827  12.737  18.593  0.00  0.00    +0.000 Cl
ATOM     10  C   UNL     1       0.453  11.398  21.060  0.00  0.00    +0.000 A 
ATOM     11  C   UNL     1       0.620  10.006  21.463  0.00  0.00    +0.000 A 
ATOM     12  C   UNL     1       1.154   9.320  20.358  0.00  0.00    +0.000 A 
ATOM     13  C   UNL     1       1.615   7.890  20.191  0.00  0.00    +0.000 C 
ATOM     14  H   UNL     1       3.868   7.224  17.054  0.00  0.00    +0.000 HD
ENDROOT
BRANCH  10  15
ATOM     15  C   UNL     1      -0.054  12.564  21.802  0.00  0.00    +0.000 A 
ATOM     16  C   UNL     1      -1.185  12.464  22.620  0.00  0.00    +0.000 A 
ATOM     17  C   UNL     1      -1.678  13.589  23.303  0.00  0.00    +0.000 A 
ATOM     18  C   UNL     1      -1.063  14.829  23.155  0.00  0.00    +0.000 A 
ATOM     19  C   UNL     1       0.059  14.944  22.343  0.00  0.00    +0.000 A 
ATOM     20  C   UNL     1       0.573  13.814  21.697  0.00  0.00    +0.000 A 
ENDBRANCH  10  15
BRANCH  11  21
ATOM     21  C   UNL     1       0.355   9.445  22.789  0.00  0.00    +0.000 C 
ATOM     22  N   UNL     1      -0.867   8.855  22.965  0.00  0.00    +0.000 N 
ATOM     23  O   UNL     1       1.123   9.530  23.739  0.00  0.00    +0.000 OA
ATOM     24  H   UNL     1      -1.623   8.992  22.319  0.00  0.00    +0.000 HD
ATOM     25  H   UNL     1      -1.088   8.588  23.913  0.00  0.00    +0.000 HD
ENDBRANCH  11  21
BRANCH   1  27
ATOM     26  C   UNL     1       5.782   5.163  18.313  0.00  0.00    +0.000 C 
ATOM     27  C   UNL     1       4.681   5.317  17.249  0.00  0.00    +0.000 C 
ATOM     28  C   UNL     1       5.304   5.578  15.871  0.00  0.00    +0.000 C 
ATOM     29  C   UNL     1       3.902   3.986  17.190  0.00  0.00    +0.000 C 
ENDBRANCH   1  27
TORSDOF 3
ENDMDL
MODEL 3
REMARK VINA RESULT:      -7.1      2.848      4.004
REMARK  Name = 
REMARK  6 active torsions:
REMARK  status: ('A' for Active; 'I' for Inactive)
REMARK    1  A    between atoms: C_1  and  C_2
REMARK    2  A    between atoms: C_2  and  C_3
REMARK    3  A    between atoms: C_2  and  C_4
REMARK    4  A    between atoms: C_2  and  N_5
REMARK    5  A    between atoms: C_14  and  C_15
REMARK    6  A    between atoms: C_21  and  C_22
REMARK                            x       y       z     vdW  Elec       q    Type
REMARK                         _______ _______ _______ _____ _____    ______ ____
ROOT
ATOM      1  N   UNL     1       2.145   6.638  20.365  0.00  0.00    +0.000 N 
ATOM      2  C   UNL     1       1.861   7.744  19.598  0.00  0.00    +0.000 C 
ATOM      3  O   UNL     1       2.056   7.785  18.390  0.00  0.00    +0.000 OA
ATOM      4  N   UNL     1       1.360   8.831  20.304  0.00  0.00    +0.000 N 
ATOM      5  C   UNL     1       1.326   8.948  21.761  0.00  0.00    +0.000 C 
ATOM      6  C   UNL     1      -0.027   9.476  22.202  0.00  0.00    +0.000 C 
ATOM      7  N   UNL     1      -0.388  10.669  21.451  0.00  0.00    +0.000 N 
ATOM      8  C   UNL     1      -1.332  11.589  21.795  0.00  0.00    +0.000 A 
ATOM      9 CL   UNL     1      -2.127  11.417  23.305  0.00  0.00    +0.000 Cl
ATOM     10  C   UNL     1      -1.450  12.534  20.793  0.00  0.00    +0.000 A 
ATOM     11  C   UNL     1      -0.455  12.174  19.789  0.00  0.00    +0.000 A 
ATOM     12  C   UNL     1       0.157  10.985  20.224  0.00  0.00    +0.000 A 
ATOM     13  C   UNL     1       1.192  10.094  19.576  0.00  0.00    +0.000 C 
ATOM     14  H   UNL     1       1.498   6.506  21.124  0.00  0.00    +0.000 HD
ENDROOT
BRANCH  10  15
ATOM     15  C   UNL     1      -2.387  13.667  20.862  0.00  0.00    +0.000 A 
ATOM     16  C   UNL     1      -3.767  13.474  20.724  0.00  0.00    +0.000 A 
ATOM     17  C   UNL     1      -4.651  14.565  20.763  0.00  0.00    +0.000 A 
ATOM     18  C   UNL     1      -4.165  15.862  20.914  0.00  0.00    +0.000 A 
ATOM     19  C   UNL     1      -2.797  16.069  21.049  0.00  0.00    +0.000 A 
ATOM     20  C   UNL     1      -1.922  14.977  21.051  0.00  0.00    +0.000 A 
ENDBRANCH  10  15
BRANCH  11  21
ATOM     21  C   UNL     1      -0.195  12.876  18.531  0.00  0.00    +0.000 C 
ATOM     22  N   UNL     1      -1.112  12.693  17.532  0.00  0.00    +0.000 N 
ATOM     23  O   UNL     1       0.805  13.549  18.312  0.00  0.00    +0.000 OA
ATOM     24  H   UNL     1      -1.792  11.956  17.562  0.00  0.00    +0.000 HD
ATOM     25  H   UNL     1      -0.857  13.075  16.633  0.00  0.00    +0.000 HD
ENDBRANCH  11  21
BRANCH   1  27
ATOM     26  C   UNL     1       4.179   5.442  19.517  0.00  0.00    +0.000 C 
ATOM     27  C   UNL     1       2.678   5.362  19.846  0.00  0.00    +0.000 C 
ATOM     28  C   UNL     1       1.884   4.916  18.610  0.00  0.00    +0.000 C 
ATOM     29  C   UNL     1       2.501   4.300  20.952  0.00  0.00    +0.000 C 
ENDBRANCH   1  27
TORSDOF 3
ENDMDL
MODEL 4
REMARK VINA RESULT:      -7.0      2.822      3.766
REMARK  Name = 
REMARK  6 active torsions:
REMARK  status: ('A' for Active; 'I' for Inactive)
REMARK    1  A    between atoms: C_1  and  C_2
REMARK    2  A    between atoms: C_2  and  C_3
REMARK    3  A    between atoms: C_2  and  C_4
REMARK    4  A    between atoms: C_2  and  N_5
REMARK    5  A    between atoms: C_14  and  C_15
REMARK    6  A    between atoms: C_21  and  C_22
REMARK                            x       y       z     vdW  Elec       q    Type
REMARK                         _______ _______ _______ _____ _____    ______ ____
ROOT
ATOM      1  N   UNL     1       2.216   6.632  20.177  0.00  0.00    +0.000 N 
ATOM      2  C   UNL     1       1.895   7.743  19.432  0.00  0.00    +0.000 C 
ATOM      3  O   UNL     1       2.059   7.803  18.220  0.00  0.00    +0.000 OA
ATOM      4  N   UNL     1       1.395   8.813  20.165  0.00  0.00    +0.000 N 
ATOM      5  C   UNL     1       1.396   8.910  21.623  0.00  0.00    +0.000 C 
ATOM      6  C   UNL     1       0.047   9.412  22.105  0.00  0.00    +0.000 C 
ATOM      7  N   UNL     1      -0.351  10.608  21.379  0.00  0.00    +0.000 N 
ATOM      8  C   UNL     1      -1.300  11.509  21.759  0.00  0.00    +0.000 A 
ATOM      9 CL   UNL     1      -2.054  11.305  23.286  0.00  0.00    +0.000 Cl
ATOM     10  C   UNL     1      -1.458  12.464  20.773  0.00  0.00    +0.000 A 
ATOM     11  C   UNL     1      -0.483  12.134  19.739  0.00  0.00    +0.000 A 
ATOM     12  C   UNL     1       0.158  10.948  20.143  0.00  0.00    +0.000 A 
ATOM     13  C   UNL     1       1.189  10.082  19.458  0.00  0.00    +0.000 C 
ATOM     14  H   UNL     1       1.590   6.480  20.950  0.00  0.00    +0.000 HD
ENDROOT
BRANCH  10  15
ATOM     15  C   UNL     1      -2.410  13.582  20.880  0.00  0.00    +0.000 A 
ATOM     16  C   UNL     1      -1.981  14.866  21.234  0.00  0.00    +0.000 A 
ATOM     17  C   UNL     1      -2.901  15.920  21.361  0.00  0.00    +0.000 A 
ATOM     18  C   UNL     1      -4.261  15.697  21.161  0.00  0.00    +0.000 A 
ATOM     19  C   UNL     1      -4.702  14.426  20.812  0.00  0.00    +0.000 A 
ATOM     20  C   UNL     1      -3.779  13.388  20.645  0.00  0.00    +0.000 A 
ENDBRANCH  10  15
BRANCH  11  21
ATOM     21  C   UNL     1      -0.265  12.855  18.484  0.00  0.00    +0.000 C 
ATOM     22  N   UNL     1      -1.163  12.613  17.481  0.00  0.00    +0.000 N 
ATOM     23  O   UNL     1       0.687  13.595  18.272  0.00  0.00    +0.000 OA
ATOM     24  H   UNL     1      -1.792  11.831  17.506  0.00  0.00    +0.000 HD
ATOM     25  H   UNL     1      -0.931  13.015  16.584  0.00  0.00    +0.000 HD
ENDBRANCH  11  21
BRANCH   1  27
ATOM     26  C   UNL     1       2.139   5.010  18.266  0.00  0.00    +0.000 C 
ATOM     27  C   UNL     1       2.756   5.372  19.628  0.00  0.00    +0.000 C 
ATOM     28  C   UNL     1       2.550   4.224  20.628  0.00  0.00    +0.000 C 
ATOM     29  C   UNL     1       4.272   5.569  19.415  0.00  0.00    +0.000 C 
ENDBRANCH   1  27
TORSDOF 3
ENDMDL
MODEL 5
REMARK VINA RESULT:      -6.6      1.303      1.418
REMARK  Name = 
REMARK  6 active torsions:
REMARK  status: ('A' for Active; 'I' for Inactive)
REMARK    1  A    between atoms: C_1  and  C_2
REMARK    2  A    between atoms: C_2  and  C_3
REMARK    3  A    between atoms: C_2  and  C_4
REMARK    4  A    between atoms: C_2  and  N_5
REMARK    5  A    between atoms: C_14  and  C_15
REMARK    6  A    between atoms: C_21  and  C_22
REMARK                            x       y       z     vdW  Elec       q    Type
REMARK                         _______ _______ _______ _____ _____    ______ ____
ROOT
ATOM      1  N   UNL     1       3.103   6.580  18.154  0.00  0.00    +0.000 N 
ATOM      2  C   UNL     1       2.444   7.043  19.269  0.00  0.00    +0.000 C 
ATOM      3  O   UNL     1       2.373   6.408  20.313  0.00  0.00    +0.000 OA
ATOM      4  N   UNL     1       1.835   8.283  19.114  0.00  0.00    +0.000 N 
ATOM      5  C   UNL     1       1.667   8.988  17.844  0.00  0.00    +0.000 C 
ATOM      6  C   UNL     1       2.033  10.451  18.017  0.00  0.00    +0.000 C 
ATOM      7  N   UNL     1       1.350  11.024  19.167  0.00  0.00    +0.000 N 
ATOM      8  C   UNL     1       1.164  12.349  19.423  0.00  0.00    +0.000 A 
ATOM      9 CL   UNL     1       1.681  13.486  18.248  0.00  0.00    +0.000 Cl
ATOM     10  C   UNL     1       0.548  12.505  20.650  0.00  0.00    +0.000 A 
ATOM     11  C   UNL     1       0.301  11.156  21.146  0.00  0.00    +0.000 A 
ATOM     12  C   UNL     1       0.850  10.265  20.206  0.00  0.00    +0.000 A 
ATOM     13  C   UNL     1       0.979   8.760  20.206  0.00  0.00    +0.000 C 
ATOM     14  H   UNL     1       3.548   7.311  17.625  0.00  0.00    +0.000 HD
ENDROOT
BRANCH  10  15
ATOM     15  C   UNL     1       0.206  13.820  21.217  0.00  0.00    +0.000 A 
ATOM     16  C   UNL     1       1.166  14.594  21.880  0.00  0.00    +0.000 A 
ATOM     17  C   UNL     1       0.823  15.835  22.442  0.00  0.00    +0.000 A 
ATOM     18  C   UNL     1      -0.486  16.303  22.371  0.00  0.00    +0.000 A 
ATOM     19  C   UNL     1      -1.450  15.545  21.718  0.00  0.00    +0.000 A 
ATOM     20  C   UNL     1      -1.098  14.329  21.123  0.00  0.00    +0.000 A 
ENDBRANCH  10  15
BRANCH  11  21
ATOM     21  C   UNL     1      -0.332  10.797  22.416  0.00  0.00    +0.000 C 
ATOM     22  N   UNL     1      -1.579  11.312  22.641  0.00  0.00    +0.000 N 
ATOM     23  O   UNL     1       0.208  10.129  23.290  0.00  0.00    +0.000 OA
ATOM     24  H   UNL     1      -1.951  12.067  22.092  0.00  0.00    +0.000 HD
ATOM     25  H   UNL     1      -1.950  11.164  23.568  0.00  0.00    +0.000 HD
ENDBRANCH  11  21
BRANCH   1  27
ATOM     26  C   UNL     1       2.885   4.085  18.032  0.00  0.00    +0.000 C 
ATOM     27  C   UNL     1       3.831   5.298  18.073  0.00  0.00    +0.000 C 
ATOM     28  C   UNL     1       4.814   5.168  19.245  0.00  0.00    +0.000 C 
ATOM     29  C   UNL     1       4.637   5.302  16.756  0.00  0.00    +0.000 C 
ENDBRANCH   1  27
TORSDOF 3
ENDMDL
MODEL 6
REMARK VINA RESULT:      -6.6      3.608      9.237
REMARK  Name = 
REMARK  6 active torsions:
REMARK  status: ('A' for Active; 'I' for Inactive)
REMARK    1  A    between atoms: C_1  and  C_2
REMARK    2  A    between atoms: C_2  and  C_3
REMARK    3  A    between atoms: C_2  and  C_4
REMARK    4  A    between atoms: C_2  and  N_5
REMARK    5  A    between atoms: C_14  and  C_15
REMARK    6  A    between atoms: C_21  and  C_22
REMARK                            x       y       z     vdW  Elec       q    Type
REMARK                         _______ _______ _______ _____ _____    ______ ____
ROOT
ATOM      1  N   UNL     1      -3.720  15.050  23.146  0.00  0.00    +0.000 N 
ATOM      2  C   UNL     1      -3.462  14.571  21.883  0.00  0.00    +0.000 C 
ATOM      3  O   UNL     1      -3.744  15.190  20.865  0.00  0.00    +0.000 OA
ATOM      4  N   UNL     1      -2.879  13.309  21.844  0.00  0.00    +0.000 N 
ATOM      5  C   UNL     1      -2.734  12.412  22.989  0.00  0.00    +0.000 C 
ATOM      6  C   UNL     1      -1.338  11.817  23.001  0.00  0.00    +0.000 C 
ATOM      7  N   UNL     1      -0.999  11.261  21.700  0.00  0.00    +0.000 N 
ATOM      8  C   UNL     1      -0.006  10.368  21.433  0.00  0.00    +0.000 A 
ATOM      9 CL   UNL     1       0.892   9.730  22.747  0.00  0.00    +0.000 Cl
ATOM     10  C   UNL     1       0.064  10.142  20.071  0.00  0.00    +0.000 A 
ATOM     11  C   UNL     1      -1.012  10.930  19.481  0.00  0.00    +0.000 A 
ATOM     12  C   UNL     1      -1.624  11.640  20.529  0.00  0.00    +0.000 A 
ATOM     13  C   UNL     1      -2.728  12.671  20.532  0.00  0.00    +0.000 C 
ATOM     14  H   UNL     1      -3.023  14.782  23.821  0.00  0.00    +0.000 HD
ENDROOT
BRANCH  10  15
ATOM     15  C   UNL     1       1.036   9.222  19.457  0.00  0.00    +0.000 A 
ATOM     16  C   UNL     1       1.560   9.468  18.183  0.00  0.00    +0.000 A 
ATOM     17  C   UNL     1       2.465   8.570  17.593  0.00  0.00    +0.000 A 
ATOM     18  C   UNL     1       2.837   7.405  18.259  0.00  0.00    +0.000 A 
ATOM     19  C   UNL     1       2.323   7.146  19.524  0.00  0.00    +0.000 A 
ATOM     20  C   UNL     1       1.453   8.062  20.126  0.00  0.00    +0.000 A 
ENDBRANCH  10  15
BRANCH  11  21
ATOM     21  C   UNL     1      -1.344  11.023  18.058  0.00  0.00    +0.000 C 
ATOM     22  N   UNL     1      -1.295  12.273  17.503  0.00  0.00    +0.000 N 
ATOM     23  O   UNL     1      -1.712  10.077  17.374  0.00  0.00    +0.000 OA
ATOM     24  H   UNL     1      -1.263  13.104  18.065  0.00  0.00    +0.000 HD
ATOM     25  H   UNL     1      -1.648  12.344  16.560  0.00  0.00    +0.000 HD
ENDBRANCH  11  21
BRANCH   1  27
ATOM     26  C   UNL     1      -5.804  16.439  23.023  0.00  0.00    +0.000 C 
ATOM     27  C   UNL     1      -4.327  16.362  23.447  0.00  0.00    +0.000 C 
ATOM     28  C   UNL     1      -3.522  17.486  22.779  0.00  0.00    +0.000 C 
ATOM     29  C   UNL     1      -4.271  16.562  24.976  0.00  0.00    +0.000 C 
ENDBRANCH   1  27
TORSDOF 3
ENDMDL
MODEL 7
REMARK VINA RESULT:      -6.5      1.409      2.048
REMARK  Name = 
REMARK  6 active torsions:
REMARK  status: ('A' for Active; 'I' for Inactive)
REMARK    1  A    between atoms: C_1  and  C_2
REMARK    2  A    between atoms: C_2  and  C_3
REMARK    3  A    between atoms: C_2  and  C_4
REMARK    4  A    between atoms: C_2  and  N_5
REMARK    5  A    between atoms: C_14  and  C_15
REMARK    6  A    between atoms: C_21  and  C_22
REMARK                            x       y       z     vdW  Elec       q    Type
REMARK                         _______ _______ _______ _____ _____    ______ ____
ROOT
ATOM      1  N   UNL     1       2.892   6.891  18.209  0.00  0.00    +0.000 N 
ATOM      2  C   UNL     1       2.204   7.329  19.316  0.00  0.00    +0.000 C 
ATOM      3  O   UNL     1       2.062   6.649  20.325  0.00  0.00    +0.000 OA
ATOM      4  N   UNL     1       1.650   8.598  19.195  0.00  0.00    +0.000 N 
ATOM      5  C   UNL     1       1.565   9.367  17.955  0.00  0.00    +0.000 C 
ATOM      6  C   UNL     1       1.978  10.804  18.214  0.00  0.00    +0.000 C 
ATOM      7  N   UNL     1       1.269  11.350  19.360  0.00  0.00    +0.000 N 
ATOM      8  C   UNL     1       1.123  12.669  19.671  0.00  0.00    +0.000 A 
ATOM      9 CL   UNL     1       1.734  13.838  18.575  0.00  0.00    +0.000 Cl
ATOM     10  C   UNL     1       0.461  12.793  20.878  0.00  0.00    +0.000 A 
ATOM     11  C   UNL     1       0.140  11.433  21.297  0.00  0.00    +0.000 A 
ATOM     12  C   UNL     1       0.695  10.566  20.339  0.00  0.00    +0.000 A 
ATOM     13  C   UNL     1       0.766   9.058  20.272  0.00  0.00    +0.000 C 
ATOM     14  H   UNL     1       3.388   7.628  17.734  0.00  0.00    +0.000 HD
ENDROOT
BRANCH  10  15
ATOM     15  C   UNL     1       0.145  14.093  21.493  0.00  0.00    +0.000 A 
ATOM     16  C   UNL     1      -1.163  14.592  21.497  0.00  0.00    +0.000 A 
ATOM     17  C   UNL     1      -1.450  15.846  22.061  0.00  0.00    +0.000 A 
ATOM     18  C   UNL     1      -0.431  16.626  22.602  0.00  0.00    +0.000 A 
ATOM     19  C   UNL     1       0.873  16.144  22.602  0.00  0.00    +0.000 A 
ATOM     20  C   UNL     1       1.150  14.877  22.077  0.00  0.00    +0.000 A 
ENDBRANCH  10  15
BRANCH  11  21
ATOM     21  C   UNL     1      -0.561  11.042  22.521  0.00  0.00    +0.000 C 
ATOM     22  N   UNL     1      -1.838  11.512  22.667  0.00  0.00    +0.000 N 
ATOM     23  O   UNL     1      -0.056  10.385  23.424  0.00  0.00    +0.000 OA
ATOM     24  H   UNL     1      -2.199  12.258  22.101  0.00  0.00    +0.000 HD
ATOM     25  H   UNL     1      -2.262  11.343  23.568  0.00  0.00    +0.000 HD
ENDBRANCH  11  21
BRANCH   1  27
ATOM     26  C   UNL     1       4.492   5.504  16.866  0.00  0.00    +0.000 C 
ATOM     27  C   UNL     1       3.573   5.586  18.096  0.00  0.00    +0.000 C 
ATOM     28  C   UNL     1       2.541   4.448  18.067  0.00  0.00    +0.000 C 
ATOM     29  C   UNL     1       4.457   5.412  19.349  0.00  0.00    +0.000 C 
ENDBRANCH   1  27
TORSDOF 3
ENDMDL
MODEL 8
REMARK VINA RESULT:      -6.4      2.818      3.797
REMARK  Name = 
REMARK  6 active torsions:
REMARK  status: ('A' for Active; 'I' for Inactive)
REMARK    1  A    between atoms: C_1  and  C_2
REMARK    2  A    between atoms: C_2  and  C_3
REMARK    3  A    between atoms: C_2  and  C_4
REMARK    4  A    between atoms: C_2  and  N_5
REMARK    5  A    between atoms: C_14  and  C_15
REMARK    6  A    between atoms: C_21  and  C_22
REMARK                            x       y       z     vdW  Elec       q    Type
REMARK                         _______ _______ _______ _____ _____    ______ ____
ROOT
ATOM      1  N   UNL     1       2.558   6.789  19.291  0.00  0.00    +0.000 N 
ATOM      2  C   UNL     1       1.953   7.867  18.689  0.00  0.00    +0.000 C 
ATOM      3  O   UNL     1       1.854   7.983  17.474  0.00  0.00    +0.000 OA
ATOM      4  N   UNL     1       1.483   8.838  19.565  0.00  0.00    +0.000 N 
ATOM      5  C   UNL     1       1.772   8.893  20.997  0.00  0.00    +0.000 C 
ATOM      6  C   UNL     1       0.499   9.193  21.767  0.00  0.00    +0.000 C 
ATOM      7  N   UNL     1      -0.189  10.344  21.204  0.00  0.00    +0.000 N 
ATOM      8  C   UNL     1      -1.146  11.096  21.816  0.00  0.00    +0.000 A 
ATOM      9 CL   UNL     1      -1.536  10.748  23.450  0.00  0.00    +0.000 Cl
ATOM     10  C   UNL     1      -1.624  12.049  20.937  0.00  0.00    +0.000 A 
ATOM     11  C   UNL     1      -0.850  11.884  19.712  0.00  0.00    +0.000 A 
ATOM     12  C   UNL     1       0.006  10.786  19.912  0.00  0.00    +0.000 A 
ATOM     13  C   UNL     1       0.976  10.087  18.987  0.00  0.00    +0.000 C 
ATOM     14  H   UNL     1       2.130   6.532  20.165  0.00  0.00    +0.000 HD
ENDROOT
BRANCH  10  15
ATOM     15  C   UNL     1      -2.668  13.024  21.295  0.00  0.00    +0.000 A 
ATOM     16  C   UNL     1      -3.962  12.923  20.770  0.00  0.00    +0.000 A 
ATOM     17  C   UNL     1      -4.944  13.873  21.096  0.00  0.00    +0.000 A 
ATOM     18  C   UNL     1      -4.637  14.947  21.927  0.00  0.00    +0.000 A 
ATOM     19  C   UNL     1      -3.356  15.062  22.454  0.00  0.00    +0.000 A 
ATOM     20  C   UNL     1      -2.391  14.092  22.161  0.00  0.00    +0.000 A 
ENDBRANCH  10  15
BRANCH  11  21
ATOM     21  C   UNL     1      -0.989  12.664  18.481  0.00  0.00    +0.000 C 
ATOM     22  N   UNL     1      -0.525  13.950  18.520  0.00  0.00    +0.000 N 
ATOM     23  O   UNL     1      -1.541  12.256  17.466  0.00  0.00    +0.000 OA
ATOM     24  H   UNL     1      -0.313  14.413  19.385  0.00  0.00    +0.000 HD
ATOM     25  H   UNL     1      -0.741  14.515  17.712  0.00  0.00    +0.000 HD
ENDBRANCH  11  21
BRANCH   1  27
ATOM     26  C   UNL     1       4.147   6.045  17.499  0.00  0.00    +0.000 C 
ATOM     27  C   UNL     1       3.129   5.630  18.576  0.00  0.00    +0.000 C 
ATOM     28  C   UNL     1       2.009   4.785  17.953  0.00  0.00    +0.000 C 
ATOM     29  C   UNL     1       3.876   4.765  19.613  0.00  0.00    +0.000 C 
ENDBRANCH   1  27
TORSDOF 3
ENDMDL
