MODEL 1
REMARK VINA RESULT:      -8.8      0.000      0.000
REMARK  Name = 
REMARK  9 active torsions:
REMARK  status: ('A' for Active; 'I' for Inactive)
REMARK    1  A    between atoms: C_1  and  C_2
REMARK    2  A    between atoms: C_2  and  C_3
REMARK    3  A    between atoms: C_2  and  C_10
REMARK    4  A    between atoms: C_3  and  C_4
REMARK    5  A    between atoms: N_8  and  C_9
REMARK    6  A    between atoms: C_14  and  N_15
REMARK    7  A    between atoms: C_16  and  C_18
REMARK    8  A    between atoms: C_20  and  C_21
REMARK    9  A    between atoms: N_23  and  C_24
REMARK                            x       y       z     vdW  Elec       q    Type
REMARK                         _______ _______ _______ _____ _____    ______ ____
ROOT
ATOM      1  N   UNL     1       2.491   6.935  18.769  0.00  0.00    +0.000 N 
ATOM      2  C   UNL     1       1.938   6.930  20.040  0.00  0.00    +0.000 C 
ATOM      3  O   UNL     1       1.886   5.980  20.816  0.00  0.00    +0.000 OA
ATOM      4  H   UNL     1       2.564   7.850  18.329  0.00  0.00    +0.000 HD
ENDROOT
BRANCH   1   9
ATOM      5  C   UNL     1       4.675   4.971  16.493  0.00  0.00    +0.000 A 
ATOM      6  C   UNL     1       4.370   3.664  16.916  0.00  0.00    +0.000 A 
ATOM      7  C   UNL     1       3.360   3.439  17.853  0.00  0.00    +0.000 A 
ATOM      8  C   UNL     1       2.689   4.517  18.420  0.00  0.00    +0.000 A 
ATOM      9  C   UNL     1       3.083   5.825  18.140  0.00  0.00    +0.000 A 
ATOM     10  C   UNL     1       4.073   6.045  17.178  0.00  0.00    +0.000 A 
BRANCH   5  12
ATOM     11  C   UNL     1       5.860   3.922  14.458  0.00  0.00    +0.000 C 
ATOM     12  C   UNL     1       5.536   5.198  15.248  0.00  0.00    +0.000 C 
BRANCH  12  13
ATOM     13  C   UNL     1       6.849   5.985  15.553  0.00  0.00    +0.000 C 
BRANCH  13  14
ATOM     14  C   UNL     1       7.408   5.718  16.915  0.00  0.00    +0.000 A 
ATOM     15  N   UNL     1       7.766   4.550  17.415  0.00  0.00    +0.000 NA
ATOM     16  N   UNL     1       7.938   4.706  18.773  0.00  0.00    +0.000 NA
ATOM     17  C   UNL     1       7.725   5.971  19.054  0.00  0.00    +0.000 A 
ATOM     18  N   UNL     1       7.575   6.661  17.894  0.00  0.00    +0.000 N 
ATOM     19  C   UNL     1       7.688   8.082  17.722  0.00  0.00    +0.000 C 
ENDBRANCH  13  14
ENDBRANCH  12  13
ENDBRANCH   5  12
ENDBRANCH   1   9
BRANCH   2  20
ATOM     20  C   UNL     1       1.393   8.231  20.497  0.00  0.00    +0.000 A 
ATOM     21  C   UNL     1       0.689   9.020  19.581  0.00  0.00    +0.000 A 
ATOM     22  C   UNL     1       0.132  10.203  20.046  0.00  0.00    +0.000 A 
ATOM     23  C   UNL     1       0.295  10.537  21.396  0.00  0.00    +0.000 A 
ATOM     24  C   UNL     1       1.022   9.692  22.224  0.00  0.00    +0.000 A 
ATOM     25  N   UNL     1       1.571   8.539  21.806  0.00  0.00    +0.000 NA
BRANCH  22  26
ATOM     26  C   UNL     1      -0.676  11.123  19.200  0.00  0.00    +0.000 C 
ATOM     27  O   UNL     1      -0.494  12.330  19.296  0.00  0.00    +0.000 OA
ATOM     28  N   UNL     1      -1.623  10.594  18.332  0.00  0.00    +0.000 N 
ATOM     29  H   UNL     1      -1.613   9.613  18.086  0.00  0.00    +0.000 HD
BRANCH  28  30
ATOM     30  C   UNL     1      -2.404  11.498  17.492  0.00  0.00    +0.000 C 
ATOM     31  C   UNL     1      -3.756  11.831  18.102  0.00  0.00    +0.000 C 
ATOM     32  C   UNL     1      -4.719  10.908  17.386  0.00  0.00    +0.000 C 
ATOM     33  N   UNL     1      -4.212  10.827  16.015  0.00  0.00    +0.000 NA
ATOM     34  C   UNL     1      -2.742  10.881  16.123  0.00  0.00    +0.000 C 
ATOM     35  H   UNL     1      -4.524  11.654  15.502  0.00  0.00    +0.000 HD
ENDBRANCH  28  30
ENDBRANCH  22  26
ENDBRANCH   2  20
TORSDOF 7
ENDMDL
MODEL 2
REMARK VINA RESULT:      -8.6      3.207      4.107
REMARK  Name = 
REMARK  9 active torsions:
REMARK  status: ('A' for Active; 'I' for Inactive)
REMARK    1  A    between atoms: C_1  and  C_2
REMARK    2  A    between atoms: C_2  and  C_3
REMARK    3  A    between atoms: C_2  and  C_10
REMARK    4  A    between atoms: C_3  and  C_4
REMARK    5  A    between atoms: N_8  and  C_9
REMARK    6  A    between atoms: C_14  and  N_15
REMARK    7  A    between atoms: C_16  and  C_18
REMARK    8  A    between atoms: C_20  and  C_21
REMARK    9  A    between atoms: N_23  and  C_24
REMARK                            x       y       z     vdW  Elec       q    Type
REMARK                         _______ _______ _______ _____ _____    ______ ____
ROOT
ATOM      1  N   UNL     1       2.295   7.289  18.833  0.00  0.00    +0.000 N 
ATOM      2  C   UNL     1       2.035   8.482  18.177  0.00  0.00    +0.000 C 
ATOM      3  O   UNL     1       2.118   8.692  16.971  0.00  0.00    +0.000 OA
ATOM      4  H   UNL     1       2.039   7.268  19.818  0.00  0.00    +0.000 HD
ENDROOT
BRANCH   1   9
ATOM      5  C   UNL     1       4.433   4.927  16.920  0.00  0.00    +0.000 A 
ATOM      6  C   UNL     1       3.673   3.749  17.035  0.00  0.00    +0.000 A 
ATOM      7  C   UNL     1       2.411   3.774  17.629  0.00  0.00    +0.000 A 
ATOM      8  C   UNL     1       1.921   4.959  18.167  0.00  0.00    +0.000 A 
ATOM      9  C   UNL     1       2.721   6.101  18.211  0.00  0.00    +0.000 A 
ATOM     10  C   UNL     1       3.971   6.080  17.587  0.00  0.00    +0.000 A 
BRANCH   5  12
ATOM     11  C   UNL     1       5.690   3.859  14.939  0.00  0.00    +0.000 C 
ATOM     12  C   UNL     1       5.652   4.974  15.994  0.00  0.00    +0.000 C 
BRANCH  12  13
ATOM     13  C   UNL     1       7.004   5.020  16.772  0.00  0.00    +0.000 C 
BRANCH  13  14
ATOM     14  C   UNL     1       7.314   6.360  17.360  0.00  0.00    +0.000 A 
ATOM     15  N   UNL     1       7.148   7.539  16.791  0.00  0.00    +0.000 NA
ATOM     16  N   UNL     1       7.829   8.472  17.542  0.00  0.00    +0.000 NA
ATOM     17  C   UNL     1       8.352   7.844  18.571  0.00  0.00    +0.000 A 
ATOM     18  N   UNL     1       7.896   6.565  18.584  0.00  0.00    +0.000 N 
ATOM     19  C   UNL     1       7.917   5.660  19.698  0.00  0.00    +0.000 C 
ENDBRANCH  13  14
ENDBRANCH  12  13
ENDBRANCH   5  12
ENDBRANCH   1   9
BRANCH   2  20
ATOM     20  C   UNL     1       1.574   9.593  19.046  0.00  0.00    +0.000 A 
ATOM     21  C   UNL     1       1.620  10.897  18.543  0.00  0.00    +0.000 A 
ATOM     22  C   UNL     1       1.124  11.914  19.347  0.00  0.00    +0.000 A 
ATOM     23  C   UNL     1       0.602  11.583  20.604  0.00  0.00    +0.000 A 
ATOM     24  C   UNL     1       0.613  10.257  21.018  0.00  0.00    +0.000 A 
ATOM     25  N   UNL     1       1.083   9.250  20.263  0.00  0.00    +0.000 NA
BRANCH  22  26
ATOM     26  C   UNL     1       1.069  13.342  18.932  0.00  0.00    +0.000 C 
ATOM     27  O   UNL     1       0.038  13.775  18.432  0.00  0.00    +0.000 OA
ATOM     28  N   UNL     1       2.187  14.146  19.111  0.00  0.00    +0.000 N 
ATOM     29  H   UNL     1       2.941  13.861  19.722  0.00  0.00    +0.000 HD
BRANCH  28  30
ATOM     30  C   UNL     1       2.126  15.551  18.717  0.00  0.00    +0.000 C 
ATOM     31  C   UNL     1       3.156  15.898  17.654  0.00  0.00    +0.000 C 
ATOM     32  C   UNL     1       4.286  16.537  18.433  0.00  0.00    +0.000 C 
ATOM     33  N   UNL     1       3.627  17.293  19.499  0.00  0.00    +0.000 NA
ATOM     34  C   UNL     1       2.442  16.502  19.884  0.00  0.00    +0.000 C 
ATOM     35  H   UNL     1       3.304  18.183  19.117  0.00  0.00    +0.000 HD
ENDBRANCH  28  30
ENDBRANCH  22  26
ENDBRANCH   2  20
TORSDOF 7
ENDMDL
MODEL 3
REMARK VINA RESULT:      -8.6      2.367      3.272
REMARK  Name = 
REMARK  9 active torsions:
REMARK  status: ('A' for Active; 'I' for Inactive)
REMARK    1  A    between atoms: C_1  and  C_2
REMARK    2  A    between atoms: C_2  and  C_3
REMARK    3  A    between atoms: C_2  and  C_10
REMARK    4  A    between atoms: C_3  and  C_4
REMARK    5  A    between atoms: N_8  and  C_9
REMARK    6  A    between atoms: C_14  and  N_15
REMARK    7  A    between atoms: C_16  and  C_18
REMARK    8  A    between atoms: C_20  and  C_21
REMARK    9  A    between atoms: N_23  and  C_24
REMARK                            x       y       z     vdW  Elec       q    Type
REMARK                         _______ _______ _______ _____ _____    ______ ____
ROOT
ATOM      1  N   UNL     1       2.293   6.975  18.755  0.00  0.00    +0.000 N 
ATOM      2  C   UNL     1       1.797   6.997  20.049  0.00  0.00    +0.000 C 
ATOM      3  O   UNL     1       1.696   6.043  20.815  0.00  0.00    +0.000 OA
ATOM      4  H   UNL     1       2.426   7.887  18.324  0.00  0.00    +0.000 HD
ENDROOT
BRANCH   1   9
ATOM      5  C   UNL     1       4.535   4.746  16.803  0.00  0.00    +0.000 A 
ATOM      6  C   UNL     1       3.786   3.555  16.823  0.00  0.00    +0.000 A 
ATOM      7  C   UNL     1       2.501   3.533  17.368  0.00  0.00    +0.000 A 
ATOM      8  C   UNL     1       1.976   4.682  17.950  0.00  0.00    +0.000 A 
ATOM      9  C   UNL     1       2.758   5.828  18.087  0.00  0.00    +0.000 A 
ATOM     10  C   UNL     1       4.032   5.855  17.512  0.00  0.00    +0.000 A 
BRANCH   5  12
ATOM     11  C   UNL     1       5.907   3.770  14.852  0.00  0.00    +0.000 C 
ATOM     12  C   UNL     1       5.787   4.856  15.929  0.00  0.00    +0.000 C 
BRANCH  12  13
ATOM     13  C   UNL     1       7.104   4.930  16.764  0.00  0.00    +0.000 C 
BRANCH  13  14
ATOM     14  C   UNL     1       7.367   6.279  17.355  0.00  0.00    +0.000 A 
ATOM     15  N   UNL     1       7.207   7.451  16.771  0.00  0.00    +0.000 NA
ATOM     16  N   UNL     1       7.839   8.400  17.545  0.00  0.00    +0.000 NA
ATOM     17  C   UNL     1       8.326   7.787  18.600  0.00  0.00    +0.000 A 
ATOM     18  N   UNL     1       7.890   6.501  18.601  0.00  0.00    +0.000 N 
ATOM     19  C   UNL     1       7.877   5.604  19.722  0.00  0.00    +0.000 C 
ENDBRANCH  13  14
ENDBRANCH  12  13
ENDBRANCH   5  12
ENDBRANCH   1   9
BRANCH   2  20
ATOM     20  C   UNL     1       1.387   8.333  20.547  0.00  0.00    +0.000 A 
ATOM     21  C   UNL     1       1.319   9.393  19.637  0.00  0.00    +0.000 A 
ATOM     22  C   UNL     1       0.872  10.619  20.110  0.00  0.00    +0.000 A 
ATOM     23  C   UNL     1       0.507  10.727  21.458  0.00  0.00    +0.000 A 
ATOM     24  C   UNL     1       0.622   9.616  22.285  0.00  0.00    +0.000 A 
ATOM     25  N   UNL     1       1.049   8.416  21.858  0.00  0.00    +0.000 NA
BRANCH  22  26
ATOM     26  C   UNL     1       0.709  11.824  19.253  0.00  0.00    +0.000 C 
ATOM     27  O   UNL     1      -0.230  11.871  18.467  0.00  0.00    +0.000 OA
ATOM     28  N   UNL     1       1.627  12.861  19.355  0.00  0.00    +0.000 N 
ATOM     29  H   UNL     1       2.252  12.927  20.148  0.00  0.00    +0.000 HD
BRANCH  28  30
ATOM     30  C   UNL     1       1.457  14.050  18.525  0.00  0.00    +0.000 C 
ATOM     31  C   UNL     1       2.786  14.665  18.117  0.00  0.00    +0.000 C 
ATOM     32  C   UNL     1       2.974  15.810  19.090  0.00  0.00    +0.000 C 
ATOM     33  N   UNL     1       1.628  16.343  19.307  0.00  0.00    +0.000 NA
ATOM     34  C   UNL     1       0.720  15.181  19.263  0.00  0.00    +0.000 C 
ATOM     35  H   UNL     1       1.392  16.961  18.528  0.00  0.00    +0.000 HD
ENDBRANCH  28  30
ENDBRANCH  22  26
ENDBRANCH   2  20
TORSDOF 7
ENDMDL
MODEL 4
REMARK VINA RESULT:      -8.5      1.496      2.436
REMARK  Name = 
REMARK  9 active torsions:
REMARK  status: ('A' for Active; 'I' for Inactive)
REMARK    1  A    between atoms: C_1  and  C_2
REMARK    2  A    between atoms: C_2  and  C_3
REMARK    3  A    between atoms: C_2  and  C_10
REMARK    4  A    between atoms: C_3  and  C_4
REMARK    5  A    between atoms: N_8  and  C_9
REMARK    6  A    between atoms: C_14  and  N_15
REMARK    7  A    between atoms: C_16  and  C_18
REMARK    8  A    between atoms: C_20  and  C_21
REMARK    9  A    between atoms: N_23  and  C_24
REMARK                            x       y       z     vdW  Elec       q    Type
REMARK                         _______ _______ _______ _____ _____    ______ ____
ROOT
ATOM      1  N   UNL     1       2.534   6.571  19.857  0.00  0.00    +0.000 N 
ATOM      2  C   UNL     1       2.145   7.732  19.206  0.00  0.00    +0.000 C 
ATOM      3  O   UNL     1       2.362   8.027  18.035  0.00  0.00    +0.000 OA
ATOM      4  H   UNL     1       2.145   6.443  20.788  0.00  0.00    +0.000 HD
ENDROOT
BRANCH   1   9
ATOM      5  C   UNL     1       5.450   4.499  18.852  0.00  0.00    +0.000 A 
ATOM      6  C   UNL     1       4.793   3.429  18.219  0.00  0.00    +0.000 A 
ATOM      7  C   UNL     1       3.412   3.463  18.019  0.00  0.00    +0.000 A 
ATOM      8  C   UNL     1       2.667   4.534  18.501  0.00  0.00    +0.000 A 
ATOM      9  C   UNL     1       3.271   5.526  19.273  0.00  0.00    +0.000 A 
ATOM     10  C   UNL     1       4.658   5.504  19.444  0.00  0.00    +0.000 A 
BRANCH   5  12
ATOM     11  C   UNL     1       7.556   5.788  19.590  0.00  0.00    +0.000 C 
ATOM     12  C   UNL     1       6.975   4.619  18.783  0.00  0.00    +0.000 C 
BRANCH  12  13
ATOM     13  C   UNL     1       7.514   4.659  17.319  0.00  0.00    +0.000 C 
BRANCH  13  14
ATOM     14  C   UNL     1       6.689   5.501  16.396  0.00  0.00    +0.000 A 
ATOM     15  N   UNL     1       6.434   6.790  16.507  0.00  0.00    +0.000 NA
ATOM     16  N   UNL     1       5.411   7.096  15.637  0.00  0.00    +0.000 NA
ATOM     17  C   UNL     1       5.102   5.996  14.990  0.00  0.00    +0.000 A 
ATOM     18  N   UNL     1       6.004   5.031  15.308  0.00  0.00    +0.000 N 
ATOM     19  C   UNL     1       6.258   3.822  14.575  0.00  0.00    +0.000 C 
ENDBRANCH  13  14
ENDBRANCH  12  13
ENDBRANCH   5  12
ENDBRANCH   1   9
BRANCH   2  20
ATOM     20  C   UNL     1       1.352   8.681  20.026  0.00  0.00    +0.000 A 
ATOM     21  C   UNL     1       0.465   9.545  19.377  0.00  0.00    +0.000 A 
ATOM     22  C   UNL     1      -0.314  10.379  20.167  0.00  0.00    +0.000 A 
ATOM     23  C   UNL     1      -0.177  10.307  21.559  0.00  0.00    +0.000 A 
ATOM     24  C   UNL     1       0.742   9.422  22.107  0.00  0.00    +0.000 A 
ATOM     25  N   UNL     1       1.509   8.600  21.371  0.00  0.00    +0.000 NA
BRANCH  22  26
ATOM     26  C   UNL     1      -1.329  11.321  19.622  0.00  0.00    +0.000 C 
ATOM     27  O   UNL     1      -1.385  12.459  20.072  0.00  0.00    +0.000 OA
ATOM     28  N   UNL     1      -2.194  10.887  18.626  0.00  0.00    +0.000 N 
ATOM     29  H   UNL     1      -2.003  10.044  18.100  0.00  0.00    +0.000 HD
BRANCH  28  30
ATOM     30  C   UNL     1      -3.180  11.817  18.081  0.00  0.00    +0.000 C 
ATOM     31  C   UNL     1      -4.429  11.906  18.943  0.00  0.00    +0.000 C 
ATOM     32  C   UNL     1      -5.422  11.004  18.243  0.00  0.00    +0.000 C 
ATOM     33  N   UNL     1      -5.154  11.186  16.815  0.00  0.00    +0.000 NA
ATOM     34  C   UNL     1      -3.696  11.382  16.699  0.00  0.00    +0.000 C 
ATOM     35  H   UNL     1      -5.616  12.042  16.503  0.00  0.00    +0.000 HD
ENDBRANCH  28  30
ENDBRANCH  22  26
ENDBRANCH   2  20
TORSDOF 7
ENDMDL
MODEL 5
REMARK VINA RESULT:      -8.5      2.889      4.027
REMARK  Name = 
REMARK  9 active torsions:
REMARK  status: ('A' for Active; 'I' for Inactive)
REMARK    1  A    between atoms: C_1  and  C_2
REMARK    2  A    between atoms: C_2  and  C_3
REMARK    3  A    between atoms: C_2  and  C_10
REMARK    4  A    between atoms: C_3  and  C_4
REMARK    5  A    between atoms: N_8  and  C_9
REMARK    6  A    between atoms: C_14  and  N_15
REMARK    7  A    between atoms: C_16  and  C_18
REMARK    8  A    between atoms: C_20  and  C_21
REMARK    9  A    between atoms: N_23  and  C_24
REMARK                            x       y       z     vdW  Elec       q    Type
REMARK                         _______ _______ _______ _____ _____    ______ ____
ROOT
ATOM      1  N   UNL     1       2.120   6.635  18.501  0.00  0.00    +0.000 N 
ATOM      2  C   UNL     1       1.850   7.086  19.783  0.00  0.00    +0.000 C 
ATOM      3  O   UNL     1       2.007   6.466  20.830  0.00  0.00    +0.000 OA
ATOM      4  H   UNL     1       2.056   7.339  17.768  0.00  0.00    +0.000 HD
ENDROOT
BRANCH   1   9
ATOM      5  C   UNL     1       4.402   4.005  17.203  0.00  0.00    +0.000 A 
ATOM      6  C   UNL     1       3.706   2.849  17.601  0.00  0.00    +0.000 A 
ATOM      7  C   UNL     1       2.439   2.946  18.177  0.00  0.00    +0.000 A 
ATOM      8  C   UNL     1       1.880   4.197  18.416  0.00  0.00    +0.000 A 
ATOM      9  C   UNL     1       2.616   5.359  18.181  0.00  0.00    +0.000 A 
ATOM     10  C   UNL     1       3.871   5.257  17.575  0.00  0.00    +0.000 A 
BRANCH   5  12
ATOM     11  C   UNL     1       6.925   4.432  16.900  0.00  0.00    +0.000 C 
ATOM     12  C   UNL     1       5.624   3.895  16.288  0.00  0.00    +0.000 C 
BRANCH  12  13
ATOM     13  C   UNL     1       5.390   4.534  14.883  0.00  0.00    +0.000 C 
BRANCH  13  14
ATOM     14  C   UNL     1       6.652   4.787  14.119  0.00  0.00    +0.000 A 
ATOM     15  N   UNL     1       7.683   5.517  14.502  0.00  0.00    +0.000 NA
ATOM     16  N   UNL     1       8.482   5.730  13.400  0.00  0.00    +0.000 NA
ATOM     17  C   UNL     1       7.941   5.089  12.390  0.00  0.00    +0.000 A 
ATOM     18  N   UNL     1       6.902   4.343  12.848  0.00  0.00    +0.000 N 
ATOM     19  C   UNL     1       6.280   3.237  12.176  0.00  0.00    +0.000 C 
ENDBRANCH  13  14
ENDBRANCH  12  13
ENDBRANCH   5  12
ENDBRANCH   1   9
BRANCH   2  20
ATOM     20  C   UNL     1       1.354   8.482  19.871  0.00  0.00    +0.000 A 
ATOM     21  C   UNL     1       0.705   8.888  21.041  0.00  0.00    +0.000 A 
ATOM     22  C   UNL     1       0.307  10.215  21.128  0.00  0.00    +0.000 A 
ATOM     23  C   UNL     1       0.581  11.071  20.054  0.00  0.00    +0.000 A 
ATOM     24  C   UNL     1       1.222  10.567  18.929  0.00  0.00    +0.000 A 
ATOM     25  N   UNL     1       1.622   9.290  18.815  0.00  0.00    +0.000 NA
BRANCH  22  26
ATOM     26  C   UNL     1      -0.358  10.801  22.324  0.00  0.00    +0.000 C 
ATOM     27  O   UNL     1      -0.099  10.342  23.430  0.00  0.00    +0.000 OA
ATOM     28  N   UNL     1      -1.261  11.843  22.159  0.00  0.00    +0.000 N 
ATOM     29  H   UNL     1      -1.299  12.366  21.294  0.00  0.00    +0.000 HD
BRANCH  28  30
ATOM     30  C   UNL     1      -1.900  12.426  23.335  0.00  0.00    +0.000 C 
ATOM     31  C   UNL     1      -3.413  12.491  23.198  0.00  0.00    +0.000 C 
ATOM     32  C   UNL     1      -3.682  13.922  22.784  0.00  0.00    +0.000 C 
ATOM     33  N   UNL     1      -2.690  14.716  23.510  0.00  0.00    +0.000 NA
ATOM     34  C   UNL     1      -1.473  13.885  23.572  0.00  0.00    +0.000 C 
ATOM     35  H   UNL     1      -3.024  14.863  24.464  0.00  0.00    +0.000 HD
ENDBRANCH  28  30
ENDBRANCH  22  26
ENDBRANCH   2  20
TORSDOF 7
ENDMDL
MODEL 6
REMARK VINA RESULT:      -8.4      1.674      2.605
REMARK  Name = 
REMARK  9 active torsions:
REMARK  status: ('A' for Active; 'I' for Inactive)
REMARK    1  A    between atoms: C_1  and  C_2
REMARK    2  A    between atoms: C_2  and  C_3
REMARK    3  A    between atoms: C_2  and  C_10
REMARK    4  A    between atoms: C_3  and  C_4
REMARK    5  A    between atoms: N_8  and  C_9
REMARK    6  A    between atoms: C_14  and  N_15
REMARK    7  A    between atoms: C_16  and  C_18
REMARK    8  A    between atoms: C_20  and  C_21
REMARK    9  A    between atoms: N_23  and  C_24
REMARK                            x       y       z     vdW  Elec       q    Type
REMARK                         _______ _______ _______ _____ _____    ______ ____
ROOT
ATOM      1  N   UNL     1       1.983   5.926  19.218  0.00  0.00    +0.000 N 
ATOM      2  C   UNL     1       2.349   7.237  18.960  0.00  0.00    +0.000 C 
ATOM      3  O   UNL     1       3.188   7.622  18.152  0.00  0.00    +0.000 OA
ATOM      4  H   UNL     1       1.172   5.810  19.823  0.00  0.00    +0.000 HD
ENDROOT
BRANCH   1   9
ATOM      5  C   UNL     1       4.414   3.793  17.388  0.00  0.00    +0.000 A 
ATOM      6  C   UNL     1       3.738   2.559  17.416  0.00  0.00    +0.000 A 
ATOM      7  C   UNL     1       2.441   2.472  17.922  0.00  0.00    +0.000 A 
ATOM      8  C   UNL     1       1.830   3.599  18.460  0.00  0.00    +0.000 A 
ATOM      9  C   UNL     1       2.536   4.794  18.593  0.00  0.00    +0.000 A 
ATOM     10  C   UNL     1       3.824   4.885  18.055  0.00  0.00    +0.000 A 
BRANCH   5  12
ATOM     11  C   UNL     1       6.845   4.643  17.285  0.00  0.00    +0.000 C 
ATOM     12  C   UNL     1       5.684   3.960  16.549  0.00  0.00    +0.000 C 
BRANCH  12  13
ATOM     13  C   UNL     1       5.421   4.672  15.186  0.00  0.00    +0.000 C 
BRANCH  13  14
ATOM     14  C   UNL     1       6.654   4.865  14.360  0.00  0.00    +0.000 A 
ATOM     15  N   UNL     1       7.724   5.570  14.676  0.00  0.00    +0.000 NA
ATOM     16  N   UNL     1       8.478   5.729  13.534  0.00  0.00    +0.000 NA
ATOM     17  C   UNL     1       7.872   5.080  12.567  0.00  0.00    +0.000 A 
ATOM     18  N   UNL     1       6.832   4.380  13.091  0.00  0.00    +0.000 N 
ATOM     19  C   UNL     1       6.146   3.279  12.477  0.00  0.00    +0.000 C 
ENDBRANCH  13  14
ENDBRANCH  12  13
ENDBRANCH   5  12
ENDBRANCH   1   9
BRANCH   2  20
ATOM     20  C   UNL     1       1.605   8.264  19.731  0.00  0.00    +0.000 A 
ATOM     21  C   UNL     1       0.816   9.183  19.032  0.00  0.00    +0.000 A 
ATOM     22  C   UNL     1       0.078  10.094  19.774  0.00  0.00    +0.000 A 
ATOM     23  C   UNL     1       0.155  10.040  21.172  0.00  0.00    +0.000 A 
ATOM     24  C   UNL     1       0.979   9.096  21.773  0.00  0.00    +0.000 A 
ATOM     25  N   UNL     1       1.703   8.200  21.082  0.00  0.00    +0.000 NA
BRANCH  22  26
ATOM     26  C   UNL     1      -0.836  11.102  19.172  0.00  0.00    +0.000 C 
ATOM     27  O   UNL     1      -0.606  12.292  19.350  0.00  0.00    +0.000 OA
ATOM     28  N   UNL     1      -1.931  10.673  18.435  0.00  0.00    +0.000 N 
ATOM     29  H   UNL     1      -1.992   9.721  18.097  0.00  0.00    +0.000 HD
BRANCH  28  30
ATOM     30  C   UNL     1      -2.818  11.664  17.832  0.00  0.00    +0.000 C 
ATOM     31  C   UNL     1      -4.094  11.862  18.634  0.00  0.00    +0.000 C 
ATOM     32  C   UNL     1      -5.121  11.024  17.903  0.00  0.00    +0.000 C 
ATOM     33  N   UNL     1      -4.776  11.159  16.486  0.00  0.00    +0.000 NA
ATOM     34  C   UNL     1      -3.305  11.243  16.434  0.00  0.00    +0.000 C 
ATOM     35  H   UNL     1      -5.158  12.041  16.141  0.00  0.00    +0.000 HD
ENDBRANCH  28  30
ENDBRANCH  22  26
ENDBRANCH   2  20
TORSDOF 7
ENDMDL
MODEL 7
REMARK VINA RESULT:      -8.4      2.653      3.556
REMARK  Name = 
REMARK  9 active torsions:
REMARK  status: ('A' for Active; 'I' for Inactive)
REMARK    1  A    between atoms: C_1  and  C_2
REMARK    2  A    between atoms: C_2  and  C_3
REMARK    3  A    between atoms: C_2  and  C_10
REMARK    4  A    between atoms: C_3  and  C_4
REMARK    5  A    between atoms: N_8  and  C_9
REMARK    6  A    between atoms: C_14  and  N_15
REMARK    7  A    between atoms: C_16  and  C_18
REMARK    8  A    between atoms: C_20  and  C_21
REMARK    9  A    between atoms: N_23  and  C_24
REMARK                            x       y       z     vdW  Elec       q    Type
REMARK                         _______ _______ _______ _____ _____    ______ ____
ROOT
ATOM      1  N   UNL     1       2.292   6.873  20.036  0.00  0.00    +0.000 N 
ATOM      2  C   UNL     1       1.796   8.055  19.508  0.00  0.00    +0.000 C 
ATOM      3  O   UNL     1       1.847   8.417  18.337  0.00  0.00    +0.000 OA
ATOM      4  H   UNL     1       2.035   6.685  21.002  0.00  0.00    +0.000 HD
ENDROOT
BRANCH   1   9
ATOM      5  C   UNL     1       4.586   5.321  17.559  0.00  0.00    +0.000 A 
ATOM      6  C   UNL     1       4.407   3.960  17.868  0.00  0.00    +0.000 A 
ATOM      7  C   UNL     1       3.444   3.564  18.797  0.00  0.00    +0.000 A 
ATOM      8  C   UNL     1       2.694   4.522  19.469  0.00  0.00    +0.000 A 
ATOM      9  C   UNL     1       2.964   5.880  19.301  0.00  0.00    +0.000 A 
ATOM     10  C   UNL     1       3.907   6.272  18.347  0.00  0.00    +0.000 A 
BRANCH   5  12
ATOM     11  C   UNL     1       4.849   6.969  15.595  0.00  0.00    +0.000 C 
ATOM     12  C   UNL     1       5.393   5.733  16.325  0.00  0.00    +0.000 C 
BRANCH  12  13
ATOM     13  C   UNL     1       5.599   4.562  15.315  0.00  0.00    +0.000 C 
BRANCH  13  14
ATOM     14  C   UNL     1       6.715   4.792  14.345  0.00  0.00    +0.000 A 
ATOM     15  N   UNL     1       7.826   5.472  14.555  0.00  0.00    +0.000 NA
ATOM     16  N   UNL     1       8.426   5.689  13.334  0.00  0.00    +0.000 NA
ATOM     17  C   UNL     1       7.690   5.097  12.422  0.00  0.00    +0.000 A 
ATOM     18  N   UNL     1       6.720   4.375  13.040  0.00  0.00    +0.000 N 
ATOM     19  C   UNL     1       5.945   3.313  12.464  0.00  0.00    +0.000 C 
ENDBRANCH  13  14
ENDBRANCH  12  13
ENDBRANCH   5  12
ENDBRANCH   1   9
BRANCH   2  20
ATOM     20  C   UNL     1       1.102   8.938  20.478  0.00  0.00    +0.000 A 
ATOM     21  C   UNL     1       0.299   9.971  19.986  0.00  0.00    +0.000 A 
ATOM     22  C   UNL     1      -0.392  10.745  20.908  0.00  0.00    +0.000 A 
ATOM     23  C   UNL     1      -0.255  10.447  22.270  0.00  0.00    +0.000 A 
ATOM     24  C   UNL     1       0.577   9.406  22.660  0.00  0.00    +0.000 A 
ATOM     25  N   UNL     1       1.257   8.638  21.792  0.00  0.00    +0.000 NA
BRANCH  22  26
ATOM     26  C   UNL     1      -1.314  11.851  20.533  0.00  0.00    +0.000 C 
ATOM     27  O   UNL     1      -1.192  12.376  19.433  0.00  0.00    +0.000 OA
ATOM     28  N   UNL     1      -2.280  12.268  21.438  0.00  0.00    +0.000 N 
ATOM     29  H   UNL     1      -2.530  11.695  22.234  0.00  0.00    +0.000 HD
BRANCH  28  30
ATOM     30  C   UNL     1      -3.194  13.343  21.062  0.00  0.00    +0.000 C 
ATOM     31  C   UNL     1      -2.962  14.608  21.872  0.00  0.00    +0.000 C 
ATOM     32  C   UNL     1      -4.031  14.559  22.943  0.00  0.00    +0.000 C 
ATOM     33  N   UNL     1      -5.198  13.971  22.282  0.00  0.00    +0.000 NA
ATOM     34  C   UNL     1      -4.666  12.981  21.326  0.00  0.00    +0.000 C 
ATOM     35  H   UNL     1      -5.675  14.702  21.751  0.00  0.00    +0.000 HD
ENDBRANCH  28  30
ENDBRANCH  22  26
ENDBRANCH   2  20
TORSDOF 7
ENDMDL
MODEL 8
REMARK VINA RESULT:      -8.4      2.704      3.451
REMARK  Name = 
REMARK  9 active torsions:
REMARK  status: ('A' for Active; 'I' for Inactive)
REMARK    1  A    between atoms: C_1  and  C_2
REMARK    2  A    between atoms: C_2  and  C_3
REMARK    3  A    between atoms: C_2  and  C_10
REMARK    4  A    between atoms: C_3  and  C_4
REMARK    5  A    between atoms: N_8  and  C_9
REMARK    6  A    between atoms: C_14  and  N_15
REMARK    7  A    between atoms: C_16  and  C_18
REMARK    8  A    between atoms: C_20  and  C_21
REMARK    9  A    between atoms: N_23  and  C_24
REMARK                            x       y       z     vdW  Elec       q    Type
REMARK                         _______ _______ _______ _____ _____    ______ ____
ROOT
ATOM      1  N   UNL     1       2.712   8.137  18.618  0.00  0.00    +0.000 N 
ATOM      2  C   UNL     1       1.650   8.879  18.126  0.00  0.00    +0.000 C 
ATOM      3  O   UNL     1       0.880   8.556  17.227  0.00  0.00    +0.000 OA
ATOM      4  H   UNL     1       3.153   8.509  19.456  0.00  0.00    +0.000 HD
ENDROOT
BRANCH   1   9
ATOM      5  C   UNL     1       4.507   5.553  16.640  0.00  0.00    +0.000 A 
ATOM      6  C   UNL     1       3.989   4.383  17.225  0.00  0.00    +0.000 A 
ATOM      7  C   UNL     1       2.966   4.456  18.171  0.00  0.00    +0.000 A 
ATOM      8  C   UNL     1       2.494   5.696  18.587  0.00  0.00    +0.000 A 
ATOM      9  C   UNL     1       3.101   6.871  18.145  0.00  0.00    +0.000 A 
ATOM     10  C   UNL     1       4.103   6.794  17.174  0.00  0.00    +0.000 A 
BRANCH   5  12
ATOM     11  C   UNL     1       5.476   4.065  14.773  0.00  0.00    +0.000 C 
ATOM     12  C   UNL     1       5.381   5.469  15.386  0.00  0.00    +0.000 C 
BRANCH  12  13
ATOM     13  C   UNL     1       6.811   6.057  15.601  0.00  0.00    +0.000 C 
BRANCH  13  14
ATOM     14  C   UNL     1       7.387   5.760  16.950  0.00  0.00    +0.000 A 
ATOM     15  N   UNL     1       7.712   4.577  17.436  0.00  0.00    +0.000 NA
ATOM     16  N   UNL     1       7.916   4.717  18.791  0.00  0.00    +0.000 NA
ATOM     17  C   UNL     1       7.753   5.986  19.085  0.00  0.00    +0.000 A 
ATOM     18  N   UNL     1       7.605   6.689  17.932  0.00  0.00    +0.000 N 
ATOM     19  C   UNL     1       7.765   8.107  17.767  0.00  0.00    +0.000 C 
ENDBRANCH  13  14
ENDBRANCH  12  13
ENDBRANCH   5  12
ENDBRANCH   1   9
BRANCH   2  20
ATOM     20  C   UNL     1       1.421  10.180  18.803  0.00  0.00    +0.000 A 
ATOM     21  C   UNL     1       0.650  10.200  19.969  0.00  0.00    +0.000 A 
ATOM     22  C   UNL     1       0.501  11.415  20.622  0.00  0.00    +0.000 A 
ATOM     23  C   UNL     1       1.133  12.546  20.088  0.00  0.00    +0.000 A 
ATOM     24  C   UNL     1       1.868  12.425  18.916  0.00  0.00    +0.000 A 
ATOM     25  N   UNL     1       2.033  11.263  18.262  0.00  0.00    +0.000 NA
BRANCH  22  26
ATOM     26  C   UNL     1      -0.255  11.583  21.893  0.00  0.00    +0.000 C 
ATOM     27  O   UNL     1       0.002  10.848  22.837  0.00  0.00    +0.000 OA
ATOM     28  N   UNL     1      -1.238  12.560  21.975  0.00  0.00    +0.000 N 
ATOM     29  H   UNL     1      -1.291  13.306  21.293  0.00  0.00    +0.000 HD
BRANCH  28  30
ATOM     30  C   UNL     1      -1.969  12.734  23.227  0.00  0.00    +0.000 C 
ATOM     31  C   UNL     1      -3.468  12.555  23.052  0.00  0.00    +0.000 C 
ATOM     32  C   UNL     1      -3.998  13.971  22.962  0.00  0.00    +0.000 C 
ATOM     33  N   UNL     1      -3.165  14.742  23.886  0.00  0.00    +0.000 NA
ATOM     34  C   UNL     1      -1.816  14.152  23.804  0.00  0.00    +0.000 C 
ATOM     35  H   UNL     1      -3.516  14.604  24.835  0.00  0.00    +0.000 HD
ENDBRANCH  28  30
ENDBRANCH  22  26
ENDBRANCH   2  20
TORSDOF 7
ENDMDL
MODEL 9
REMARK VINA RESULT:      -8.3      3.186      3.972
REMARK  Name = 
REMARK  9 active torsions:
REMARK  status: ('A' for Active; 'I' for Inactive)
REMARK    1  A    between atoms: C_1  and  C_2
REMARK    2  A    between atoms: C_2  and  C_3
REMARK    3  A    between atoms: C_2  and  C_10
REMARK    4  A    between atoms: C_3  and  C_4
REMARK    5  A    between atoms: N_8  and  C_9
REMARK    6  A    between atoms: C_14  and  N_15
REMARK    7  A    between atoms: C_16  and  C_18
REMARK    8  A    between atoms: C_20  and  C_21
REMARK    9  A    between atoms: N_23  and  C_24
REMARK                            x       y       z     vdW  Elec       q    Type
REMARK                         _______ _______ _______ _____ _____    ______ ____
ROOT
ATOM      1  N   UNL     1       2.377   7.444  19.030  0.00  0.00    +0.000 N 
ATOM      2  C   UNL     1       1.881   8.546  18.351  0.00  0.00    +0.000 C 
ATOM      3  O   UNL     1       1.713   8.651  17.140  0.00  0.00    +0.000 OA
ATOM      4  H   UNL     1       2.315   7.493  20.044  0.00  0.00    +0.000 HD
ENDROOT
BRANCH   1   9
ATOM      5  C   UNL     1       4.290   5.115  16.856  0.00  0.00    +0.000 A 
ATOM      6  C   UNL     1       3.737   3.885  17.256  0.00  0.00    +0.000 A 
ATOM      7  C   UNL     1       2.657   3.846  18.140  0.00  0.00    +0.000 A 
ATOM      8  C   UNL     1       2.160   5.028  18.679  0.00  0.00    +0.000 A 
ATOM      9  C   UNL     1       2.793   6.244  18.426  0.00  0.00    +0.000 A 
ATOM     10  C   UNL     1       3.854   6.281  17.516  0.00  0.00    +0.000 A 
BRANCH   5  12
ATOM     11  C   UNL     1       5.751   3.816  15.176  0.00  0.00    +0.000 C 
ATOM     12  C   UNL     1       5.239   5.181  15.657  0.00  0.00    +0.000 C 
BRANCH  12  13
ATOM     13  C   UNL     1       6.440   6.151  15.887  0.00  0.00    +0.000 C 
BRANCH  13  14
ATOM     14  C   UNL     1       7.243   5.837  17.110  0.00  0.00    +0.000 A 
ATOM     15  N   UNL     1       7.637   4.647  17.521  0.00  0.00    +0.000 NA
ATOM     16  N   UNL     1       8.079   4.772  18.820  0.00  0.00    +0.000 NA
ATOM     17  C   UNL     1       7.983   6.040  19.148  0.00  0.00    +0.000 A 
ATOM     18  N   UNL     1       7.640   6.755  18.046  0.00  0.00    +0.000 N 
ATOM     19  C   UNL     1       7.781   8.173  17.867  0.00  0.00    +0.000 C 
ENDBRANCH  13  14
ENDBRANCH  12  13
ENDBRANCH   5  12
ENDBRANCH   1   9
BRANCH   2  20
ATOM     20  C   UNL     1       1.485   9.690  19.209  0.00  0.00    +0.000 A 
ATOM     21  C   UNL     1       1.551  10.981  18.674  0.00  0.00    +0.000 A 
ATOM     22  C   UNL     1       1.114  12.031  19.470  0.00  0.00    +0.000 A 
ATOM     23  C   UNL     1       0.628  11.744  20.753  0.00  0.00    +0.000 A 
ATOM     24  C   UNL     1       0.615  10.428  21.197  0.00  0.00    +0.000 A 
ATOM     25  N   UNL     1       1.027   9.390  20.450  0.00  0.00    +0.000 NA
BRANCH  22  26
ATOM     26  C   UNL     1       1.087  13.450  19.024  0.00  0.00    +0.000 C 
ATOM     27  O   UNL     1       0.119  13.854  18.391  0.00  0.00    +0.000 OA
ATOM     28  N   UNL     1       2.161  14.278  19.323  0.00  0.00    +0.000 N 
ATOM     29  H   UNL     1       2.838  14.019  20.029  0.00  0.00    +0.000 HD
BRANCH  28  30
ATOM     30  C   UNL     1       2.125  15.674  18.897  0.00  0.00    +0.000 C 
ATOM     31  C   UNL     1       3.070  15.950  17.738  0.00  0.00    +0.000 C 
ATOM     32  C   UNL     1       4.291  16.554  18.397  0.00  0.00    +0.000 C 
ATOM     33  N   UNL     1       3.763  17.365  19.496  0.00  0.00    +0.000 NA
ATOM     34  C   UNL     1       2.585  16.638  20.005  0.00  0.00    +0.000 C 
ATOM     35  H   UNL     1       3.446  18.260  19.118  0.00  0.00    +0.000 HD
ENDBRANCH  28  30
ENDBRANCH  22  26
ENDBRANCH   2  20
TORSDOF 7
ENDMDL
