MODEL 1
REMARK VINA RESULT:      -7.7      0.000      0.000
REMARK  Name = 
REMARK  4 active torsions:
REMARK  status: ('A' for Active; 'I' for Inactive)
REMARK    1  A    between atoms: C_1  and  N_2
REMARK    2  A    between atoms: C_6  and  C_7
REMARK    3  A    between atoms: C_7  and  N_8
REMARK    4  A    between atoms: C_15  and  C_16
REMARK                            x       y       z     vdW  Elec       q    Type
REMARK                         _______ _______ _______ _____ _____    ______ ____
ROOT
ATOM      1  N   UNL     1       2.250   7.102  20.071  0.00  0.00    +0.000 NA
ATOM      2  C   UNL     1       1.534   5.896  20.492  0.00  0.00    +0.000 C 
ATOM      3  C   UNL     1       2.356   4.669  20.880  0.00  0.00    +0.000 C 
ATOM      4  C   UNL     1       2.830   3.939  19.651  0.00  0.00    +0.000 A 
ATOM      5  N   UNL     1       2.197   2.781  19.368  0.00  0.00    +0.000 NA
ATOM      6  C   UNL     1       2.584   2.160  18.254  0.00  0.00    +0.000 A 
ATOM      7  N   UNL     1       3.550   2.572  17.425  0.00  0.00    +0.000 NA
ATOM      8  C   UNL     1       4.184   3.734  17.727  0.00  0.00    +0.000 A 
ATOM      9  C   UNL     1       3.823   4.491  18.845  0.00  0.00    +0.000 A 
ATOM     10  C   UNL     1       4.373   5.840  19.229  0.00  0.00    +0.000 C 
ATOM     11  C   UNL     1       3.353   6.996  19.115  0.00  0.00    +0.000 C 
ENDROOT
BRANCH   8  12
ATOM     12  C   UNL     1       5.233   4.079  16.741  0.00  0.00    +0.000 A 
ATOM     13  C   UNL     1       4.964   4.118  15.363  0.00  0.00    +0.000 A 
ATOM     14  C   UNL     1       5.953   4.479  14.447  0.00  0.00    +0.000 A 
ATOM     15  C   UNL     1       7.205   4.805  14.930  0.00  0.00    +0.000 A 
ATOM     16  N   UNL     1       7.537   4.732  16.233  0.00  0.00    +0.000 NA
ATOM     17  C   UNL     1       6.560   4.340  17.088  0.00  0.00    +0.000 A 
ENDBRANCH   8  12
BRANCH   1  18
ATOM     18  C   UNL     1       1.321   8.199  19.706  0.00  0.00    +0.000 C 
BRANCH  18  24
ATOM     19  C   UNL     1      -0.859  10.475  19.534  0.00  0.00    +0.000 C 
ATOM     20  N   UNL     1      -0.231   9.977  20.742  0.00  0.00    +0.000 N 
ATOM     21  C   UNL     1      -0.570  10.447  21.989  0.00  0.00    +0.000 A 
ATOM     22  C   UNL     1       0.180   9.765  22.919  0.00  0.00    +0.000 A 
ATOM     23  C   UNL     1       0.997   8.861  22.212  0.00  0.00    +0.000 A 
ATOM     24  C   UNL     1       0.742   8.999  20.851  0.00  0.00    +0.000 A 
ENDBRANCH  18  24
ENDBRANCH   1  18
TORSDOF 3
ENDMDL
MODEL 2
REMARK VINA RESULT:      -7.4      1.665      1.988
REMARK  Name = 
REMARK  4 active torsions:
REMARK  status: ('A' for Active; 'I' for Inactive)
REMARK    1  A    between atoms: C_1  and  N_2
REMARK    2  A    between atoms: C_6  and  C_7
REMARK    3  A    between atoms: C_7  and  N_8
REMARK    4  A    between atoms: C_15  and  C_16
REMARK                            x       y       z     vdW  Elec       q    Type
REMARK                         _______ _______ _______ _____ _____    ______ ____
ROOT
ATOM      1  N   UNL     1       2.576   8.058  18.442  0.00  0.00    +0.000 NA
ATOM      2  C   UNL     1       2.050   6.972  19.271  0.00  0.00    +0.000 C 
ATOM      3  C   UNL     1       3.046   5.999  19.899  0.00  0.00    +0.000 C 
ATOM      4  C   UNL     1       3.503   4.982  18.885  0.00  0.00    +0.000 A 
ATOM      5  N   UNL     1       2.995   3.739  19.022  0.00  0.00    +0.000 NA
ATOM      6  C   UNL     1       3.362   2.853  18.096  0.00  0.00    +0.000 A 
ATOM      7  N   UNL     1       4.198   3.086  17.079  0.00  0.00    +0.000 NA
ATOM      8  C   UNL     1       4.708   4.339  16.959  0.00  0.00    +0.000 A 
ATOM      9  C   UNL     1       4.351   5.358  17.846  0.00  0.00    +0.000 A 
ATOM     10  C   UNL     1       4.761   6.805  17.761  0.00  0.00    +0.000 C 
ATOM     11  C   UNL     1       3.601   7.775  17.437  0.00  0.00    +0.000 C 
ENDROOT
BRANCH   8  12
ATOM     12  C   UNL     1       5.622   4.470  15.802  0.00  0.00    +0.000 A 
ATOM     13  C   UNL     1       5.320   3.896  14.556  0.00  0.00    +0.000 A 
ATOM     14  C   UNL     1       6.174   4.055  13.464  0.00  0.00    +0.000 A 
ATOM     15  C   UNL     1       7.324   4.802  13.637  0.00  0.00    +0.000 A 
ATOM     16  N   UNL     1       7.694   5.329  14.819  0.00  0.00    +0.000 NA
ATOM     17  C   UNL     1       6.857   5.118  15.866  0.00  0.00    +0.000 A 
ENDBRANCH   8  12
BRANCH   1  18
ATOM     18  C   UNL     1       1.494   8.906  17.886  0.00  0.00    +0.000 C 
BRANCH  18  24
ATOM     19  C   UNL     1       2.462  11.906  18.029  0.00  0.00    +0.000 C 
ATOM     20  N   UNL     1       1.397  11.311  18.810  0.00  0.00    +0.000 N 
ATOM     21  C   UNL     1       0.649  12.040  19.703  0.00  0.00    +0.000 A 
ATOM     22  C   UNL     1      -0.285  11.201  20.262  0.00  0.00    +0.000 A 
ATOM     23  C   UNL     1      -0.093   9.926  19.693  0.00  0.00    +0.000 A 
ATOM     24  C   UNL     1       0.963   9.996  18.789  0.00  0.00    +0.000 A 
ENDBRANCH  18  24
ENDBRANCH   1  18
TORSDOF 3
ENDMDL
MODEL 3
REMARK VINA RESULT:      -7.4      1.734      2.178
REMARK  Name = 
REMARK  4 active torsions:
REMARK  status: ('A' for Active; 'I' for Inactive)
REMARK    1  A    between atoms: C_1  and  N_2
REMARK    2  A    between atoms: C_6  and  C_7
REMARK    3  A    between atoms: C_7  and  N_8
REMARK    4  A    between atoms: C_15  and  C_16
REMARK                            x       y       z     vdW  Elec       q    Type
REMARK                         _______ _______ _______ _____ _____    ______ ____
ROOT
ATOM      1  N   UNL     1       2.671   7.974  18.443  0.00  0.00    +0.000 NA
ATOM      2  C   UNL     1       2.149   6.872  19.254  0.00  0.00    +0.000 C 
ATOM      3  C   UNL     1       3.147   5.883  19.853  0.00  0.00    +0.000 C 
ATOM      4  C   UNL     1       3.592   4.887  18.814  0.00  0.00    +0.000 A 
ATOM      5  N   UNL     1       3.081   3.642  18.930  0.00  0.00    +0.000 NA
ATOM      6  C   UNL     1       3.436   2.774  17.983  0.00  0.00    +0.000 A 
ATOM      7  N   UNL     1       4.265   3.026  16.963  0.00  0.00    +0.000 NA
ATOM      8  C   UNL     1       4.777   4.279  16.864  0.00  0.00    +0.000 A 
ATOM      9  C   UNL     1       4.431   5.281  17.776  0.00  0.00    +0.000 A 
ATOM     10  C   UNL     1       4.845   6.728  17.716  0.00  0.00    +0.000 C 
ATOM     11  C   UNL     1       3.686   7.708  17.423  0.00  0.00    +0.000 C 
ENDROOT
BRANCH   8  12
ATOM     12  C   UNL     1       5.681   4.431  15.702  0.00  0.00    +0.000 A 
ATOM     13  C   UNL     1       5.386   3.848  14.459  0.00  0.00    +0.000 A 
ATOM     14  C   UNL     1       6.230   4.027  13.361  0.00  0.00    +0.000 A 
ATOM     15  C   UNL     1       7.362   4.802  13.526  0.00  0.00    +0.000 A 
ATOM     16  N   UNL     1       7.725   5.341  14.706  0.00  0.00    +0.000 NA
ATOM     17  C   UNL     1       6.900   5.110  15.758  0.00  0.00    +0.000 A 
ENDBRANCH   8  12
BRANCH   1  18
ATOM     18  C   UNL     1       1.587   8.836  17.915  0.00  0.00    +0.000 C 
BRANCH  18  24
ATOM     19  C   UNL     1      -0.063   9.805  20.425  0.00  0.00    +0.000 C 
ATOM     20  N   UNL     1       0.792  10.625  19.592  0.00  0.00    +0.000 N 
ATOM     21  C   UNL     1       1.004  11.959  19.851  0.00  0.00    +0.000 A 
ATOM     22  C   UNL     1       1.872  12.444  18.902  0.00  0.00    +0.000 A 
ATOM     23  C   UNL     1       2.191  11.374  18.043  0.00  0.00    +0.000 A 
ATOM     24  C   UNL     1       1.511  10.239  18.473  0.00  0.00    +0.000 A 
ENDBRANCH  18  24
ENDBRANCH   1  18
TORSDOF 3
ENDMDL
MODEL 4
REMARK VINA RESULT:      -7.4      1.518      1.775
REMARK  Name = 
REMARK  4 active torsions:
REMARK  status: ('A' for Active; 'I' for Inactive)
REMARK    1  A    between atoms: C_1  and  N_2
REMARK    2  A    between atoms: C_6  and  C_7
REMARK    3  A    between atoms: C_7  and  N_8
REMARK    4  A    between atoms: C_15  and  C_16
REMARK                            x       y       z     vdW  Elec       q    Type
REMARK                         _______ _______ _______ _____ _____    ______ ____
ROOT
ATOM      1  N   UNL     1       2.416   8.163  18.379  0.00  0.00    +0.000 NA
ATOM      2  C   UNL     1       1.880   7.097  19.228  0.00  0.00    +0.000 C 
ATOM      3  C   UNL     1       2.869   6.155  19.911  0.00  0.00    +0.000 C 
ATOM      4  C   UNL     1       3.362   5.112  18.942  0.00  0.00    +0.000 A 
ATOM      5  N   UNL     1       2.864   3.868  19.105  0.00  0.00    +0.000 NA
ATOM      6  C   UNL     1       3.263   2.958  18.218  0.00  0.00    +0.000 A 
ATOM      7  N   UNL     1       4.123   3.168  17.215  0.00  0.00    +0.000 NA
ATOM      8  C   UNL     1       4.623   4.422  17.068  0.00  0.00    +0.000 A 
ATOM      9  C   UNL     1       4.233   5.464  17.913  0.00  0.00    +0.000 A 
ATOM     10  C   UNL     1       4.630   6.913  17.793  0.00  0.00    +0.000 C 
ATOM     11  C   UNL     1       3.470   7.859  17.409  0.00  0.00    +0.000 C 
ENDROOT
BRANCH   8  12
ATOM     12  C   UNL     1       5.565   4.526  15.932  0.00  0.00    +0.000 A 
ATOM     13  C   UNL     1       5.276   3.956  14.681  0.00  0.00    +0.000 A 
ATOM     14  C   UNL     1       6.157   4.091  13.607  0.00  0.00    +0.000 A 
ATOM     15  C   UNL     1       7.322   4.809  13.803  0.00  0.00    +0.000 A 
ATOM     16  N   UNL     1       7.678   5.331  14.991  0.00  0.00    +0.000 NA
ATOM     17  C   UNL     1       6.814   5.144  16.020  0.00  0.00    +0.000 A 
ENDBRANCH   8  12
BRANCH   1  18
ATOM     18  C   UNL     1       1.340   8.980  17.769  0.00  0.00    +0.000 C 
BRANCH  18  24
ATOM     19  C   UNL     1      -1.615  10.022  17.395  0.00  0.00    +0.000 C 
ATOM     20  N   UNL     1      -0.747  10.293  18.522  0.00  0.00    +0.000 N 
ATOM     21  C   UNL     1      -1.161  11.034  19.603  0.00  0.00    +0.000 A 
ATOM     22  C   UNL     1      -0.124  11.090  20.505  0.00  0.00    +0.000 A 
ATOM     23  C   UNL     1       0.949  10.365  19.950  0.00  0.00    +0.000 A 
ATOM     24  C   UNL     1       0.559   9.871  18.708  0.00  0.00    +0.000 A 
ENDBRANCH  18  24
ENDBRANCH   1  18
TORSDOF 3
ENDMDL
MODEL 5
REMARK VINA RESULT:      -7.1      2.715      8.051
REMARK  Name = 
REMARK  4 active torsions:
REMARK  status: ('A' for Active; 'I' for Inactive)
REMARK    1  A    between atoms: C_1  and  N_2
REMARK    2  A    between atoms: C_6  and  C_7
REMARK    3  A    between atoms: C_7  and  N_8
REMARK    4  A    between atoms: C_15  and  C_16
REMARK                            x       y       z     vdW  Elec       q    Type
REMARK                         _______ _______ _______ _____ _____    ______ ____
ROOT
ATOM      1  N   UNL     1       5.861   4.458  16.065  0.00  0.00    +0.000 NA
ATOM      2  C   UNL     1       5.626   5.883  15.828  0.00  0.00    +0.000 C 
ATOM      3  C   UNL     1       5.640   6.825  17.031  0.00  0.00    +0.000 C 
ATOM      4  C   UNL     1       4.334   6.749  17.777  0.00  0.00    +0.000 A 
ATOM      5  N   UNL     1       3.501   7.800  17.621  0.00  0.00    +0.000 NA
ATOM      6  C   UNL     1       2.325   7.712  18.242  0.00  0.00    +0.000 A 
ATOM      7  N   UNL     1       1.924   6.696  19.015  0.00  0.00    +0.000 NA
ATOM      8  C   UNL     1       2.776   5.650  19.169  0.00  0.00    +0.000 A 
ATOM      9  C   UNL     1       4.014   5.617  18.522  0.00  0.00    +0.000 A 
ATOM     10  C   UNL     1       4.999   4.477  18.527  0.00  0.00    +0.000 C 
ATOM     11  C   UNL     1       5.166   3.778  17.159  0.00  0.00    +0.000 C 
ENDROOT
BRANCH   8  12
ATOM     12  C   UNL     1       2.223   4.595  20.049  0.00  0.00    +0.000 A 
ATOM     13  C   UNL     1       1.210   3.727  19.610  0.00  0.00    +0.000 A 
ATOM     14  C   UNL     1       0.721   2.714  20.437  0.00  0.00    +0.000 A 
ATOM     15  C   UNL     1       1.267   2.581  21.700  0.00  0.00    +0.000 A 
ATOM     16  N   UNL     1       2.200   3.416  22.195  0.00  0.00    +0.000 NA
ATOM     17  C   UNL     1       2.620   4.411  21.375  0.00  0.00    +0.000 A 
ENDBRANCH   8  12
BRANCH   1  18
ATOM     18  C   UNL     1       5.797   3.669  14.811  0.00  0.00    +0.000 C 
BRANCH  18  24
ATOM     19  C   UNL     1       5.629   2.746  11.798  0.00  0.00    +0.000 C 
ATOM     20  N   UNL     1       6.501   3.771  12.333  0.00  0.00    +0.000 N 
ATOM     21  C   UNL     1       7.351   4.499  11.535  0.00  0.00    +0.000 A 
ATOM     22  C   UNL     1       8.019   5.398  12.331  0.00  0.00    +0.000 A 
ATOM     23  C   UNL     1       7.562   5.206  13.650  0.00  0.00    +0.000 A 
ATOM     24  C   UNL     1       6.616   4.185  13.649  0.00  0.00    +0.000 A 
ENDBRANCH  18  24
ENDBRANCH   1  18
TORSDOF 3
ENDMDL
MODEL 6
REMARK VINA RESULT:      -7.0      3.400      4.941
REMARK  Name = 
REMARK  4 active torsions:
REMARK  status: ('A' for Active; 'I' for Inactive)
REMARK    1  A    between atoms: C_1  and  N_2
REMARK    2  A    between atoms: C_6  and  C_7
REMARK    3  A    between atoms: C_7  and  N_8
REMARK    4  A    between atoms: C_15  and  C_16
REMARK                            x       y       z     vdW  Elec       q    Type
REMARK                         _______ _______ _______ _____ _____    ______ ____
ROOT
ATOM      1  N   UNL     1       2.839   5.367  18.138  0.00  0.00    +0.000 NA
ATOM      2  C   UNL     1       3.775   5.342  19.264  0.00  0.00    +0.000 C 
ATOM      3  C   UNL     1       5.020   6.223  19.184  0.00  0.00    +0.000 C 
ATOM      4  C   UNL     1       6.070   5.577  18.318  0.00  0.00    +0.000 A 
ATOM      5  N   UNL     1       7.125   5.041  18.966  0.00  0.00    +0.000 NA
ATOM      6  C   UNL     1       8.030   4.427  18.204  0.00  0.00    +0.000 A 
ATOM      7  N   UNL     1       7.989   4.327  16.871  0.00  0.00    +0.000 NA
ATOM      8  C   UNL     1       6.925   4.879  16.231  0.00  0.00    +0.000 A 
ATOM      9  C   UNL     1       5.894   5.503  16.939  0.00  0.00    +0.000 A 
ATOM     10  C   UNL     1       4.619   6.058  16.360  0.00  0.00    +0.000 C 
ATOM     11  C   UNL     1       3.347   5.280  16.769  0.00  0.00    +0.000 C 
ENDROOT
BRANCH   8  12
ATOM     12  C   UNL     1       6.997   4.708  14.763  0.00  0.00    +0.000 A 
ATOM     13  C   UNL     1       6.222   3.746  14.094  0.00  0.00    +0.000 A 
ATOM     14  C   UNL     1       6.273   3.618  12.705  0.00  0.00    +0.000 A 
ATOM     15  C   UNL     1       7.102   4.470  12.000  0.00  0.00    +0.000 A 
ATOM     16  N   UNL     1       7.908   5.374  12.589  0.00  0.00    +0.000 NA
ATOM     17  C   UNL     1       7.859   5.440  13.943  0.00  0.00    +0.000 A 
ENDBRANCH   8  12
BRANCH   1  18
ATOM     18  C   UNL     1       1.693   4.449  18.349  0.00  0.00    +0.000 C 
BRANCH  18  24
ATOM     19  C   UNL     1       3.254   1.727  18.690  0.00  0.00    +0.000 C 
ATOM     20  N   UNL     1       2.463   2.395  19.703  0.00  0.00    +0.000 N 
ATOM     21  C   UNL     1       2.343   1.901  20.981  0.00  0.00    +0.000 A 
ATOM     22  C   UNL     1       1.554   2.767  21.700  0.00  0.00    +0.000 A 
ATOM     23  C   UNL     1       1.184   3.812  20.831  0.00  0.00    +0.000 A 
ATOM     24  C   UNL     1       1.750   3.575  19.582  0.00  0.00    +0.000 A 
ENDBRANCH  18  24
ENDBRANCH   1  18
TORSDOF 3
ENDMDL
MODEL 7
REMARK VINA RESULT:      -6.7      1.605      2.156
REMARK  Name = 
REMARK  4 active torsions:
REMARK  status: ('A' for Active; 'I' for Inactive)
REMARK    1  A    between atoms: C_1  and  N_2
REMARK    2  A    between atoms: C_6  and  C_7
REMARK    3  A    between atoms: C_7  and  N_8
REMARK    4  A    between atoms: C_15  and  C_16
REMARK                            x       y       z     vdW  Elec       q    Type
REMARK                         _______ _______ _______ _____ _____    ______ ____
ROOT
ATOM      1  N   UNL     1       2.353   8.647  18.397  0.00  0.00    +0.000 NA
ATOM      2  C   UNL     1       1.479   7.692  19.079  0.00  0.00    +0.000 C 
ATOM      3  C   UNL     1       2.130   6.547  19.854  0.00  0.00    +0.000 C 
ATOM      4  C   UNL     1       2.565   5.453  18.914  0.00  0.00    +0.000 A 
ATOM      5  N   UNL     1       1.810   4.334  18.916  0.00  0.00    +0.000 NA
ATOM      6  C   UNL     1       2.167   3.387  18.050  0.00  0.00    +0.000 A 
ATOM      7  N   UNL     1       3.212   3.443  17.216  0.00  0.00    +0.000 NA
ATOM      8  C   UNL     1       3.967   4.572  17.231  0.00  0.00    +0.000 A 
ATOM      9  C   UNL     1       3.652   5.648  18.065  0.00  0.00    +0.000 A 
ATOM     10  C   UNL     1       4.343   6.986  18.101  0.00  0.00    +0.000 C 
ATOM     11  C   UNL     1       3.476   8.161  17.594  0.00  0.00    +0.000 C 
ENDROOT
BRANCH   8  12
ATOM     12  C   UNL     1       5.093   4.512  16.271  0.00  0.00    +0.000 A 
ATOM     13  C   UNL     1       4.877   4.342  14.894  0.00  0.00    +0.000 A 
ATOM     14  C   UNL     1       5.945   4.322  13.995  0.00  0.00    +0.000 A 
ATOM     15  C   UNL     1       7.223   4.483  14.494  0.00  0.00    +0.000 A 
ATOM     16  N   UNL     1       7.496   4.595  15.808  0.00  0.00    +0.000 NA
ATOM     17  C   UNL     1       6.435   4.569  16.653  0.00  0.00    +0.000 A 
ENDBRANCH   8  12
BRANCH   1  18
ATOM     18  C   UNL     1       1.581   9.686  17.673  0.00  0.00    +0.000 C 
BRANCH  18  24
ATOM     19  C   UNL     1       1.059  11.278  20.347  0.00  0.00    +0.000 C 
ATOM     20  N   UNL     1       0.050  10.784  19.432  0.00  0.00    +0.000 N 
ATOM     21  C   UNL     1      -1.292  11.004  19.634  0.00  0.00    +0.000 A 
ATOM     22  C   UNL     1      -1.980  10.433  18.589  0.00  0.00    +0.000 A 
ATOM     23  C   UNL     1      -1.026   9.848  17.734  0.00  0.00    +0.000 A 
ATOM     24  C   UNL     1       0.243  10.064  18.265  0.00  0.00    +0.000 A 
ENDBRANCH  18  24
ENDBRANCH   1  18
TORSDOF 3
ENDMDL
MODEL 8
REMARK VINA RESULT:      -6.7      2.140      8.029
REMARK  Name = 
REMARK  4 active torsions:
REMARK  status: ('A' for Active; 'I' for Inactive)
REMARK    1  A    between atoms: C_1  and  N_2
REMARK    2  A    between atoms: C_6  and  C_7
REMARK    3  A    between atoms: C_7  and  N_8
REMARK    4  A    between atoms: C_15  and  C_16
REMARK                            x       y       z     vdW  Elec       q    Type
REMARK                         _______ _______ _______ _____ _____    ______ ____
ROOT
ATOM      1  N   UNL     1       3.824   6.990  17.794  0.00  0.00    +0.000 NA
ATOM      2  C   UNL     1       3.597   6.355  19.093  0.00  0.00    +0.000 C 
ATOM      3  C   UNL     1       2.160   6.246  19.600  0.00  0.00    +0.000 C 
ATOM      4  C   UNL     1       1.702   7.559  20.179  0.00  0.00    +0.000 A 
ATOM      5  N   UNL     1       1.622   7.617  21.525  0.00  0.00    +0.000 NA
ATOM      6  C   UNL     1       1.264   8.793  22.039  0.00  0.00    +0.000 A 
ATOM      7  N   UNL     1       0.956   9.891  21.340  0.00  0.00    +0.000 NA
ATOM      8  C   UNL     1       1.033   9.815  19.986  0.00  0.00    +0.000 A 
ATOM      9  C   UNL     1       1.446   8.644  19.345  0.00  0.00    +0.000 A 
ATOM     10  C   UNL     1       1.672   8.464  17.866  0.00  0.00    +0.000 C 
ATOM     11  C   UNL     1       3.151   8.249  17.472  0.00  0.00    +0.000 C 
ENDROOT
BRANCH   8  12
ATOM     12  C   UNL     1       0.664  11.087  19.326  0.00  0.00    +0.000 A 
ATOM     13  C   UNL     1      -0.634  11.315  18.838  0.00  0.00    +0.000 A 
ATOM     14  C   UNL     1      -0.979  12.532  18.249  0.00  0.00    +0.000 A 
ATOM     15  C   UNL     1      -0.011  13.515  18.163  0.00  0.00    +0.000 A 
ATOM     16  N   UNL     1       1.263  13.336  18.562  0.00  0.00    +0.000 NA
ATOM     17  C   UNL     1       1.569  12.126  19.093  0.00  0.00    +0.000 A 
ENDBRANCH   8  12
BRANCH   1  18
ATOM     18  C   UNL     1       5.264   7.042  17.446  0.00  0.00    +0.000 C 
BRANCH  18  24
ATOM     19  C   UNL     1       7.501   4.870  17.937  0.00  0.00    +0.000 C 
ATOM     20  N   UNL     1       6.729   5.047  16.724  0.00  0.00    +0.000 N 
ATOM     21  C   UNL     1       6.879   4.222  15.635  0.00  0.00    +0.000 A 
ATOM     22  C   UNL     1       5.996   4.634  14.664  0.00  0.00    +0.000 A 
ATOM     23  C   UNL     1       5.296   5.741  15.181  0.00  0.00    +0.000 A 
ATOM     24  C   UNL     1       5.758   6.001  16.467  0.00  0.00    +0.000 A 
ENDBRANCH  18  24
ENDBRANCH   1  18
TORSDOF 3
ENDMDL
MODEL 9
REMARK VINA RESULT:      -6.7      2.033      6.657
REMARK  Name = 
REMARK  4 active torsions:
REMARK  status: ('A' for Active; 'I' for Inactive)
REMARK    1  A    between atoms: C_1  and  N_2
REMARK    2  A    between atoms: C_6  and  C_7
REMARK    3  A    between atoms: C_7  and  N_8
REMARK    4  A    between atoms: C_15  and  C_16
REMARK                            x       y       z     vdW  Elec       q    Type
REMARK                         _______ _______ _______ _____ _____    ______ ____
ROOT
ATOM      1  N   UNL     1       5.242   4.505  17.095  0.00  0.00    +0.000 NA
ATOM      2  C   UNL     1       4.913   3.333  17.909  0.00  0.00    +0.000 C 
ATOM      3  C   UNL     1       3.438   3.004  18.133  0.00  0.00    +0.000 C 
ATOM      4  C   UNL     1       2.854   3.891  19.201  0.00  0.00    +0.000 A 
ATOM      5  N   UNL     1       2.630   3.309  20.399  0.00  0.00    +0.000 NA
ATOM      6  C   UNL     1       2.159   4.106  21.357  0.00  0.00    +0.000 A 
ATOM      7  N   UNL     1       1.870   5.405  21.222  0.00  0.00    +0.000 NA
ATOM      8  C   UNL     1       2.093   5.975  20.010  0.00  0.00    +0.000 A 
ATOM      9  C   UNL     1       2.632   5.242  18.949  0.00  0.00    +0.000 A 
ATOM     10  C   UNL     1       3.021   5.779  17.596  0.00  0.00    +0.000 C 
ATOM     11  C   UNL     1       4.543   5.770  17.324  0.00  0.00    +0.000 C 
ENDROOT
BRANCH   8  12
ATOM     12  C   UNL     1       1.730   7.410  19.984  0.00  0.00    +0.000 A 
ATOM     13  C   UNL     1       1.892   8.190  18.827  0.00  0.00    +0.000 A 
ATOM     14  C   UNL     1       1.514   9.533  18.805  0.00  0.00    +0.000 A 
ATOM     15  C   UNL     1       0.966  10.077  19.951  0.00  0.00    +0.000 A 
ATOM     16  N   UNL     1       0.837   9.395  21.105  0.00  0.00    +0.000 NA
ATOM     17  C   UNL     1       1.253   8.104  21.098  0.00  0.00    +0.000 A 
ENDBRANCH   8  12
BRANCH   1  18
ATOM     18  C   UNL     1       6.707   4.709  16.984  0.00  0.00    +0.000 C 
BRANCH  18  24
ATOM     19  C   UNL     1       7.974   5.392  19.792  0.00  0.00    +0.000 C 
ATOM     20  N   UNL     1       7.806   6.308  18.682  0.00  0.00    +0.000 N 
ATOM     21  C   UNL     1       8.237   7.611  18.737  0.00  0.00    +0.000 A 
ATOM     22  C   UNL     1       7.955   8.205  17.529  0.00  0.00    +0.000 A 
ATOM     23  C   UNL     1       7.332   7.232  16.723  0.00  0.00    +0.000 A 
ATOM     24  C   UNL     1       7.236   6.048  17.447  0.00  0.00    +0.000 A 
ENDBRANCH  18  24
ENDBRANCH   1  18
TORSDOF 3
ENDMDL
