MODEL 1
REMARK VINA RESULT:      -8.5      0.000      0.000
REMARK  Name = 
REMARK  8 active torsions:
REMARK  status: ('A' for Active; 'I' for Inactive)
REMARK    1  A    between atoms: C_2  and  C_17
REMARK    2  A    between atoms: N_3  and  C_4
REMARK    3  A    between atoms: C_4  and  C_5
REMARK    4  A    between atoms: C_5  and  C_6
REMARK    5  A    between atoms: N_9  and  C_10
REMARK    6  A    between atoms: C_19  and  C_20
REMARK    7  A    between atoms: C_20  and  O_21
REMARK    8  A    between atoms: O_21  and  C_22
REMARK                            x       y       z     vdW  Elec       q    Type
REMARK                         _______ _______ _______ _____ _____    ______ ____
ROOT
ATOM      1  O   UNL     1       6.006   6.323  15.470  0.00  0.00    +0.000 OA
ATOM      2  C   UNL     1       6.364   5.986  16.598  0.00  0.00    +0.000 C 
ATOM      3  N   UNL     1       5.978   4.793  17.173  0.00  0.00    +0.000 N 
ATOM      4  H   UNL     1       6.094   4.682  18.167  0.00  0.00    +0.000 HD
ENDROOT
BRANCH   2   5
ATOM      5  C   UNL     1       7.223   6.811  17.464  0.00  0.00    +0.000 A 
ATOM      6  C   UNL     1       7.482   8.207  17.379  0.00  0.00    +0.000 A 
ATOM      7  C   UNL     1       8.336   8.468  18.423  0.00  0.00    +0.000 A 
ATOM      8  O   UNL     1       8.589   7.311  19.084  0.00  0.00    +0.000 OA
ATOM      9  N   UNL     1       7.893   6.270  18.493  0.00  0.00    +0.000 NA
BRANCH   7  10
ATOM     10  C   UNL     1       8.983   9.685  18.962  0.00  0.00    +0.000 C 
BRANCH  10  11
ATOM     11  O   UNL     1       9.429  10.424  17.827  0.00  0.00    +0.000 OA
BRANCH  11  12
ATOM     12  C   UNL     1       9.861  11.703  18.041  0.00  0.00    +0.000 A 
ATOM     13  C   UNL     1       8.959  12.711  17.695  0.00  0.00    +0.000 A 
ATOM     14  F   UNL     1       7.772  12.391  17.157  0.00  0.00    +0.000 F 
ATOM     15  C   UNL     1       9.264  14.061  17.870  0.00  0.00    +0.000 A 
ATOM     16  C   UNL     1      10.490  14.426  18.422  0.00  0.00    +0.000 A 
ATOM     17  C   UNL     1      11.397  13.434  18.792  0.00  0.00    +0.000 A 
ATOM     18  C   UNL     1      11.082  12.086  18.601  0.00  0.00    +0.000 A 
ATOM     19  F   UNL     1      11.988  11.177  18.985  0.00  0.00    +0.000 F 
ENDBRANCH  11  12
ENDBRANCH  10  11
ENDBRANCH   7  10
ENDBRANCH   2   5
BRANCH   3  20
ATOM     20  C   UNL     1       5.165   3.821  16.452  0.00  0.00    +0.000 C 
BRANCH  20  21
ATOM     21  C   UNL     1       3.869   3.458  17.193  0.00  0.00    +0.000 C 
BRANCH  21  22
ATOM     22  C   UNL     1       3.419   4.500  18.165  0.00  0.00    +0.000 A 
ATOM     23  C   UNL     1       3.529   4.508  19.569  0.00  0.00    +0.000 A 
ATOM     24  N   UNL     1       3.042   5.621  20.124  0.00  0.00    +0.000 NA
ATOM     25  N   UNL     1       2.597   6.362  19.078  0.00  0.00    +0.000 N 
ATOM     26  C   UNL     1       2.766   5.681  17.893  0.00  0.00    +0.000 A 
BRANCH  25  27
ATOM     27  C   UNL     1       2.045   7.662  19.247  0.00  0.00    +0.000 A 
ATOM     28  C   UNL     1       1.996   8.544  18.161  0.00  0.00    +0.000 A 
ATOM     29  C   UNL     1       1.447   9.820  18.319  0.00  0.00    +0.000 A 
ATOM     30  C   UNL     1       0.944  10.219  19.559  0.00  0.00    +0.000 A 
ATOM     31  C   UNL     1       0.985   9.345  20.642  0.00  0.00    +0.000 A 
ATOM     32  C   UNL     1       1.532   8.070  20.489  0.00  0.00    +0.000 A 
ENDBRANCH  25  27
ENDBRANCH  21  22
ENDBRANCH  20  21
ENDBRANCH   3  20
TORSDOF 8
ENDMDL
MODEL 2
REMARK VINA RESULT:      -8.1      4.689      8.010
REMARK  Name = 
REMARK  8 active torsions:
REMARK  status: ('A' for Active; 'I' for Inactive)
REMARK    1  A    between atoms: C_2  and  C_17
REMARK    2  A    between atoms: N_3  and  C_4
REMARK    3  A    between atoms: C_4  and  C_5
REMARK    4  A    between atoms: C_5  and  C_6
REMARK    5  A    between atoms: N_9  and  C_10
REMARK    6  A    between atoms: C_19  and  C_20
REMARK    7  A    between atoms: C_20  and  O_21
REMARK    8  A    between atoms: O_21  and  C_22
REMARK                            x       y       z     vdW  Elec       q    Type
REMARK                         _______ _______ _______ _____ _____    ______ ____
ROOT
ATOM      1  O   UNL     1       2.449   4.476  21.704  0.00  0.00    +0.000 OA
ATOM      2  C   UNL     1       1.832   4.967  20.760  0.00  0.00    +0.000 C 
ATOM      3  N   UNL     1       1.202   4.196  19.804  0.00  0.00    +0.000 N 
ATOM      4  H   UNL     1       0.929   4.636  18.940  0.00  0.00    +0.000 HD
ENDROOT
BRANCH   2   5
ATOM      5  C   UNL     1       1.706   6.416  20.530  0.00  0.00    +0.000 A 
ATOM      6  C   UNL     1       0.981   7.371  21.294  0.00  0.00    +0.000 A 
ATOM      7  C   UNL     1       1.200   8.569  20.656  0.00  0.00    +0.000 A 
ATOM      8  O   UNL     1       1.990   8.352  19.575  0.00  0.00    +0.000 OA
ATOM      9  N   UNL     1       2.313   7.009  19.491  0.00  0.00    +0.000 NA
BRANCH   7  10
ATOM     10  C   UNL     1       0.799   9.972  20.904  0.00  0.00    +0.000 C 
BRANCH  10  11
ATOM     11  O   UNL     1       0.731  10.589  19.620  0.00  0.00    +0.000 OA
BRANCH  11  12
ATOM     12  C   UNL     1      -0.512  10.830  19.105  0.00  0.00    +0.000 A 
ATOM     13  C   UNL     1      -0.838  10.106  17.955  0.00  0.00    +0.000 A 
ATOM     14  F   UNL     1       0.059   9.269  17.414  0.00  0.00    +0.000 F 
ATOM     15  C   UNL     1      -2.077  10.244  17.330  0.00  0.00    +0.000 A 
ATOM     16  C   UNL     1      -3.029  11.108  17.865  0.00  0.00    +0.000 A 
ATOM     17  C   UNL     1      -2.730  11.826  19.022  0.00  0.00    +0.000 A 
ATOM     18  C   UNL     1      -1.480  11.685  19.632  0.00  0.00    +0.000 A 
ATOM     19  F   UNL     1      -1.253  12.392  20.748  0.00  0.00    +0.000 F 
ENDBRANCH  11  12
ENDBRANCH  10  11
ENDBRANCH   7  10
ENDBRANCH   2   5
BRANCH   3  20
ATOM     20  C   UNL     1       1.176   2.742  19.886  0.00  0.00    +0.000 C 
BRANCH  20  21
ATOM     21  C   UNL     1       2.173   2.070  18.929  0.00  0.00    +0.000 C 
BRANCH  21  22
ATOM     22  C   UNL     1       3.115   3.027  18.273  0.00  0.00    +0.000 A 
ATOM     23  C   UNL     1       3.093   3.530  16.957  0.00  0.00    +0.000 A 
ATOM     24  N   UNL     1       4.081   4.395  16.714  0.00  0.00    +0.000 NA
ATOM     25  N   UNL     1       4.773   4.467  17.879  0.00  0.00    +0.000 N 
ATOM     26  C   UNL     1       4.240   3.609  18.815  0.00  0.00    +0.000 A 
BRANCH  25  27
ATOM     27  C   UNL     1       5.888   5.333  18.050  0.00  0.00    +0.000 A 
ATOM     28  C   UNL     1       6.100   6.381  17.146  0.00  0.00    +0.000 A 
ATOM     29  C   UNL     1       7.190   7.240  17.312  0.00  0.00    +0.000 A 
ATOM     30  C   UNL     1       8.071   7.058  18.380  0.00  0.00    +0.000 A 
ATOM     31  C   UNL     1       7.864   6.021  19.285  0.00  0.00    +0.000 A 
ATOM     32  C   UNL     1       6.776   5.160  19.123  0.00  0.00    +0.000 A 
ENDBRANCH  25  27
ENDBRANCH  21  22
ENDBRANCH  20  21
ENDBRANCH   3  20
TORSDOF 8
ENDMDL
MODEL 3
REMARK VINA RESULT:      -8.1      3.803     10.002
REMARK  Name = 
REMARK  8 active torsions:
REMARK  status: ('A' for Active; 'I' for Inactive)
REMARK    1  A    between atoms: C_2  and  C_17
REMARK    2  A    between atoms: N_3  and  C_4
REMARK    3  A    between atoms: C_4  and  C_5
REMARK    4  A    between atoms: C_5  and  C_6
REMARK    5  A    between atoms: N_9  and  C_10
REMARK    6  A    between atoms: C_19  and  C_20
REMARK    7  A    between atoms: C_20  and  O_21
REMARK    8  A    between atoms: O_21  and  C_22
REMARK                            x       y       z     vdW  Elec       q    Type
REMARK                         _______ _______ _______ _____ _____    ______ ____
ROOT
ATOM      1  O   UNL     1       8.444   6.900  18.948  0.00  0.00    +0.000 OA
ATOM      2  C   UNL     1       7.669   7.312  18.086  0.00  0.00    +0.000 C 
ATOM      3  N   UNL     1       7.737   8.593  17.579  0.00  0.00    +0.000 N 
ATOM      4  H   UNL     1       6.944   8.947  17.068  0.00  0.00    +0.000 HD
ENDROOT
BRANCH   2   5
ATOM      5  C   UNL     1       6.581   6.504  17.512  0.00  0.00    +0.000 A 
ATOM      6  C   UNL     1       6.058   5.266  17.979  0.00  0.00    +0.000 A 
ATOM      7  C   UNL     1       5.058   4.951  17.091  0.00  0.00    +0.000 A 
ATOM      8  O   UNL     1       4.989   5.921  16.145  0.00  0.00    +0.000 OA
ATOM      9  N   UNL     1       5.936   6.897  16.403  0.00  0.00    +0.000 NA
BRANCH   7  10
ATOM     10  C   UNL     1       4.077   3.849  16.972  0.00  0.00    +0.000 C 
BRANCH  10  11
ATOM     11  O   UNL     1       2.827   4.394  17.389  0.00  0.00    +0.000 OA
BRANCH  11  12
ATOM     12  C   UNL     1       2.432   4.146  18.673  0.00  0.00    +0.000 A 
ATOM     13  C   UNL     1       1.810   2.913  18.885  0.00  0.00    +0.000 A 
ATOM     14  F   UNL     1       1.607   2.080  17.853  0.00  0.00    +0.000 F 
ATOM     15  C   UNL     1       1.365   2.524  20.148  0.00  0.00    +0.000 A 
ATOM     16  C   UNL     1       1.557   3.369  21.239  0.00  0.00    +0.000 A 
ATOM     17  C   UNL     1       2.193   4.595  21.052  0.00  0.00    +0.000 A 
ATOM     18  C   UNL     1       2.623   4.977  19.779  0.00  0.00    +0.000 A 
ATOM     19  F   UNL     1       3.237   6.162  19.662  0.00  0.00    +0.000 F 
ENDBRANCH  11  12
ENDBRANCH  10  11
ENDBRANCH   7  10
ENDBRANCH   2   5
BRANCH   3  20
ATOM     20  C   UNL     1       8.777   9.528  17.990  0.00  0.00    +0.000 C 
BRANCH  20  21
ATOM     21  C   UNL     1       8.352  10.997  17.847  0.00  0.00    +0.000 C 
BRANCH  21  22
ATOM     22  C   UNL     1       9.490  11.963  17.907  0.00  0.00    +0.000 A 
ATOM     23  C   UNL     1      10.866  11.723  17.723  0.00  0.00    +0.000 A 
ATOM     24  N   UNL     1      11.605  12.831  17.820  0.00  0.00    +0.000 NA
ATOM     25  N   UNL     1      10.713  13.821  18.076  0.00  0.00    +0.000 N 
ATOM     26  C   UNL     1       9.439  13.310  18.186  0.00  0.00    +0.000 A 
BRANCH  25  27
ATOM     27  C   UNL     1      11.103  15.183  18.200  0.00  0.00    +0.000 A 
ATOM     28  C   UNL     1      10.814  16.086  17.169  0.00  0.00    +0.000 A 
ATOM     29  C   UNL     1      11.188  17.427  17.289  0.00  0.00    +0.000 A 
ATOM     30  C   UNL     1      11.850  17.873  18.435  0.00  0.00    +0.000 A 
ATOM     31  C   UNL     1      12.136  16.981  19.465  0.00  0.00    +0.000 A 
ATOM     32  C   UNL     1      11.765  15.640  19.351  0.00  0.00    +0.000 A 
ENDBRANCH  25  27
ENDBRANCH  21  22
ENDBRANCH  20  21
ENDBRANCH   3  20
TORSDOF 8
ENDMDL
MODEL 4
REMARK VINA RESULT:      -8.0      4.181      9.728
REMARK  Name = 
REMARK  8 active torsions:
REMARK  status: ('A' for Active; 'I' for Inactive)
REMARK    1  A    between atoms: C_2  and  C_17
REMARK    2  A    between atoms: N_3  and  C_4
REMARK    3  A    between atoms: C_4  and  C_5
REMARK    4  A    between atoms: C_5  and  C_6
REMARK    5  A    between atoms: N_9  and  C_10
REMARK    6  A    between atoms: C_19  and  C_20
REMARK    7  A    between atoms: C_20  and  O_21
REMARK    8  A    between atoms: O_21  and  C_22
REMARK                            x       y       z     vdW  Elec       q    Type
REMARK                         _______ _______ _______ _____ _____    ______ ____
ROOT
ATOM      1  O   UNL     1       7.940   5.122  17.631  0.00  0.00    +0.000 OA
ATOM      2  C   UNL     1       6.909   5.786  17.728  0.00  0.00    +0.000 C 
ATOM      3  N   UNL     1       6.923   7.144  17.973  0.00  0.00    +0.000 N 
ATOM      4  H   UNL     1       6.070   7.582  18.280  0.00  0.00    +0.000 HD
ENDROOT
BRANCH   2   5
ATOM      5  C   UNL     1       5.556   5.218  17.613  0.00  0.00    +0.000 A 
ATOM      6  C   UNL     1       5.156   4.013  16.971  0.00  0.00    +0.000 A 
ATOM      7  C   UNL     1       3.796   3.951  17.162  0.00  0.00    +0.000 A 
ATOM      8  O   UNL     1       3.399   5.046  17.857  0.00  0.00    +0.000 OA
ATOM      9  N   UNL     1       4.494   5.842  18.146  0.00  0.00    +0.000 NA
BRANCH   7  10
ATOM     10  C   UNL     1       2.737   2.978  16.810  0.00  0.00    +0.000 C 
BRANCH  10  11
ATOM     11  O   UNL     1       2.801   1.958  17.805  0.00  0.00    +0.000 OA
BRANCH  11  12
ATOM     12  C   UNL     1       2.540   2.323  19.096  0.00  0.00    +0.000 A 
ATOM     13  C   UNL     1       1.195   2.544  19.400  0.00  0.00    +0.000 A 
ATOM     14  F   UNL     1       0.264   2.425  18.442  0.00  0.00    +0.000 F 
ATOM     15  C   UNL     1       0.784   2.910  20.682  0.00  0.00    +0.000 A 
ATOM     16  C   UNL     1       1.727   3.045  21.697  0.00  0.00    +0.000 A 
ATOM     17  C   UNL     1       3.073   2.811  21.419  0.00  0.00    +0.000 A 
ATOM     18  C   UNL     1       3.471   2.454  20.128  0.00  0.00    +0.000 A 
ATOM     19  F   UNL     1       4.776   2.232  19.921  0.00  0.00    +0.000 F 
ENDBRANCH  11  12
ENDBRANCH  10  11
ENDBRANCH   7  10
ENDBRANCH   2   5
BRANCH   3  20
ATOM     20  C   UNL     1       8.169   7.894  18.071  0.00  0.00    +0.000 C 
BRANCH  20  21
ATOM     21  C   UNL     1       8.052   9.322  17.518  0.00  0.00    +0.000 C 
BRANCH  21  22
ATOM     22  C   UNL     1       8.804  10.340  18.313  0.00  0.00    +0.000 A 
ATOM     23  C   UNL     1       9.342  10.229  19.610  0.00  0.00    +0.000 A 
ATOM     24  N   UNL     1       9.982  11.334  20.004  0.00  0.00    +0.000 NA
ATOM     25  N   UNL     1       9.866  12.192  18.960  0.00  0.00    +0.000 N 
ATOM     26  C   UNL     1       9.113  11.633  17.952  0.00  0.00    +0.000 A 
BRANCH  25  27
ATOM     27  C   UNL     1      10.466  13.482  18.965  0.00  0.00    +0.000 A 
ATOM     28  C   UNL     1      11.383  13.818  19.967  0.00  0.00    +0.000 A 
ATOM     29  C   UNL     1      11.982  15.082  19.973  0.00  0.00    +0.000 A 
ATOM     30  C   UNL     1      11.670  16.011  18.979  0.00  0.00    +0.000 A 
ATOM     31  C   UNL     1      10.762  15.681  17.977  0.00  0.00    +0.000 A 
ATOM     32  C   UNL     1      10.161  14.421  17.967  0.00  0.00    +0.000 A 
ENDBRANCH  25  27
ENDBRANCH  21  22
ENDBRANCH  20  21
ENDBRANCH   3  20
TORSDOF 8
ENDMDL
MODEL 5
REMARK VINA RESULT:      -8.0      4.270      9.954
REMARK  Name = 
REMARK  8 active torsions:
REMARK  status: ('A' for Active; 'I' for Inactive)
REMARK    1  A    between atoms: C_2  and  C_17
REMARK    2  A    between atoms: N_3  and  C_4
REMARK    3  A    between atoms: C_4  and  C_5
REMARK    4  A    between atoms: C_5  and  C_6
REMARK    5  A    between atoms: N_9  and  C_10
REMARK    6  A    between atoms: C_19  and  C_20
REMARK    7  A    between atoms: C_20  and  O_21
REMARK    8  A    between atoms: O_21  and  C_22
REMARK                            x       y       z     vdW  Elec       q    Type
REMARK                         _______ _______ _______ _____ _____    ______ ____
ROOT
ATOM      1  O   UNL     1       7.960   5.871  18.943  0.00  0.00    +0.000 OA
ATOM      2  C   UNL     1       7.264   6.289  18.020  0.00  0.00    +0.000 C 
ATOM      3  N   UNL     1       7.409   7.557  17.496  0.00  0.00    +0.000 N 
ATOM      4  H   UNL     1       6.667   7.924  16.922  0.00  0.00    +0.000 HD
ENDROOT
BRANCH   2   5
ATOM      5  C   UNL     1       6.195   5.503  17.383  0.00  0.00    +0.000 A 
ATOM      6  C   UNL     1       5.382   4.486  17.958  0.00  0.00    +0.000 A 
ATOM      7  C   UNL     1       4.547   4.089  16.942  0.00  0.00    +0.000 A 
ATOM      8  O   UNL     1       4.842   4.803  15.827  0.00  0.00    +0.000 OA
ATOM      9  N   UNL     1       5.868   5.692  16.095  0.00  0.00    +0.000 NA
BRANCH   7  10
ATOM     10  C   UNL     1       3.437   3.116  16.823  0.00  0.00    +0.000 C 
BRANCH  10  11
ATOM     11  O   UNL     1       3.523   2.287  17.980  0.00  0.00    +0.000 OA
BRANCH  11  12
ATOM     12  C   UNL     1       2.773   2.645  19.066  0.00  0.00    +0.000 A 
ATOM     13  C   UNL     1       3.361   2.405  20.310  0.00  0.00    +0.000 A 
ATOM     14  F   UNL     1       4.570   1.827  20.379  0.00  0.00    +0.000 F 
ATOM     15  C   UNL     1       2.714   2.732  21.501  0.00  0.00    +0.000 A 
ATOM     16  C   UNL     1       1.457   3.330  21.463  0.00  0.00    +0.000 A 
ATOM     17  C   UNL     1       0.861   3.595  20.231  0.00  0.00    +0.000 A 
ATOM     18  C   UNL     1       1.516   3.252  19.046  0.00  0.00    +0.000 A 
ATOM     19  F   UNL     1       0.900   3.540  17.891  0.00  0.00    +0.000 F 
ENDBRANCH  11  12
ENDBRANCH  10  11
ENDBRANCH   7  10
ENDBRANCH   2   5
BRANCH   3  20
ATOM     20  C   UNL     1       8.446   8.467  17.964  0.00  0.00    +0.000 C 
BRANCH  20  21
ATOM     21  C   UNL     1       7.960   9.921  18.075  0.00  0.00    +0.000 C 
BRANCH  21  22
ATOM     22  C   UNL     1       9.018  10.878  18.519  0.00  0.00    +0.000 A 
ATOM     23  C   UNL     1       9.963  10.735  19.554  0.00  0.00    +0.000 A 
ATOM     24  N   UNL     1      10.784  11.784  19.657  0.00  0.00    +0.000 NA
ATOM     25  N   UNL     1      10.380  12.637  18.682  0.00  0.00    +0.000 N 
ATOM     26  C   UNL     1       9.283  12.134  18.020  0.00  0.00    +0.000 A 
BRANCH  25  27
ATOM     27  C   UNL     1      11.044  13.868  18.426  0.00  0.00    +0.000 A 
ATOM     28  C   UNL     1      11.127  14.355  17.116  0.00  0.00    +0.000 A 
ATOM     29  C   UNL     1      11.772  15.568  16.859  0.00  0.00    +0.000 A 
ATOM     30  C   UNL     1      12.333  16.301  17.907  0.00  0.00    +0.000 A 
ATOM     31  C   UNL     1      12.251  15.825  19.212  0.00  0.00    +0.000 A 
ATOM     32  C   UNL     1      11.608  14.614  19.474  0.00  0.00    +0.000 A 
ENDBRANCH  25  27
ENDBRANCH  21  22
ENDBRANCH  20  21
ENDBRANCH   3  20
TORSDOF 8
ENDMDL
MODEL 6
REMARK VINA RESULT:      -7.9      1.176      1.261
REMARK  Name = 
REMARK  8 active torsions:
REMARK  status: ('A' for Active; 'I' for Inactive)
REMARK    1  A    between atoms: C_2  and  C_17
REMARK    2  A    between atoms: N_3  and  C_4
REMARK    3  A    between atoms: C_4  and  C_5
REMARK    4  A    between atoms: C_5  and  C_6
REMARK    5  A    between atoms: N_9  and  C_10
REMARK    6  A    between atoms: C_19  and  C_20
REMARK    7  A    between atoms: C_20  and  O_21
REMARK    8  A    between atoms: O_21  and  C_22
REMARK                            x       y       z     vdW  Elec       q    Type
REMARK                         _______ _______ _______ _____ _____    ______ ____
ROOT
ATOM      1  O   UNL     1       6.367   4.282  16.677  0.00  0.00    +0.000 OA
ATOM      2  C   UNL     1       6.411   4.992  17.681  0.00  0.00    +0.000 C 
ATOM      3  N   UNL     1       5.854   4.611  18.884  0.00  0.00    +0.000 N 
ATOM      4  H   UNL     1       5.707   5.317  19.587  0.00  0.00    +0.000 HD
ENDROOT
BRANCH   2   5
ATOM      5  C   UNL     1       7.040   6.323  17.713  0.00  0.00    +0.000 A 
ATOM      6  C   UNL     1       7.885   6.876  18.715  0.00  0.00    +0.000 A 
ATOM      7  C   UNL     1       8.198   8.132  18.254  0.00  0.00    +0.000 A 
ATOM      8  O   UNL     1       7.575   8.332  17.065  0.00  0.00    +0.000 OA
ATOM      9  N   UNL     1       6.852   7.204  16.719  0.00  0.00    +0.000 NA
BRANCH   7  10
ATOM     10  C   UNL     1       9.046   9.242  18.743  0.00  0.00    +0.000 C 
BRANCH  10  11
ATOM     11  O   UNL     1       8.940  10.273  17.764  0.00  0.00    +0.000 OA
BRANCH  11  12
ATOM     12  C   UNL     1       9.337  11.529  18.129  0.00  0.00    +0.000 A 
ATOM     13  C   UNL     1       8.551  12.576  17.643  0.00  0.00    +0.000 A 
ATOM     14  F   UNL     1       7.505  12.313  16.844  0.00  0.00    +0.000 F 
ATOM     15  C   UNL     1       8.834  13.908  17.947  0.00  0.00    +0.000 A 
ATOM     16  C   UNL     1       9.914  14.214  18.770  0.00  0.00    +0.000 A 
ATOM     17  C   UNL     1      10.701  13.182  19.281  0.00  0.00    +0.000 A 
ATOM     18  C   UNL     1      10.412  11.854  18.960  0.00  0.00    +0.000 A 
ATOM     19  F   UNL     1      11.196  10.904  19.488  0.00  0.00    +0.000 F 
ENDBRANCH  11  12
ENDBRANCH  10  11
ENDBRANCH   7  10
ENDBRANCH   2   5
BRANCH   3  20
ATOM     20  C   UNL     1       5.228   3.307  19.061  0.00  0.00    +0.000 C 
BRANCH  20  21
ATOM     21  C   UNL     1       3.721   3.322  18.765  0.00  0.00    +0.000 C 
BRANCH  21  22
ATOM     22  C   UNL     1       3.014   4.526  19.299  0.00  0.00    +0.000 A 
ATOM     23  C   UNL     1       2.385   4.702  20.547  0.00  0.00    +0.000 A 
ATOM     24  N   UNL     1       1.874   5.926  20.704  0.00  0.00    +0.000 NA
ATOM     25  N   UNL     1       2.162   6.572  19.546  0.00  0.00    +0.000 N 
ATOM     26  C   UNL     1       2.801   5.729  18.665  0.00  0.00    +0.000 A 
BRANCH  25  27
ATOM     27  C   UNL     1       1.825   7.938  19.333  0.00  0.00    +0.000 A 
ATOM     28  C   UNL     1       2.149   8.553  18.118  0.00  0.00    +0.000 A 
ATOM     29  C   UNL     1       1.814   9.893  17.900  0.00  0.00    +0.000 A 
ATOM     30  C   UNL     1       1.154  10.622  18.891  0.00  0.00    +0.000 A 
ATOM     31  C   UNL     1       0.826  10.015  20.099  0.00  0.00    +0.000 A 
ATOM     32  C   UNL     1       1.158   8.678  20.322  0.00  0.00    +0.000 A 
ENDBRANCH  25  27
ENDBRANCH  21  22
ENDBRANCH  20  21
ENDBRANCH   3  20
TORSDOF 8
ENDMDL
MODEL 7
REMARK VINA RESULT:      -7.8      4.209      9.803
REMARK  Name = 
REMARK  8 active torsions:
REMARK  status: ('A' for Active; 'I' for Inactive)
REMARK    1  A    between atoms: C_2  and  C_17
REMARK    2  A    between atoms: N_3  and  C_4
REMARK    3  A    between atoms: C_4  and  C_5
REMARK    4  A    between atoms: C_5  and  C_6
REMARK    5  A    between atoms: N_9  and  C_10
REMARK    6  A    between atoms: C_19  and  C_20
REMARK    7  A    between atoms: C_20  and  O_21
REMARK    8  A    between atoms: O_21  and  C_22
REMARK                            x       y       z     vdW  Elec       q    Type
REMARK                         _______ _______ _______ _____ _____    ______ ____
ROOT
ATOM      1  O   UNL     1       8.024   6.352  15.684  0.00  0.00    +0.000 OA
ATOM      2  C   UNL     1       7.050   6.371  16.435  0.00  0.00    +0.000 C 
ATOM      3  N   UNL     1       6.845   7.376  17.358  0.00  0.00    +0.000 N 
ATOM      4  H   UNL     1       6.179   7.216  18.097  0.00  0.00    +0.000 HD
ENDROOT
BRANCH   2   5
ATOM      5  C   UNL     1       6.009   5.331  16.450  0.00  0.00    +0.000 A 
ATOM      6  C   UNL     1       4.708   5.391  17.023  0.00  0.00    +0.000 A 
ATOM      7  C   UNL     1       4.149   4.165  16.750  0.00  0.00    +0.000 A 
ATOM      8  O   UNL     1       5.051   3.412  16.073  0.00  0.00    +0.000 OA
ATOM      9  N   UNL     1       6.215   4.135  15.877  0.00  0.00    +0.000 NA
BRANCH   7  10
ATOM     10  C   UNL     1       2.831   3.540  17.004  0.00  0.00    +0.000 C 
BRANCH  10  11
ATOM     11  O   UNL     1       3.080   2.463  17.906  0.00  0.00    +0.000 OA
BRANCH  11  12
ATOM     12  C   UNL     1       2.547   2.560  19.161  0.00  0.00    +0.000 A 
ATOM     13  C   UNL     1       3.469   2.545  20.210  0.00  0.00    +0.000 A 
ATOM     14  F   UNL     1       4.778   2.407  19.949  0.00  0.00    +0.000 F 
ATOM     15  C   UNL     1       3.066   2.647  21.541  0.00  0.00    +0.000 A 
ATOM     16  C   UNL     1       1.714   2.788  21.845  0.00  0.00    +0.000 A 
ATOM     17  C   UNL     1       0.780   2.824  20.811  0.00  0.00    +0.000 A 
ATOM     18  C   UNL     1       1.197   2.709  19.483  0.00  0.00    +0.000 A 
ATOM     19  F   UNL     1       0.255   2.761  18.531  0.00  0.00    +0.000 F 
ENDBRANCH  11  12
ENDBRANCH  10  11
ENDBRANCH   7  10
ENDBRANCH   2   5
BRANCH   3  20
ATOM     20  C   UNL     1       7.743   8.519  17.461  0.00  0.00    +0.000 C 
BRANCH  20  21
ATOM     21  C   UNL     1       8.540   8.536  18.775  0.00  0.00    +0.000 C 
BRANCH  21  22
ATOM     22  C   UNL     1       9.097   9.877  19.124  0.00  0.00    +0.000 A 
ATOM     23  C   UNL     1       9.192  10.495  20.387  0.00  0.00    +0.000 A 
ATOM     24  N   UNL     1       9.777  11.695  20.336  0.00  0.00    +0.000 NA
ATOM     25  N   UNL     1      10.071  11.882  19.024  0.00  0.00    +0.000 N 
ATOM     26  C   UNL     1       9.621  10.822  18.270  0.00  0.00    +0.000 A 
BRANCH  25  27
ATOM     27  C   UNL     1      10.756  13.037  18.555  0.00  0.00    +0.000 A 
ATOM     28  C   UNL     1      11.467  13.838  19.457  0.00  0.00    +0.000 A 
ATOM     29  C   UNL     1      12.148  14.970  19.001  0.00  0.00    +0.000 A 
ATOM     30  C   UNL     1      12.125  15.305  17.645  0.00  0.00    +0.000 A 
ATOM     31  C   UNL     1      11.424  14.510  16.743  0.00  0.00    +0.000 A 
ATOM     32  C   UNL     1      10.742  13.379  17.194  0.00  0.00    +0.000 A 
ENDBRANCH  25  27
ENDBRANCH  21  22
ENDBRANCH  20  21
ENDBRANCH   3  20
TORSDOF 8
ENDMDL
MODEL 8
REMARK VINA RESULT:      -7.8      3.995      9.988
REMARK  Name = 
REMARK  8 active torsions:
REMARK  status: ('A' for Active; 'I' for Inactive)
REMARK    1  A    between atoms: C_2  and  C_17
REMARK    2  A    between atoms: N_3  and  C_4
REMARK    3  A    between atoms: C_4  and  C_5
REMARK    4  A    between atoms: C_5  and  C_6
REMARK    5  A    between atoms: N_9  and  C_10
REMARK    6  A    between atoms: C_19  and  C_20
REMARK    7  A    between atoms: C_20  and  O_21
REMARK    8  A    between atoms: O_21  and  C_22
REMARK                            x       y       z     vdW  Elec       q    Type
REMARK                         _______ _______ _______ _____ _____    ______ ____
ROOT
ATOM      1  O   UNL     1       8.619   6.949  19.275  0.00  0.00    +0.000 OA
ATOM      2  C   UNL     1       7.966   7.311  18.297  0.00  0.00    +0.000 C 
ATOM      3  N   UNL     1       8.007   8.603  17.815  0.00  0.00    +0.000 N 
ATOM      4  H   UNL     1       7.283   8.899  17.181  0.00  0.00    +0.000 HD
ENDROOT
BRANCH   2   5
ATOM      5  C   UNL     1       7.063   6.426  17.544  0.00  0.00    +0.000 A 
ATOM      6  C   UNL     1       6.044   5.570  18.046  0.00  0.00    +0.000 A 
ATOM      7  C   UNL     1       5.502   4.979  16.929  0.00  0.00    +0.000 A 
ATOM      8  O   UNL     1       6.156   5.433  15.831  0.00  0.00    +0.000 OA
ATOM      9  N   UNL     1       7.131   6.341  16.206  0.00  0.00    +0.000 NA
BRANCH   7  10
ATOM     10  C   UNL     1       4.398   4.023  16.686  0.00  0.00    +0.000 C 
BRANCH  10  11
ATOM     11  O   UNL     1       4.270   3.264  17.887  0.00  0.00    +0.000 OA
BRANCH  11  12
ATOM     12  C   UNL     1       3.105   3.393  18.589  0.00  0.00    +0.000 A 
ATOM     13  C   UNL     1       2.086   2.505  18.235  0.00  0.00    +0.000 A 
ATOM     14  F   UNL     1       2.279   1.627  17.239  0.00  0.00    +0.000 F 
ATOM     15  C   UNL     1       0.847   2.517  18.877  0.00  0.00    +0.000 A 
ATOM     16  C   UNL     1       0.614   3.420  19.911  0.00  0.00    +0.000 A 
ATOM     17  C   UNL     1       1.624   4.302  20.292  0.00  0.00    +0.000 A 
ATOM     18  C   UNL     1       2.856   4.285  19.634  0.00  0.00    +0.000 A 
ATOM     19  F   UNL     1       3.793   5.149  20.050  0.00  0.00    +0.000 F 
ENDBRANCH  11  12
ENDBRANCH  10  11
ENDBRANCH   7  10
ENDBRANCH   2   5
BRANCH   3  20
ATOM     20  C   UNL     1       8.879   9.613  18.400  0.00  0.00    +0.000 C 
BRANCH  20  21
ATOM     21  C   UNL     1       8.597  11.027  17.869  0.00  0.00    +0.000 C 
BRANCH  21  22
ATOM     22  C   UNL     1       9.607  12.043  18.294  0.00  0.00    +0.000 A 
ATOM     23  C   UNL     1      10.860  12.340  17.722  0.00  0.00    +0.000 A 
ATOM     24  N   UNL     1      11.494  13.336  18.347  0.00  0.00    +0.000 NA
ATOM     25  N   UNL     1      10.656  13.705  19.349  0.00  0.00    +0.000 N 
ATOM     26  C   UNL     1       9.538  12.903  19.368  0.00  0.00    +0.000 A 
BRANCH  25  27
ATOM     27  C   UNL     1      10.950  14.786  20.226  0.00  0.00    +0.000 A 
ATOM     28  C   UNL     1      10.299  14.874  21.462  0.00  0.00    +0.000 A 
ATOM     29  C   UNL     1      10.589  15.930  22.332  0.00  0.00    +0.000 A 
ATOM     30  C   UNL     1      11.528  16.898  21.972  0.00  0.00    +0.000 A 
ATOM     31  C   UNL     1      12.182  16.813  20.746  0.00  0.00    +0.000 A 
ATOM     32  C   UNL     1      11.896  15.761  19.874  0.00  0.00    +0.000 A 
ENDBRANCH  25  27
ENDBRANCH  21  22
ENDBRANCH  20  21
ENDBRANCH   3  20
TORSDOF 8
ENDMDL
MODEL 9
REMARK VINA RESULT:      -7.8      3.709      9.581
REMARK  Name = 
REMARK  8 active torsions:
REMARK  status: ('A' for Active; 'I' for Inactive)
REMARK    1  A    between atoms: C_2  and  C_17
REMARK    2  A    between atoms: N_3  and  C_4
REMARK    3  A    between atoms: C_4  and  C_5
REMARK    4  A    between atoms: C_5  and  C_6
REMARK    5  A    between atoms: N_9  and  C_10
REMARK    6  A    between atoms: C_19  and  C_20
REMARK    7  A    between atoms: C_20  and  O_21
REMARK    8  A    between atoms: O_21  and  C_22
REMARK                            x       y       z     vdW  Elec       q    Type
REMARK                         _______ _______ _______ _____ _____    ______ ____
ROOT
ATOM      1  O   UNL     1       8.703   7.104  19.115  0.00  0.00    +0.000 OA
ATOM      2  C   UNL     1       7.785   7.113  18.297  0.00  0.00    +0.000 C 
ATOM      3  N   UNL     1       7.536   8.192  17.472  0.00  0.00    +0.000 N 
ATOM      4  H   UNL     1       6.644   8.241  17.007  0.00  0.00    +0.000 HD
ENDROOT
BRANCH   2   5
ATOM      5  C   UNL     1       6.844   5.997  18.111  0.00  0.00    +0.000 A 
ATOM      6  C   UNL     1       5.735   5.913  17.224  0.00  0.00    +0.000 A 
ATOM      7  C   UNL     1       5.204   4.665  17.444  0.00  0.00    +0.000 A 
ATOM      8  O   UNL     1       5.930   4.042  18.405  0.00  0.00    +0.000 OA
ATOM      9  N   UNL     1       6.960   4.866  18.825  0.00  0.00    +0.000 NA
BRANCH   7  10
ATOM     10  C   UNL     1       4.083   3.891  16.864  0.00  0.00    +0.000 C 
BRANCH  10  11
ATOM     11  O   UNL     1       2.893   4.523  17.331  0.00  0.00    +0.000 OA
BRANCH  11  12
ATOM     12  C   UNL     1       2.373   4.084  18.516  0.00  0.00    +0.000 A 
ATOM     13  C   UNL     1       2.340   5.028  19.546  0.00  0.00    +0.000 A 
ATOM     14  F   UNL     1       2.832   6.259  19.342  0.00  0.00    +0.000 F 
ATOM     15  C   UNL     1       1.826   4.720  20.806  0.00  0.00    +0.000 A 
ATOM     16  C   UNL     1       1.312   3.449  21.051  0.00  0.00    +0.000 A 
ATOM     17  C   UNL     1       1.319   2.499  20.031  0.00  0.00    +0.000 A 
ATOM     18  C   UNL     1       1.846   2.818  18.777  0.00  0.00    +0.000 A 
ATOM     19  F   UNL     1       1.816   1.868  17.832  0.00  0.00    +0.000 F 
ENDBRANCH  11  12
ENDBRANCH  10  11
ENDBRANCH   7  10
ENDBRANCH   2   5
BRANCH   3  20
ATOM     20  C   UNL     1       8.389   9.373  17.476  0.00  0.00    +0.000 C 
BRANCH  20  21
ATOM     21  C   UNL     1       8.776   9.827  18.892  0.00  0.00    +0.000 C 
BRANCH  21  22
ATOM     22  C   UNL     1       9.531  11.115  18.927  0.00  0.00    +0.000 A 
ATOM     23  C   UNL     1      10.796  11.386  19.487  0.00  0.00    +0.000 A 
ATOM     24  N   UNL     1      11.183  12.652  19.310  0.00  0.00    +0.000 NA
ATOM     25  N   UNL     1      10.164  13.233  18.628  0.00  0.00    +0.000 N 
ATOM     26  C   UNL     1       9.136  12.339  18.435  0.00  0.00    +0.000 A 
BRANCH  25  27
ATOM     27  C   UNL     1      10.214  14.588  18.196  0.00  0.00    +0.000 A 
ATOM     28  C   UNL     1      11.070  14.954  17.151  0.00  0.00    +0.000 A 
ATOM     29  C   UNL     1      11.117  16.282  16.717  0.00  0.00    +0.000 A 
ATOM     30  C   UNL     1      10.310  17.248  17.323  0.00  0.00    +0.000 A 
ATOM     31  C   UNL     1       9.454  16.890  18.359  0.00  0.00    +0.000 A 
ATOM     32  C   UNL     1       9.403  15.565  18.796  0.00  0.00    +0.000 A 
ENDBRANCH  25  27
ENDBRANCH  21  22
ENDBRANCH  20  21
ENDBRANCH   3  20
TORSDOF 8
ENDMDL
