MODEL 1
REMARK VINA RESULT:      -7.4      0.000      0.000
REMARK  Name = 
REMARK  5 active torsions:
REMARK  status: ('A' for Active; 'I' for Inactive)
REMARK    1  A    between atoms: C_1  and  N_2
REMARK    2  A    between atoms: C_4  and  C_5
REMARK    3  A    between atoms: C_7  and  C_8
REMARK    4  A    between atoms: C_10  and  O_11
REMARK    5  A    between atoms: C_12  and  N_13
REMARK                            x       y       z     vdW  Elec       q    Type
REMARK                         _______ _______ _______ _____ _____    ______ ____
ROOT
ATOM      1  C   UNL     1       4.590   3.931  17.963  0.00  0.00    +0.000 A 
ATOM      2  C   UNL     1       4.614   3.876  16.561  0.00  0.00    +0.000 A 
ATOM      3  C   UNL     1       5.642   4.502  15.840  0.00  0.00    +0.000 A 
ATOM      4  C   UNL     1       6.671   5.184  16.504  0.00  0.00    +0.000 A 
ATOM      5  C   UNL     1       6.642   5.221  17.897  0.00  0.00    +0.000 A 
ATOM      6  C   UNL     1       5.617   4.609  18.631  0.00  0.00    +0.000 A 
ENDROOT
BRANCH   1  10
ATOM      7  C   UNL     1       1.447   2.659  21.584  0.00  0.00    +0.000 C 
ATOM      8  N   UNL     1       2.129   2.753  20.316  0.00  0.00    +0.000 N 
ATOM      9  C   UNL     1       3.169   3.579  20.003  0.00  0.00    +0.000 A 
ATOM     10  C   UNL     1       3.519   3.288  18.700  0.00  0.00    +0.000 A 
ATOM     11  C   UNL     1       2.599   2.282  18.320  0.00  0.00    +0.000 A 
ATOM     12  N   UNL     1       1.753   1.958  19.300  0.00  0.00    +0.000 NA
ENDBRANCH   1  10
BRANCH   5  13
ATOM     13  N   UNL     1       7.679   5.911  18.637  0.00  0.00    +0.000 N 
ATOM     14  O   UNL     1       8.185   5.320  19.601  0.00  0.00    +0.000 OA
ATOM     15  O   UNL     1       7.916   7.079  18.302  0.00  0.00    +0.000 OA
ENDBRANCH   5  13
BRANCH   3  16
ATOM     16  C   UNL     1       5.596   4.432  14.367  0.00  0.00    +0.000 C 
ATOM     17  O   UNL     1       6.442   3.795  13.748  0.00  0.00    +0.000 OA
ENDBRANCH   3  16
BRANCH   4  18
ATOM     18  O   UNL     1       7.668   5.826  15.823  0.00  0.00    +0.000 OA
ATOM     19  H   UNL     1       8.486   5.277  15.849  0.00  0.00    +0.000 HD
ENDBRANCH   4  18
TORSDOF 4
ENDMDL
MODEL 2
REMARK VINA RESULT:      -7.2      1.075      1.137
REMARK  Name = 
REMARK  5 active torsions:
REMARK  status: ('A' for Active; 'I' for Inactive)
REMARK    1  A    between atoms: C_1  and  N_2
REMARK    2  A    between atoms: C_4  and  C_5
REMARK    3  A    between atoms: C_7  and  C_8
REMARK    4  A    between atoms: C_10  and  O_11
REMARK    5  A    between atoms: C_12  and  N_13
REMARK                            x       y       z     vdW  Elec       q    Type
REMARK                         _______ _______ _______ _____ _____    ______ ____
ROOT
ATOM      1  C   UNL     1       4.492   4.647  17.547  0.00  0.00    +0.000 A 
ATOM      2  C   UNL     1       4.688   4.041  16.298  0.00  0.00    +0.000 A 
ATOM      3  C   UNL     1       5.783   4.395  15.496  0.00  0.00    +0.000 A 
ATOM      4  C   UNL     1       6.710   5.351  15.931  0.00  0.00    +0.000 A 
ATOM      5  C   UNL     1       6.511   5.938  17.179  0.00  0.00    +0.000 A 
ATOM      6  C   UNL     1       5.417   5.603  17.987  0.00  0.00    +0.000 A 
ENDROOT
BRANCH   1  10
ATOM      7  C   UNL     1       1.703   3.184  21.379  0.00  0.00    +0.000 C 
ATOM      8  N   UNL     1       2.137   3.644  20.083  0.00  0.00    +0.000 N 
ATOM      9  C   UNL     1       3.417   3.915  19.695  0.00  0.00    +0.000 A 
ATOM     10  C   UNL     1       3.352   4.281  18.365  0.00  0.00    +0.000 A 
ATOM     11  C   UNL     1       1.971   4.217  18.065  0.00  0.00    +0.000 A 
ATOM     12  N   UNL     1       1.232   3.832  19.107  0.00  0.00    +0.000 NA
ENDBRANCH   1  10
BRANCH   5  13
ATOM     13  N   UNL     1       7.437   6.934  17.682  0.00  0.00    +0.000 N 
ATOM     14  O   UNL     1       8.036   6.680  18.736  0.00  0.00    +0.000 OA
ATOM     15  O   UNL     1       7.489   8.005  17.062  0.00  0.00    +0.000 OA
ENDBRANCH   5  13
BRANCH   3  16
ATOM     16  C   UNL     1       5.919   3.741  14.180  0.00  0.00    +0.000 C 
ATOM     17  O   UNL     1       6.498   4.309  13.259  0.00  0.00    +0.000 OA
ENDBRANCH   3  16
BRANCH   4  18
ATOM     18  O   UNL     1       7.770   5.734  15.156  0.00  0.00    +0.000 OA
ATOM     19  H   UNL     1       8.356   4.957  14.998  0.00  0.00    +0.000 HD
ENDBRANCH   4  18
TORSDOF 4
ENDMDL
MODEL 3
REMARK VINA RESULT:      -7.1      0.949      1.234
REMARK  Name = 
REMARK  5 active torsions:
REMARK  status: ('A' for Active; 'I' for Inactive)
REMARK    1  A    between atoms: C_1  and  N_2
REMARK    2  A    between atoms: C_4  and  C_5
REMARK    3  A    between atoms: C_7  and  C_8
REMARK    4  A    between atoms: C_10  and  O_11
REMARK    5  A    between atoms: C_12  and  N_13
REMARK                            x       y       z     vdW  Elec       q    Type
REMARK                         _______ _______ _______ _____ _____    ______ ____
ROOT
ATOM      1  C   UNL     1       4.662   4.150  17.258  0.00  0.00    +0.000 A 
ATOM      2  C   UNL     1       4.917   3.678  15.961  0.00  0.00    +0.000 A 
ATOM      3  C   UNL     1       5.976   4.205  15.205  0.00  0.00    +0.000 A 
ATOM      4  C   UNL     1       6.806   5.202  15.734  0.00  0.00    +0.000 A 
ATOM      5  C   UNL     1       6.550   5.653  17.027  0.00  0.00    +0.000 A 
ATOM      6  C   UNL     1       5.491   5.145  17.791  0.00  0.00    +0.000 A 
ENDROOT
BRANCH   1  10
ATOM      7  C   UNL     1       1.162   3.546  20.720  0.00  0.00    +0.000 C 
ATOM      8  N   UNL     1       2.008   3.368  19.566  0.00  0.00    +0.000 N 
ATOM      9  C   UNL     1       3.001   4.201  19.140  0.00  0.00    +0.000 A 
ATOM     10  C   UNL     1       3.560   3.605  18.028  0.00  0.00    +0.000 A 
ATOM     11  C   UNL     1       2.802   2.422  17.862  0.00  0.00    +0.000 A 
ATOM     12  N   UNL     1       1.858   2.277  18.794  0.00  0.00    +0.000 NA
ENDBRANCH   1  10
BRANCH   5  13
ATOM     13  N   UNL     1       7.375   6.683  17.626  0.00  0.00    +0.000 N 
ATOM     14  O   UNL     1       7.505   7.747  17.005  0.00  0.00    +0.000 OA
ATOM     15  O   UNL     1       7.961   6.384  18.675  0.00  0.00    +0.000 OA
ENDBRANCH   5  13
BRANCH   3  16
ATOM     16  C   UNL     1       6.175   3.688  13.838  0.00  0.00    +0.000 C 
ATOM     17  O   UNL     1       6.728   4.377  12.987  0.00  0.00    +0.000 OA
ENDBRANCH   3  16
BRANCH   4  18
ATOM     18  O   UNL     1       7.826   5.752  15.008  0.00  0.00    +0.000 OA
ATOM     19  H   UNL     1       7.619   6.696  14.816  0.00  0.00    +0.000 HD
ENDBRANCH   4  18
TORSDOF 4
ENDMDL
MODEL 4
REMARK VINA RESULT:      -6.9      4.105      5.338
REMARK  Name = 
REMARK  5 active torsions:
REMARK  status: ('A' for Active; 'I' for Inactive)
REMARK    1  A    between atoms: C_1  and  N_2
REMARK    2  A    between atoms: C_4  and  C_5
REMARK    3  A    between atoms: C_7  and  C_8
REMARK    4  A    between atoms: C_10  and  O_11
REMARK    5  A    between atoms: C_12  and  N_13
REMARK                            x       y       z     vdW  Elec       q    Type
REMARK                         _______ _______ _______ _____ _____    ______ ____
ROOT
ATOM      1  C   UNL     1       3.041   6.202  19.088  0.00  0.00    +0.000 A 
ATOM      2  C   UNL     1       2.461   5.215  19.899  0.00  0.00    +0.000 A 
ATOM      3  C   UNL     1       3.089   3.970  20.067  0.00  0.00    +0.000 A 
ATOM      4  C   UNL     1       4.310   3.694  19.440  0.00  0.00    +0.000 A 
ATOM      5  C   UNL     1       4.882   4.687  18.646  0.00  0.00    +0.000 A 
ATOM      6  C   UNL     1       4.263   5.930  18.460  0.00  0.00    +0.000 A 
ENDROOT
BRANCH   1  10
ATOM      7  C   UNL     1       0.425  10.326  19.958  0.00  0.00    +0.000 C 
ATOM      8  N   UNL     1       1.230   9.308  19.329  0.00  0.00    +0.000 N 
ATOM      9  C   UNL     1       1.703   8.164  19.904  0.00  0.00    +0.000 A 
ATOM     10  C   UNL     1       2.381   7.482  18.913  0.00  0.00    +0.000 A 
ATOM     11  C   UNL     1       2.270   8.327  17.784  0.00  0.00    +0.000 A 
ATOM     12  N   UNL     1       1.572   9.437  18.036  0.00  0.00    +0.000 NA
ENDBRANCH   1  10
BRANCH   5  13
ATOM     13  N   UNL     1       6.144   4.457  17.972  0.00  0.00    +0.000 N 
ATOM     14  O   UNL     1       6.111   4.238  16.754  0.00  0.00    +0.000 OA
ATOM     15  O   UNL     1       7.154   4.409  18.687  0.00  0.00    +0.000 OA
ENDBRANCH   5  13
BRANCH   3  16
ATOM     16  C   UNL     1       2.415   2.964  20.910  0.00  0.00    +0.000 C 
ATOM     17  O   UNL     1       2.988   2.485  21.884  0.00  0.00    +0.000 OA
ENDBRANCH   3  16
BRANCH   4  18
ATOM     18  O   UNL     1       4.927   2.480  19.565  0.00  0.00    +0.000 OA
ATOM     19  H   UNL     1       5.887   2.618  19.742  0.00  0.00    +0.000 HD
ENDBRANCH   4  18
TORSDOF 4
ENDMDL
MODEL 5
REMARK VINA RESULT:      -6.9      4.351      5.433
REMARK  Name = 
REMARK  5 active torsions:
REMARK  status: ('A' for Active; 'I' for Inactive)
REMARK    1  A    between atoms: C_1  and  N_2
REMARK    2  A    between atoms: C_4  and  C_5
REMARK    3  A    between atoms: C_7  and  C_8
REMARK    4  A    between atoms: C_10  and  O_11
REMARK    5  A    between atoms: C_12  and  N_13
REMARK                            x       y       z     vdW  Elec       q    Type
REMARK                         _______ _______ _______ _____ _____    ______ ____
ROOT
ATOM      1  C   UNL     1       3.041   6.156  19.126  0.00  0.00    +0.000 A 
ATOM      2  C   UNL     1       4.280   5.929  18.509  0.00  0.00    +0.000 A 
ATOM      3  C   UNL     1       4.934   4.696  18.653  0.00  0.00    +0.000 A 
ATOM      4  C   UNL     1       4.357   3.664  19.405  0.00  0.00    +0.000 A 
ATOM      5  C   UNL     1       3.121   3.898  20.003  0.00  0.00    +0.000 A 
ATOM      6  C   UNL     1       2.460   5.127  19.876  0.00  0.00    +0.000 A 
ENDROOT
BRANCH   1  10
ATOM      7  C   UNL     1       0.421  10.258  20.084  0.00  0.00    +0.000 C 
ATOM      8  N   UNL     1       1.224   9.254  19.432  0.00  0.00    +0.000 N 
ATOM      9  C   UNL     1       1.704   8.101  19.984  0.00  0.00    +0.000 A 
ATOM     10  C   UNL     1       2.377   7.438  18.977  0.00  0.00    +0.000 A 
ATOM     11  C   UNL     1       2.256   8.302  17.864  0.00  0.00    +0.000 A 
ATOM     12  N   UNL     1       1.558   9.406  18.139  0.00  0.00    +0.000 NA
ENDBRANCH   1  10
BRANCH   5  13
ATOM     13  N   UNL     1       2.476   2.868  20.793  0.00  0.00    +0.000 N 
ATOM     14  O   UNL     1       3.022   2.534  21.853  0.00  0.00    +0.000 OA
ATOM     15  O   UNL     1       1.473   2.336  20.298  0.00  0.00    +0.000 OA
ENDBRANCH   5  13
BRANCH   3  16
ATOM     16  C   UNL     1       6.248   4.528  18.002  0.00  0.00    +0.000 C 
ATOM     17  O   UNL     1       7.264   4.403  18.678  0.00  0.00    +0.000 OA
ENDBRANCH   3  16
BRANCH   4  18
ATOM     18  O   UNL     1       4.987   2.463  19.584  0.00  0.00    +0.000 OA
ATOM     19  H   UNL     1       4.930   2.203  20.533  0.00  0.00    +0.000 HD
ENDBRANCH   4  18
TORSDOF 4
ENDMDL
MODEL 6
REMARK VINA RESULT:      -6.9      1.234      1.715
REMARK  Name = 
REMARK  5 active torsions:
REMARK  status: ('A' for Active; 'I' for Inactive)
REMARK    1  A    between atoms: C_1  and  N_2
REMARK    2  A    between atoms: C_4  and  C_5
REMARK    3  A    between atoms: C_7  and  C_8
REMARK    4  A    between atoms: C_10  and  O_11
REMARK    5  A    between atoms: C_12  and  N_13
REMARK                            x       y       z     vdW  Elec       q    Type
REMARK                         _______ _______ _______ _____ _____    ______ ____
ROOT
ATOM      1  C   UNL     1       4.532   4.758  17.537  0.00  0.00    +0.000 A 
ATOM      2  C   UNL     1       4.767   4.121  16.309  0.00  0.00    +0.000 A 
ATOM      3  C   UNL     1       5.878   4.469  15.526  0.00  0.00    +0.000 A 
ATOM      4  C   UNL     1       6.781   5.449  15.959  0.00  0.00    +0.000 A 
ATOM      5  C   UNL     1       6.543   6.066  17.186  0.00  0.00    +0.000 A 
ATOM      6  C   UNL     1       5.433   5.737  17.975  0.00  0.00    +0.000 A 
ENDROOT
BRANCH   1  10
ATOM      7  C   UNL     1       0.478   2.431  19.199  0.00  0.00    +0.000 C 
ATOM      8  N   UNL     1       1.590   3.340  19.060  0.00  0.00    +0.000 N 
ATOM      9  C   UNL     1       2.551   3.318  18.091  0.00  0.00    +0.000 A 
ATOM     10  C   UNL     1       3.376   4.397  18.336  0.00  0.00    +0.000 A 
ATOM     11  C   UNL     1       2.825   4.987  19.498  0.00  0.00    +0.000 A 
ATOM     12  N   UNL     1       1.741   4.345  19.939  0.00  0.00    +0.000 NA
ENDBRANCH   1  10
BRANCH   5  13
ATOM     13  N   UNL     1       7.442   7.087  17.685  0.00  0.00    +0.000 N 
ATOM     14  O   UNL     1       7.535   8.137  17.034  0.00  0.00    +0.000 OA
ATOM     15  O   UNL     1       8.118   6.792  18.680  0.00  0.00    +0.000 OA
ENDBRANCH   5  13
BRANCH   3  16
ATOM     16  C   UNL     1       6.055   3.783  14.232  0.00  0.00    +0.000 C 
ATOM     17  O   UNL     1       6.641   4.339  13.308  0.00  0.00    +0.000 OA
ENDBRANCH   3  16
BRANCH   4  18
ATOM     18  O   UNL     1       7.855   5.826  15.202  0.00  0.00    +0.000 OA
ATOM     19  H   UNL     1       7.536   6.232  14.362  0.00  0.00    +0.000 HD
ENDBRANCH   4  18
TORSDOF 4
ENDMDL
MODEL 7
REMARK VINA RESULT:      -6.9      3.858      4.560
REMARK  Name = 
REMARK  5 active torsions:
REMARK  status: ('A' for Active; 'I' for Inactive)
REMARK    1  A    between atoms: C_1  and  N_2
REMARK    2  A    between atoms: C_4  and  C_5
REMARK    3  A    between atoms: C_7  and  C_8
REMARK    4  A    between atoms: C_10  and  O_11
REMARK    5  A    between atoms: C_12  and  N_13
REMARK                            x       y       z     vdW  Elec       q    Type
REMARK                         _______ _______ _______ _____ _____    ______ ____
ROOT
ATOM      1  C   UNL     1       3.354   6.277  17.944  0.00  0.00    +0.000 A 
ATOM      2  C   UNL     1       2.902   4.953  18.055  0.00  0.00    +0.000 A 
ATOM      3  C   UNL     1       3.630   3.900  17.479  0.00  0.00    +0.000 A 
ATOM      4  C   UNL     1       4.826   4.147  16.794  0.00  0.00    +0.000 A 
ATOM      5  C   UNL     1       5.271   5.465  16.701  0.00  0.00    +0.000 A 
ATOM      6  C   UNL     1       4.551   6.528  17.261  0.00  0.00    +0.000 A 
ENDROOT
BRANCH   1  10
ATOM      7  C   UNL     1       0.936  10.564  18.562  0.00  0.00    +0.000 C 
ATOM      8  N   UNL     1       1.512   9.260  18.778  0.00  0.00    +0.000 N 
ATOM      9  C   UNL     1       2.194   8.503  17.870  0.00  0.00    +0.000 A 
ATOM     10  C   UNL     1       2.590   7.360  18.535  0.00  0.00    +0.000 A 
ATOM     11  C   UNL     1       2.068   7.529  19.838  0.00  0.00    +0.000 A 
ATOM     12  N   UNL     1       1.411   8.681  19.987  0.00  0.00    +0.000 NA
ENDBRANCH   1  10
BRANCH   5  13
ATOM     13  N   UNL     1       6.501   5.781  16.004  0.00  0.00    +0.000 N 
ATOM     14  O   UNL     1       7.393   6.353  16.645  0.00  0.00    +0.000 OA
ATOM     15  O   UNL     1       6.530   5.534  14.791  0.00  0.00    +0.000 OA
ENDBRANCH   5  13
BRANCH   3  16
ATOM     16  C   UNL     1       3.088   2.534  17.607  0.00  0.00    +0.000 C 
ATOM     17  O   UNL     1       3.734   1.659  18.176  0.00  0.00    +0.000 OA
ENDBRANCH   3  16
BRANCH   4  18
ATOM     18  O   UNL     1       5.539   3.142  16.201  0.00  0.00    +0.000 OA
ATOM     19  H   UNL     1       5.939   3.476  15.363  0.00  0.00    +0.000 HD
ENDBRANCH   4  18
TORSDOF 4
ENDMDL
MODEL 8
REMARK VINA RESULT:      -6.8      3.797      4.433
REMARK  Name = 
REMARK  5 active torsions:
REMARK  status: ('A' for Active; 'I' for Inactive)
REMARK    1  A    between atoms: C_1  and  N_2
REMARK    2  A    between atoms: C_4  and  C_5
REMARK    3  A    between atoms: C_7  and  C_8
REMARK    4  A    between atoms: C_10  and  O_11
REMARK    5  A    between atoms: C_12  and  N_13
REMARK                            x       y       z     vdW  Elec       q    Type
REMARK                         _______ _______ _______ _____ _____    ______ ____
ROOT
ATOM      1  C   UNL     1       3.431   6.373  17.838  0.00  0.00    +0.000 A 
ATOM      2  C   UNL     1       3.033   5.048  18.068  0.00  0.00    +0.000 A 
ATOM      3  C   UNL     1       3.787   3.978  17.562  0.00  0.00    +0.000 A 
ATOM      4  C   UNL     1       4.958   4.211  16.828  0.00  0.00    +0.000 A 
ATOM      5  C   UNL     1       5.349   5.532  16.617  0.00  0.00    +0.000 A 
ATOM      6  C   UNL     1       4.601   6.611  17.107  0.00  0.00    +0.000 A 
ENDROOT
BRANCH   1  10
ATOM      7  C   UNL     1       0.738   9.240  20.861  0.00  0.00    +0.000 C 
ATOM      8  N   UNL     1       1.461   8.731  19.722  0.00  0.00    +0.000 N 
ATOM      9  C   UNL     1       2.152   7.556  19.647  0.00  0.00    +0.000 A 
ATOM     10  C   UNL     1       2.639   7.472  18.358  0.00  0.00    +0.000 A 
ATOM     11  C   UNL     1       2.197   8.671  17.751  0.00  0.00    +0.000 A 
ATOM     12  N   UNL     1       1.483   9.437  18.579  0.00  0.00    +0.000 NA
ENDBRANCH   1  10
BRANCH   5  13
ATOM     13  N   UNL     1       6.550   5.834  15.865  0.00  0.00    +0.000 N 
ATOM     14  O   UNL     1       6.574   5.513  14.669  0.00  0.00    +0.000 OA
ATOM     15  O   UNL     1       7.498   6.311  16.503  0.00  0.00    +0.000 OA
ENDBRANCH   5  13
BRANCH   3  16
ATOM     16  C   UNL     1       3.301   2.608  17.814  0.00  0.00    +0.000 C 
ATOM     17  O   UNL     1       2.223   2.237  17.362  0.00  0.00    +0.000 OA
ENDBRANCH   3  16
BRANCH   4  18
ATOM     18  O   UNL     1       5.695   3.187  16.301  0.00  0.00    +0.000 OA
ATOM     19  H   UNL     1       6.500   3.046  16.852  0.00  0.00    +0.000 HD
ENDBRANCH   4  18
TORSDOF 4
ENDMDL
MODEL 9
REMARK VINA RESULT:      -6.8      3.761      6.291
REMARK  Name = 
REMARK  5 active torsions:
REMARK  status: ('A' for Active; 'I' for Inactive)
REMARK    1  A    between atoms: C_1  and  N_2
REMARK    2  A    between atoms: C_4  and  C_5
REMARK    3  A    between atoms: C_7  and  C_8
REMARK    4  A    between atoms: C_10  and  O_11
REMARK    5  A    between atoms: C_12  and  N_13
REMARK                            x       y       z     vdW  Elec       q    Type
REMARK                         _______ _______ _______ _____ _____    ______ ____
ROOT
ATOM      1  C   UNL     1       4.564   4.761  16.737  0.00  0.00    +0.000 A 
ATOM      2  C   UNL     1       4.074   5.941  17.314  0.00  0.00    +0.000 A 
ATOM      3  C   UNL     1       3.053   5.894  18.277  0.00  0.00    +0.000 A 
ATOM      4  C   UNL     1       2.513   4.669  18.688  0.00  0.00    +0.000 A 
ATOM      5  C   UNL     1       3.017   3.503  18.115  0.00  0.00    +0.000 A 
ATOM      6  C   UNL     1       4.028   3.533  17.146  0.00  0.00    +0.000 A 
ENDROOT
BRANCH   1  10
ATOM      7  C   UNL     1       7.101   4.194  12.511  0.00  0.00    +0.000 C 
ATOM      8  N   UNL     1       6.711   4.568  13.848  0.00  0.00    +0.000 N 
ATOM      9  C   UNL     1       5.514   4.317  14.455  0.00  0.00    +0.000 A 
ATOM     10  C   UNL     1       5.613   4.820  15.736  0.00  0.00    +0.000 A 
ATOM     11  C   UNL     1       6.914   5.376  15.781  0.00  0.00    +0.000 A 
ATOM     12  N   UNL     1       7.580   5.225  14.635  0.00  0.00    +0.000 NA
ENDBRANCH   1  10
BRANCH   5  13
ATOM     13  N   UNL     1       2.496   2.207  18.501  0.00  0.00    +0.000 N 
ATOM     14  O   UNL     1       3.311   1.289  18.671  0.00  0.00    +0.000 OA
ATOM     15  O   UNL     1       1.264   2.094  18.544  0.00  0.00    +0.000 OA
ENDBRANCH   5  13
BRANCH   3  16
ATOM     16  C   UNL     1       2.561   7.172  18.827  0.00  0.00    +0.000 C 
ATOM     17  O   UNL     1       2.207   7.249  19.999  0.00  0.00    +0.000 OA
ENDBRANCH   3  16
BRANCH   4  18
ATOM     18  O   UNL     1       1.499   4.598  19.603  0.00  0.00    +0.000 OA
ATOM     19  H   UNL     1       1.179   3.668  19.665  0.00  0.00    +0.000 HD
ENDBRANCH   4  18
TORSDOF 4
ENDMDL
