MODEL 1
REMARK VINA RESULT:      -5.9      0.000      0.000
REMARK  Name = 
REMARK  22 active torsions:
REMARK  status: ('A' for Active; 'I' for Inactive)
REMARK    1  A    between atoms: C_1  and  C_2
REMARK    2  A    between atoms: C_3  and  C_4
REMARK    3  A    between atoms: C_5  and  C_6
REMARK    4  A    between atoms: C_6  and  C_7
REMARK    5  A    between atoms: C_7  and  C_8
REMARK    6  A    between atoms: C_8  and  C_9
REMARK    7  A    between atoms: C_9  and  C_10
REMARK    8  A    between atoms: C_10  and  C_11
REMARK    9  A    between atoms: C_11  and  C_12
REMARK   10  A    between atoms: C_12  and  C_13
REMARK   11  A    between atoms: C_13  and  C_14
REMARK   12  A    between atoms: C_14  and  C_15
REMARK   13  A    between atoms: C_15  and  C_16
REMARK   14  A    between atoms: C_16  and  C_17
REMARK   15  A    between atoms: C_17  and  C_18
REMARK   16  A    between atoms: C_18  and  C_19
REMARK   17  A    between atoms: C_19  and  O_20
REMARK   18  A    between atoms: O_20  and  C_21
REMARK   19  A    between atoms: C_24  and  C_25
REMARK   20  A    between atoms: C_25  and  C_26
REMARK   21  A    between atoms: C_26  and  O_28
REMARK   22  A    between atoms: O_28  and  C_29
REMARK                            x       y       z     vdW  Elec       q    Type
REMARK                         _______ _______ _______ _____ _____    ______ ____
ROOT
ATOM      1  C   UNL     1       1.058  10.359  18.483  0.00  0.00    +0.000 C 
ENDROOT
BRANCH   1   2
ATOM      2  C   UNL     1       1.525   9.024  19.063  0.00  0.00    +0.000 C 
BRANCH   2   3
ATOM      3  C   UNL     1       2.188   8.148  18.005  0.00  0.00    +0.000 C 
BRANCH   3   4
ATOM      4  C   UNL     1       2.094   6.673  18.356  0.00  0.00    +0.000 C 
BRANCH   4   5
ATOM      5  C   UNL     1       2.667   6.447  19.750  0.00  0.00    +0.000 C 
BRANCH   5   6
ATOM      6  C   UNL     1       1.651   5.749  20.637  0.00  0.00    +0.000 C 
BRANCH   6   7
ATOM      7  C   UNL     1       2.138   4.357  21.013  0.00  0.00    +0.000 C 
BRANCH   7   8
ATOM      8  C   UNL     1       1.222   3.302  20.410  0.00  0.00    +0.000 C 
BRANCH   8   9
ATOM      9  C   UNL     1       2.025   2.283  19.614  0.00  0.00    +0.000 C 
BRANCH   9  10
ATOM     10  C   UNL     1       2.210   2.755  18.176  0.00  0.00    +0.000 C 
BRANCH  10  11
ATOM     11  C   UNL     1       3.661   2.584  17.738  0.00  0.00    +0.000 C 
BRANCH  11  13
ATOM     12  C   UNL     1       5.300   4.241  18.637  0.00  0.00    +0.000 C 
ATOM     13  C   UNL     1       4.372   3.904  17.730  0.00  0.00    +0.000 C 
BRANCH  12  16
ATOM     14  C   UNL     1       7.644   7.117  17.712  0.00  0.00    +0.000 C 
ATOM     15  C   UNL     1       6.932   5.806  17.730  0.00  0.00    +0.000 C 
ATOM     16  C   UNL     1       5.977   5.512  18.623  0.00  0.00    +0.000 C 
ENDBRANCH  12  16
ENDBRANCH  11  13
ENDBRANCH  10  11
ENDBRANCH   9  10
ENDBRANCH   8   9
ENDBRANCH   7   8
ENDBRANCH   6   7
ENDBRANCH   5   6
ENDBRANCH   4   5
ENDBRANCH   3   4
ENDBRANCH   2   3
ENDBRANCH   1   2
BRANCH   1  17
ATOM     17  C   UNL     1      -0.461  10.538  18.576  0.00  0.00    +0.000 C 
BRANCH  17  18
ATOM     18  C   UNL     1      -1.170   9.871  17.397  0.00  0.00    +0.000 C 
BRANCH  18  19
ATOM     19  C   UNL     1      -2.498  10.568  17.020  0.00  0.00    +0.000 C 
ATOM     20  C   UNL     1      -3.620   9.673  17.501  0.00  0.00    +0.000 C 
ATOM     21  C   UNL     1      -4.652  10.170  18.200  0.00  0.00    +0.000 C 
ATOM     22  C   UNL     1      -4.793  11.656  18.445  0.00  0.00    +0.000 C 
ATOM     23  O   UNL     1      -3.876  12.380  17.603  0.00  0.00    +0.000 OA
ATOM     24  O   UNL     1      -2.540  11.801  17.770  0.00  0.00    +0.000 OA
BRANCH  19  25
ATOM     25  O   UNL     1      -2.496  10.726  15.597  0.00  0.00    +0.000 OA
ATOM     26  C   UNL     1      -3.475  10.008  14.862  0.00  0.00    +0.000 C 
ENDBRANCH  19  25
BRANCH  22  27
ATOM     27  C   UNL     1      -4.609  12.084  19.894  0.00  0.00    +0.000 C 
BRANCH  27  28
ATOM     28  C   UNL     1      -5.946  12.182  20.570  0.00  0.00    +0.000 C 
ATOM     29  O   UNL     1      -6.138  11.974  21.761  0.00  0.00    +0.000 OA
BRANCH  28  30
ATOM     30  O   UNL     1      -6.910  12.524  19.674  0.00  0.00    +0.000 OA
ATOM     31  C   UNL     1      -7.861  13.458  20.186  0.00  0.00    +0.000 C 
ENDBRANCH  28  30
ENDBRANCH  27  28
ENDBRANCH  22  27
ENDBRANCH  18  19
ENDBRANCH  17  18
ENDBRANCH   1  17
TORSDOF 19
ENDMDL
MODEL 2
REMARK VINA RESULT:      -5.9      2.045      3.622
REMARK  Name = 
REMARK  22 active torsions:
REMARK  status: ('A' for Active; 'I' for Inactive)
REMARK    1  A    between atoms: C_1  and  C_2
REMARK    2  A    between atoms: C_3  and  C_4
REMARK    3  A    between atoms: C_5  and  C_6
REMARK    4  A    between atoms: C_6  and  C_7
REMARK    5  A    between atoms: C_7  and  C_8
REMARK    6  A    between atoms: C_8  and  C_9
REMARK    7  A    between atoms: C_9  and  C_10
REMARK    8  A    between atoms: C_10  and  C_11
REMARK    9  A    between atoms: C_11  and  C_12
REMARK   10  A    between atoms: C_12  and  C_13
REMARK   11  A    between atoms: C_13  and  C_14
REMARK   12  A    between atoms: C_14  and  C_15
REMARK   13  A    between atoms: C_15  and  C_16
REMARK   14  A    between atoms: C_16  and  C_17
REMARK   15  A    between atoms: C_17  and  C_18
REMARK   16  A    between atoms: C_18  and  C_19
REMARK   17  A    between atoms: C_19  and  O_20
REMARK   18  A    between atoms: O_20  and  C_21
REMARK   19  A    between atoms: C_24  and  C_25
REMARK   20  A    between atoms: C_25  and  C_26
REMARK   21  A    between atoms: C_26  and  O_28
REMARK   22  A    between atoms: O_28  and  C_29
REMARK                            x       y       z     vdW  Elec       q    Type
REMARK                         _______ _______ _______ _____ _____    ______ ____
ROOT
ATOM      1  C   UNL     1       1.336   9.925  17.926  0.00  0.00    +0.000 C 
ENDROOT
BRANCH   1   2
ATOM      2  C   UNL     1       1.841   8.766  18.785  0.00  0.00    +0.000 C 
BRANCH   2   3
ATOM      3  C   UNL     1       2.610   7.742  17.957  0.00  0.00    +0.000 C 
BRANCH   3   4
ATOM      4  C   UNL     1       2.471   6.340  18.526  0.00  0.00    +0.000 C 
BRANCH   4   5
ATOM      5  C   UNL     1       2.190   6.425  20.021  0.00  0.00    +0.000 C 
BRANCH   5   6
ATOM      6  C   UNL     1       2.293   5.053  20.662  0.00  0.00    +0.000 C 
BRANCH   6   7
ATOM      7  C   UNL     1       1.014   4.260  20.435  0.00  0.00    +0.000 C 
BRANCH   7   8
ATOM      8  C   UNL     1       1.347   2.806  20.138  0.00  0.00    +0.000 C 
BRANCH   8   9
ATOM      9  C   UNL     1       0.958   2.445  18.711  0.00  0.00    +0.000 C 
BRANCH   9  10
ATOM     10  C   UNL     1       2.029   2.913  17.732  0.00  0.00    +0.000 C 
BRANCH  10  11
ATOM     11  C   UNL     1       3.321   2.125  17.933  0.00  0.00    +0.000 C 
BRANCH  11  13
ATOM     12  C   UNL     1       5.001   3.888  18.489  0.00  0.00    +0.000 C 
ATOM     13  C   UNL     1       4.516   2.979  17.632  0.00  0.00    +0.000 C 
BRANCH  12  16
ATOM     14  C   UNL     1       7.221   6.835  17.485  0.00  0.00    +0.000 C 
ATOM     15  C   UNL     1       6.039   5.984  17.805  0.00  0.00    +0.000 C 
ATOM     16  C   UNL     1       6.149   4.705  18.189  0.00  0.00    +0.000 C 
ENDBRANCH  12  16
ENDBRANCH  11  13
ENDBRANCH  10  11
ENDBRANCH   9  10
ENDBRANCH   8   9
ENDBRANCH   7   8
ENDBRANCH   6   7
ENDBRANCH   5   6
ENDBRANCH   4   5
ENDBRANCH   3   4
ENDBRANCH   2   3
ENDBRANCH   1   2
BRANCH   1  17
ATOM     17  C   UNL     1       1.949  11.268  18.337  0.00  0.00    +0.000 C 
BRANCH  17  18
ATOM     18  C   UNL     1       1.639  11.595  19.798  0.00  0.00    +0.000 C 
BRANCH  18  19
ATOM     19  C   UNL     1       0.217  12.164  20.000  0.00  0.00    +0.000 C 
ATOM     20  C   UNL     1      -0.125  12.954  18.755  0.00  0.00    +0.000 C 
ATOM     21  C   UNL     1      -1.302  12.788  18.131  0.00  0.00    +0.000 C 
ATOM     22  C   UNL     1      -2.375  11.889  18.701  0.00  0.00    +0.000 C 
ATOM     23  O   UNL     1      -2.046  11.534  20.058  0.00  0.00    +0.000 OA
ATOM     24  O   UNL     1      -0.671  11.029  20.082  0.00  0.00    +0.000 OA
BRANCH  19  25
ATOM     25  O   UNL     1       0.259  12.984  21.173  0.00  0.00    +0.000 OA
ATOM     26  C   UNL     1       1.299  13.946  21.257  0.00  0.00    +0.000 C 
ENDBRANCH  19  25
BRANCH  22  27
ATOM     27  C   UNL     1      -2.649  10.629  17.891  0.00  0.00    +0.000 C 
BRANCH  27  28
ATOM     28  C   UNL     1      -3.491  10.966  16.695  0.00  0.00    +0.000 C 
ATOM     29  O   UNL     1      -4.709  11.089  16.716  0.00  0.00    +0.000 OA
BRANCH  28  30
ATOM     30  O   UNL     1      -2.714  11.107  15.588  0.00  0.00    +0.000 OA
ATOM     31  C   UNL     1      -2.978  10.134  14.576  0.00  0.00    +0.000 C 
ENDBRANCH  28  30
ENDBRANCH  27  28
ENDBRANCH  22  27
ENDBRANCH  18  19
ENDBRANCH  17  18
ENDBRANCH   1  17
TORSDOF 19
ENDMDL
MODEL 3
REMARK VINA RESULT:      -5.9      4.969     10.615
REMARK  Name = 
REMARK  22 active torsions:
REMARK  status: ('A' for Active; 'I' for Inactive)
REMARK    1  A    between atoms: C_1  and  C_2
REMARK    2  A    between atoms: C_3  and  C_4
REMARK    3  A    between atoms: C_5  and  C_6
REMARK    4  A    between atoms: C_6  and  C_7
REMARK    5  A    between atoms: C_7  and  C_8
REMARK    6  A    between atoms: C_8  and  C_9
REMARK    7  A    between atoms: C_9  and  C_10
REMARK    8  A    between atoms: C_10  and  C_11
REMARK    9  A    between atoms: C_11  and  C_12
REMARK   10  A    between atoms: C_12  and  C_13
REMARK   11  A    between atoms: C_13  and  C_14
REMARK   12  A    between atoms: C_14  and  C_15
REMARK   13  A    between atoms: C_15  and  C_16
REMARK   14  A    between atoms: C_16  and  C_17
REMARK   15  A    between atoms: C_17  and  C_18
REMARK   16  A    between atoms: C_18  and  C_19
REMARK   17  A    between atoms: C_19  and  O_20
REMARK   18  A    between atoms: O_20  and  C_21
REMARK   19  A    between atoms: C_24  and  C_25
REMARK   20  A    between atoms: C_25  and  C_26
REMARK   21  A    between atoms: C_26  and  O_28
REMARK   22  A    between atoms: O_28  and  C_29
REMARK                            x       y       z     vdW  Elec       q    Type
REMARK                         _______ _______ _______ _____ _____    ______ ____
ROOT
ATOM      1  C   UNL     1       2.166   9.466  17.722  0.00  0.00    +0.000 C 
ENDROOT
BRANCH   1   2
ATOM      2  C   UNL     1       0.996   9.452  18.705  0.00  0.00    +0.000 C 
BRANCH   2   3
ATOM      3  C   UNL     1      -0.337   9.688  18.001  0.00  0.00    +0.000 C 
BRANCH   3   4
ATOM      4  C   UNL     1      -1.031  10.938  18.513  0.00  0.00    +0.000 C 
BRANCH   4   5
ATOM      5  C   UNL     1       0.008  11.899  19.078  0.00  0.00    +0.000 C 
BRANCH   5   6
ATOM      6  C   UNL     1      -0.181  13.289  18.497  0.00  0.00    +0.000 C 
BRANCH   6   7
ATOM      7  C   UNL     1       0.956  14.206  18.925  0.00  0.00    +0.000 C 
BRANCH   7   8
ATOM      8  C   UNL     1       1.520  13.750  20.262  0.00  0.00    +0.000 C 
BRANCH   8   9
ATOM      9  C   UNL     1       1.402  14.857  21.301  0.00  0.00    +0.000 C 
BRANCH   9  10
ATOM     10  C   UNL     1       0.002  15.461  21.280  0.00  0.00    +0.000 C 
BRANCH  10  11
ATOM     11  C   UNL     1      -0.738  15.142  22.576  0.00  0.00    +0.000 C 
BRANCH  11  13
ATOM     12  C   UNL     1      -1.582  12.798  22.394  0.00  0.00    +0.000 C 
ATOM     13  C   UNL     1      -0.685  13.673  22.870  0.00  0.00    +0.000 C 
BRANCH  12  16
ATOM     14  C   UNL     1      -0.350   9.197  22.765  0.00  0.00    +0.000 C 
ATOM     15  C   UNL     1      -0.419  10.659  22.476  0.00  0.00    +0.000 C 
ATOM     16  C   UNL     1      -1.523  11.388  22.683  0.00  0.00    +0.000 C 
ENDBRANCH  12  16
ENDBRANCH  11  13
ENDBRANCH  10  11
ENDBRANCH   9  10
ENDBRANCH   8   9
ENDBRANCH   7   8
ENDBRANCH   6   7
ENDBRANCH   5   6
ENDBRANCH   4   5
ENDBRANCH   3   4
ENDBRANCH   2   3
ENDBRANCH   1   2
BRANCH   1  17
ATOM     17  C   UNL     1       2.899   8.121  17.665  0.00  0.00    +0.000 C 
BRANCH  17  18
ATOM     18  C   UNL     1       2.179   7.063  18.502  0.00  0.00    +0.000 C 
BRANCH  18  19
ATOM     19  C   UNL     1       3.056   5.823  18.790  0.00  0.00    +0.000 C 
ATOM     20  C   UNL     1       2.624   4.741  17.824  0.00  0.00    +0.000 C 
ATOM     21  C   UNL     1       3.526   4.043  17.118  0.00  0.00    +0.000 C 
ATOM     22  C   UNL     1       5.011   4.231  17.332  0.00  0.00    +0.000 C 
ATOM     23  O   UNL     1       5.239   4.991  18.534  0.00  0.00    +0.000 OA
ATOM     24  O   UNL     1       4.414   6.201  18.478  0.00  0.00    +0.000 OA
BRANCH  19  25
ATOM     25  O   UNL     1       2.828   5.460  20.156  0.00  0.00    +0.000 OA
ATOM     26  C   UNL     1       1.643   5.944  20.769  0.00  0.00    +0.000 C 
ENDBRANCH  19  25
BRANCH  22  27
ATOM     27  C   UNL     1       5.747   4.878  16.166  0.00  0.00    +0.000 C 
BRANCH  27  28
ATOM     28  C   UNL     1       7.168   5.161  16.555  0.00  0.00    +0.000 C 
ATOM     29  O   UNL     1       7.951   4.323  16.984  0.00  0.00    +0.000 OA
BRANCH  28  30
ATOM     30  O   UNL     1       7.460   6.477  16.373  0.00  0.00    +0.000 OA
ATOM     31  C   UNL     1       7.588   7.208  17.593  0.00  0.00    +0.000 C 
ENDBRANCH  28  30
ENDBRANCH  27  28
ENDBRANCH  22  27
ENDBRANCH  18  19
ENDBRANCH  17  18
ENDBRANCH   1  17
TORSDOF 19
ENDMDL
MODEL 4
REMARK VINA RESULT:      -5.8      6.244     10.815
REMARK  Name = 
REMARK  22 active torsions:
REMARK  status: ('A' for Active; 'I' for Inactive)
REMARK    1  A    between atoms: C_1  and  C_2
REMARK    2  A    between atoms: C_3  and  C_4
REMARK    3  A    between atoms: C_5  and  C_6
REMARK    4  A    between atoms: C_6  and  C_7
REMARK    5  A    between atoms: C_7  and  C_8
REMARK    6  A    between atoms: C_8  and  C_9
REMARK    7  A    between atoms: C_9  and  C_10
REMARK    8  A    between atoms: C_10  and  C_11
REMARK    9  A    between atoms: C_11  and  C_12
REMARK   10  A    between atoms: C_12  and  C_13
REMARK   11  A    between atoms: C_13  and  C_14
REMARK   12  A    between atoms: C_14  and  C_15
REMARK   13  A    between atoms: C_15  and  C_16
REMARK   14  A    between atoms: C_16  and  C_17
REMARK   15  A    between atoms: C_17  and  C_18
REMARK   16  A    between atoms: C_18  and  C_19
REMARK   17  A    between atoms: C_19  and  O_20
REMARK   18  A    between atoms: O_20  and  C_21
REMARK   19  A    between atoms: C_24  and  C_25
REMARK   20  A    between atoms: C_25  and  C_26
REMARK   21  A    between atoms: C_26  and  O_28
REMARK   22  A    between atoms: O_28  and  C_29
REMARK                            x       y       z     vdW  Elec       q    Type
REMARK                         _______ _______ _______ _____ _____    ______ ____
ROOT
ATOM      1  C   UNL     1       7.885   9.020  17.964  0.00  0.00    +0.000 C 
ENDROOT
BRANCH   1   2
ATOM      2  C   UNL     1       9.172   9.470  18.655  0.00  0.00    +0.000 C 
BRANCH   2   3
ATOM      3  C   UNL     1       9.205  10.981  18.861  0.00  0.00    +0.000 C 
BRANCH   3   4
ATOM      4  C   UNL     1      10.190  11.380  19.947  0.00  0.00    +0.000 C 
BRANCH   4   5
ATOM      5  C   UNL     1      11.601  11.393  19.371  0.00  0.00    +0.000 C 
BRANCH   5   6
ATOM      6  C   UNL     1      12.033  12.814  19.054  0.00  0.00    +0.000 C 
BRANCH   6   7
ATOM      7  C   UNL     1      12.171  13.008  17.551  0.00  0.00    +0.000 C 
BRANCH   7   8
ATOM      8  C   UNL     1      10.963  13.756  17.008  0.00  0.00    +0.000 C 
BRANCH   8   9
ATOM      9  C   UNL     1      10.453  14.766  18.027  0.00  0.00    +0.000 C 
BRANCH   9  10
ATOM     10  C   UNL     1       8.954  14.589  18.248  0.00  0.00    +0.000 C 
BRANCH  10  11
ATOM     11  C   UNL     1       8.419  15.671  19.182  0.00  0.00    +0.000 C 
BRANCH  11  13
ATOM     12  C   UNL     1       8.088  14.031  21.038  0.00  0.00    +0.000 C 
ATOM     13  C   UNL     1       8.512  15.229  20.612  0.00  0.00    +0.000 C 
BRANCH  12  16
ATOM     14  C   UNL     1       8.324  11.888  24.195  0.00  0.00    +0.000 C 
ATOM     15  C   UNL     1       8.236  12.327  22.772  0.00  0.00    +0.000 C 
ATOM     16  C   UNL     1       8.180  13.617  22.414  0.00  0.00    +0.000 C 
ENDBRANCH  12  16
ENDBRANCH  11  13
ENDBRANCH  10  11
ENDBRANCH   9  10
ENDBRANCH   8   9
ENDBRANCH   7   8
ENDBRANCH   6   7
ENDBRANCH   5   6
ENDBRANCH   4   5
ENDBRANCH   3   4
ENDBRANCH   2   3
ENDBRANCH   1   2
BRANCH   1  17
ATOM     17  C   UNL     1       7.754   7.495  17.907  0.00  0.00    +0.000 C 
BRANCH  17  18
ATOM     18  C   UNL     1       6.697   7.068  16.887  0.00  0.00    +0.000 C 
BRANCH  18  19
ATOM     19  C   UNL     1       6.078   5.688  17.203  0.00  0.00    +0.000 C 
ATOM     20  C   UNL     1       5.970   5.584  18.710  0.00  0.00    +0.000 C 
ATOM     21  C   UNL     1       4.835   5.176  19.297  0.00  0.00    +0.000 C 
ATOM     22  C   UNL     1       3.654   4.700  18.480  0.00  0.00    +0.000 C 
ATOM     23  O   UNL     1       4.056   4.493  17.113  0.00  0.00    +0.000 OA
ATOM     24  O   UNL     1       4.745   5.700  16.647  0.00  0.00    +0.000 OA
BRANCH  19  25
ATOM     25  O   UNL     1       6.954   4.701  16.649  0.00  0.00    +0.000 OA
ATOM     26  C   UNL     1       7.105   4.684  15.238  0.00  0.00    +0.000 C 
ENDBRANCH  19  25
BRANCH  22  27
ATOM     27  C   UNL     1       2.436   5.613  18.528  0.00  0.00    +0.000 C 
BRANCH  27  28
ATOM     28  C   UNL     1       2.173   6.038  19.943  0.00  0.00    +0.000 C 
ATOM     29  O   UNL     1       1.943   5.268  20.867  0.00  0.00    +0.000 OA
BRANCH  28  30
ATOM     30  O   UNL     1       2.218   7.393  20.051  0.00  0.00    +0.000 OA
ATOM     31  C   UNL     1       1.311   7.919  21.021  0.00  0.00    +0.000 C 
ENDBRANCH  28  30
ENDBRANCH  27  28
ENDBRANCH  22  27
ENDBRANCH  18  19
ENDBRANCH  17  18
ENDBRANCH   1  17
TORSDOF 19
ENDMDL
MODEL 5
REMARK VINA RESULT:      -5.8      4.920     11.336
REMARK  Name = 
REMARK  22 active torsions:
REMARK  status: ('A' for Active; 'I' for Inactive)
REMARK    1  A    between atoms: C_1  and  C_2
REMARK    2  A    between atoms: C_3  and  C_4
REMARK    3  A    between atoms: C_5  and  C_6
REMARK    4  A    between atoms: C_6  and  C_7
REMARK    5  A    between atoms: C_7  and  C_8
REMARK    6  A    between atoms: C_8  and  C_9
REMARK    7  A    between atoms: C_9  and  C_10
REMARK    8  A    between atoms: C_10  and  C_11
REMARK    9  A    between atoms: C_11  and  C_12
REMARK   10  A    between atoms: C_12  and  C_13
REMARK   11  A    between atoms: C_13  and  C_14
REMARK   12  A    between atoms: C_14  and  C_15
REMARK   13  A    between atoms: C_15  and  C_16
REMARK   14  A    between atoms: C_16  and  C_17
REMARK   15  A    between atoms: C_17  and  C_18
REMARK   16  A    between atoms: C_18  and  C_19
REMARK   17  A    between atoms: C_19  and  O_20
REMARK   18  A    between atoms: O_20  and  C_21
REMARK   19  A    between atoms: C_24  and  C_25
REMARK   20  A    between atoms: C_25  and  C_26
REMARK   21  A    between atoms: C_26  and  O_28
REMARK   22  A    between atoms: O_28  and  C_29
REMARK                            x       y       z     vdW  Elec       q    Type
REMARK                         _______ _______ _______ _____ _____    ______ ____
ROOT
ATOM      1  C   UNL     1       1.305   7.379  20.984  0.00  0.00    +0.000 C 
ENDROOT
BRANCH   1   2
ATOM      2  C   UNL     1       1.230   8.745  20.303  0.00  0.00    +0.000 C 
BRANCH   2   3
ATOM      3  C   UNL     1       0.237   9.670  20.998  0.00  0.00    +0.000 C 
BRANCH   3   4
ATOM      4  C   UNL     1      -0.201   9.118  22.344  0.00  0.00    +0.000 C 
BRANCH   4   5
ATOM      5  C   UNL     1      -0.867  10.225  23.153  0.00  0.00    +0.000 C 
BRANCH   5   6
ATOM      6  C   UNL     1      -0.717  11.562  22.450  0.00  0.00    +0.000 C 
BRANCH   6   7
ATOM      7  C   UNL     1      -2.060  12.272  22.358  0.00  0.00    +0.000 C 
BRANCH   7   8
ATOM      8  C   UNL     1      -2.262  13.168  23.571  0.00  0.00    +0.000 C 
BRANCH   8   9
ATOM      9  C   UNL     1      -3.701  13.094  24.062  0.00  0.00    +0.000 C 
BRANCH   9  10
ATOM     10  C   UNL     1      -4.642  13.744  23.053  0.00  0.00    +0.000 C 
BRANCH  10  11
ATOM     11  C   UNL     1      -5.917  12.918  22.900  0.00  0.00    +0.000 C 
BRANCH  11  13
ATOM     12  C   UNL     1      -5.217  12.388  20.562  0.00  0.00    +0.000 C 
ATOM     13  C   UNL     1      -6.187  12.624  21.455  0.00  0.00    +0.000 C 
BRANCH  12  16
ATOM     14  C   UNL     1      -4.787  11.501  16.867  0.00  0.00    +0.000 C 
ATOM     15  C   UNL     1      -4.519  11.786  18.307  0.00  0.00    +0.000 C 
ATOM     16  C   UNL     1      -5.487  12.107  19.175  0.00  0.00    +0.000 C 
ENDBRANCH  12  16
ENDBRANCH  11  13
ENDBRANCH  10  11
ENDBRANCH   9  10
ENDBRANCH   8   9
ENDBRANCH   7   8
ENDBRANCH   6   7
ENDBRANCH   5   6
ENDBRANCH   4   5
ENDBRANCH   3   4
ENDBRANCH   2   3
ENDBRANCH   1   2
BRANCH   1  17
ATOM     17  C   UNL     1       2.084   6.353  20.155  0.00  0.00    +0.000 C 
BRANCH  17  18
ATOM     18  C   UNL     1       1.765   4.925  20.599  0.00  0.00    +0.000 C 
BRANCH  18  19
ATOM     19  C   UNL     1       2.315   3.855  19.629  0.00  0.00    +0.000 C 
ATOM     20  C   UNL     1       2.000   4.327  18.225  0.00  0.00    +0.000 C 
ATOM     21  C   UNL     1       2.938   4.320  17.266  0.00  0.00    +0.000 C 
ATOM     22  C   UNL     1       4.315   3.745  17.514  0.00  0.00    +0.000 C 
ATOM     23  O   UNL     1       4.317   2.999  18.746  0.00  0.00    +0.000 OA
ATOM     24  O   UNL     1       3.748   3.844  19.799  0.00  0.00    +0.000 OA
BRANCH  19  25
ATOM     25  O   UNL     1       1.659   2.624  19.951  0.00  0.00    +0.000 OA
ATOM     26  C   UNL     1       0.700   2.136  19.026  0.00  0.00    +0.000 C 
ENDBRANCH  19  25
BRANCH  22  27
ATOM     27  C   UNL     1       5.441   4.769  17.529  0.00  0.00    +0.000 C 
BRANCH  27  28
ATOM     28  C   UNL     1       6.517   4.356  16.568  0.00  0.00    +0.000 C 
ATOM     29  O   UNL     1       6.313   3.828  15.482  0.00  0.00    +0.000 OA
BRANCH  28  30
ATOM     30  O   UNL     1       7.746   4.643  17.075  0.00  0.00    +0.000 OA
ATOM     31  C   UNL     1       7.704   5.255  18.364  0.00  0.00    +0.000 C 
ENDBRANCH  28  30
ENDBRANCH  27  28
ENDBRANCH  22  27
ENDBRANCH  18  19
ENDBRANCH  17  18
ENDBRANCH   1  17
TORSDOF 19
ENDMDL
MODEL 6
REMARK VINA RESULT:      -5.7      3.365      5.065
REMARK  Name = 
REMARK  22 active torsions:
REMARK  status: ('A' for Active; 'I' for Inactive)
REMARK    1  A    between atoms: C_1  and  C_2
REMARK    2  A    between atoms: C_3  and  C_4
REMARK    3  A    between atoms: C_5  and  C_6
REMARK    4  A    between atoms: C_6  and  C_7
REMARK    5  A    between atoms: C_7  and  C_8
REMARK    6  A    between atoms: C_8  and  C_9
REMARK    7  A    between atoms: C_9  and  C_10
REMARK    8  A    between atoms: C_10  and  C_11
REMARK    9  A    between atoms: C_11  and  C_12
REMARK   10  A    between atoms: C_12  and  C_13
REMARK   11  A    between atoms: C_13  and  C_14
REMARK   12  A    between atoms: C_14  and  C_15
REMARK   13  A    between atoms: C_15  and  C_16
REMARK   14  A    between atoms: C_16  and  C_17
REMARK   15  A    between atoms: C_17  and  C_18
REMARK   16  A    between atoms: C_18  and  C_19
REMARK   17  A    between atoms: C_19  and  O_20
REMARK   18  A    between atoms: O_20  and  C_21
REMARK   19  A    between atoms: C_24  and  C_25
REMARK   20  A    between atoms: C_25  and  C_26
REMARK   21  A    between atoms: C_26  and  O_28
REMARK   22  A    between atoms: O_28  and  C_29
REMARK                            x       y       z     vdW  Elec       q    Type
REMARK                         _______ _______ _______ _____ _____    ______ ____
ROOT
ATOM      1  C   UNL     1       2.247   8.801  17.605  0.00  0.00    +0.000 C 
ENDROOT
BRANCH   1   2
ATOM      2  C   UNL     1       2.874   7.916  18.681  0.00  0.00    +0.000 C 
BRANCH   2   3
ATOM      3  C   UNL     1       2.199   6.550  18.755  0.00  0.00    +0.000 C 
BRANCH   3   4
ATOM      4  C   UNL     1       2.568   5.807  20.027  0.00  0.00    +0.000 C 
BRANCH   4   5
ATOM      5  C   UNL     1       1.399   4.929  20.458  0.00  0.00    +0.000 C 
BRANCH   5   6
ATOM      6  C   UNL     1       1.890   3.758  21.290  0.00  0.00    +0.000 C 
BRANCH   6   7
ATOM      7  C   UNL     1       2.732   2.816  20.441  0.00  0.00    +0.000 C 
BRANCH   7   8
ATOM      8  C   UNL     1       1.903   2.268  19.290  0.00  0.00    +0.000 C 
BRANCH   8   9
ATOM      9  C   UNL     1       2.767   2.066  18.053  0.00  0.00    +0.000 C 
BRANCH   9  10
ATOM     10  C   UNL     1       2.818   3.346  17.225  0.00  0.00    +0.000 C 
BRANCH  10  11
ATOM     11  C   UNL     1       4.217   3.560  16.655  0.00  0.00    +0.000 C 
BRANCH  11  13
ATOM     12  C   UNL     1       5.413   5.750  16.526  0.00  0.00    +0.000 C 
ATOM     13  C   UNL     1       4.855   4.776  17.259  0.00  0.00    +0.000 C 
BRANCH  12  16
ATOM     14  C   UNL     1       7.990   8.206  17.920  0.00  0.00    +0.000 C 
ATOM     15  C   UNL     1       7.347   7.010  17.304  0.00  0.00    +0.000 C 
ATOM     16  C   UNL     1       6.025   6.913  17.116  0.00  0.00    +0.000 C 
ENDBRANCH  12  16
ENDBRANCH  11  13
ENDBRANCH  10  11
ENDBRANCH   9  10
ENDBRANCH   8   9
ENDBRANCH   7   8
ENDBRANCH   6   7
ENDBRANCH   5   6
ENDBRANCH   4   5
ENDBRANCH   3   4
ENDBRANCH   2   3
ENDBRANCH   1   2
BRANCH   1  17
ATOM     17  C   UNL     1       0.811   9.209  17.946  0.00  0.00    +0.000 C 
BRANCH  17  18
ATOM     18  C   UNL     1       0.735   9.871  19.322  0.00  0.00    +0.000 C 
BRANCH  18  19
ATOM     19  C   UNL     1       0.389  11.375  19.249  0.00  0.00    +0.000 C 
ATOM     20  C   UNL     1       0.171  11.850  20.670  0.00  0.00    +0.000 C 
ATOM     21  C   UNL     1       0.752  12.971  21.123  0.00  0.00    +0.000 C 
ATOM     22  C   UNL     1       1.560  13.864  20.207  0.00  0.00    +0.000 C 
ATOM     23  O   UNL     1       1.341  13.483  18.835  0.00  0.00    +0.000 OA
ATOM     24  O   UNL     1       1.555  12.039  18.717  0.00  0.00    +0.000 OA
BRANCH  19  25
ATOM     25  O   UNL     1      -0.791  11.493  18.447  0.00  0.00    +0.000 OA
ATOM     26  C   UNL     1      -2.024  11.678  19.126  0.00  0.00    +0.000 C 
ENDBRANCH  19  25
BRANCH  22  27
ATOM     27  C   UNL     1       3.053  13.895  20.501  0.00  0.00    +0.000 C 
BRANCH  27  28
ATOM     28  C   UNL     1       3.352  14.969  21.507  0.00  0.00    +0.000 C 
ATOM     29  O   UNL     1       3.230  14.839  22.718  0.00  0.00    +0.000 OA
BRANCH  28  30
ATOM     30  O   UNL     1       3.767  16.105  20.883  0.00  0.00    +0.000 OA
ATOM     31  C   UNL     1       2.886  17.213  21.070  0.00  0.00    +0.000 C 
ENDBRANCH  28  30
ENDBRANCH  27  28
ENDBRANCH  22  27
ENDBRANCH  18  19
ENDBRANCH  17  18
ENDBRANCH   1  17
TORSDOF 19
ENDMDL
MODEL 7
REMARK VINA RESULT:      -5.7      4.820     11.046
REMARK  Name = 
REMARK  22 active torsions:
REMARK  status: ('A' for Active; 'I' for Inactive)
REMARK    1  A    between atoms: C_1  and  C_2
REMARK    2  A    between atoms: C_3  and  C_4
REMARK    3  A    between atoms: C_5  and  C_6
REMARK    4  A    between atoms: C_6  and  C_7
REMARK    5  A    between atoms: C_7  and  C_8
REMARK    6  A    between atoms: C_8  and  C_9
REMARK    7  A    between atoms: C_9  and  C_10
REMARK    8  A    between atoms: C_10  and  C_11
REMARK    9  A    between atoms: C_11  and  C_12
REMARK   10  A    between atoms: C_12  and  C_13
REMARK   11  A    between atoms: C_13  and  C_14
REMARK   12  A    between atoms: C_14  and  C_15
REMARK   13  A    between atoms: C_15  and  C_16
REMARK   14  A    between atoms: C_16  and  C_17
REMARK   15  A    between atoms: C_17  and  C_18
REMARK   16  A    between atoms: C_18  and  C_19
REMARK   17  A    between atoms: C_19  and  O_20
REMARK   18  A    between atoms: O_20  and  C_21
REMARK   19  A    between atoms: C_24  and  C_25
REMARK   20  A    between atoms: C_25  and  C_26
REMARK   21  A    between atoms: C_26  and  O_28
REMARK   22  A    between atoms: O_28  and  C_29
REMARK                            x       y       z     vdW  Elec       q    Type
REMARK                         _______ _______ _______ _____ _____    ______ ____
ROOT
ATOM      1  C   UNL     1       1.238   7.380  21.074  0.00  0.00    +0.000 C 
ENDROOT
BRANCH   1   2
ATOM      2  C   UNL     1       1.098   8.834  20.625  0.00  0.00    +0.000 C 
BRANCH   2   3
ATOM      3  C   UNL     1       0.854   9.770  21.804  0.00  0.00    +0.000 C 
BRANCH   3   4
ATOM      4  C   UNL     1       0.038  10.985  21.399  0.00  0.00    +0.000 C 
BRANCH   4   5
ATOM      5  C   UNL     1      -0.676  10.700  20.083  0.00  0.00    +0.000 C 
BRANCH   5   6
ATOM      6  C   UNL     1      -1.352  11.955  19.561  0.00  0.00    +0.000 C 
BRANCH   6   7
ATOM      7  C   UNL     1      -1.498  11.893  18.047  0.00  0.00    +0.000 C 
BRANCH   7   8
ATOM      8  C   UNL     1      -1.535  10.445  17.585  0.00  0.00    +0.000 C 
BRANCH   8   9
ATOM      9  C   UNL     1      -2.749  10.193  16.701  0.00  0.00    +0.000 C 
BRANCH   9  10
ATOM     10  C   UNL     1      -3.974   9.885  17.555  0.00  0.00    +0.000 C 
BRANCH  10  11
ATOM     11  C   UNL     1      -4.955  11.054  17.526  0.00  0.00    +0.000 C 
BRANCH  11  13
ATOM     12  C   UNL     1      -5.616  12.918  19.052  0.00  0.00    +0.000 C 
ATOM     13  C   UNL     1      -4.993  11.747  18.855  0.00  0.00    +0.000 C 
BRANCH  12  16
ATOM     14  C   UNL     1      -4.597  14.888  22.166  0.00  0.00    +0.000 C 
ATOM     15  C   UNL     1      -4.578  14.209  20.839  0.00  0.00    +0.000 C 
ATOM     16  C   UNL     1      -5.645  13.577  20.332  0.00  0.00    +0.000 C 
ENDBRANCH  12  16
ENDBRANCH  11  13
ENDBRANCH  10  11
ENDBRANCH   9  10
ENDBRANCH   8   9
ENDBRANCH   7   8
ENDBRANCH   6   7
ENDBRANCH   5   6
ENDBRANCH   4   5
ENDBRANCH   3   4
ENDBRANCH   2   3
ENDBRANCH   1   2
BRANCH   1  17
ATOM     17  C   UNL     1       2.105   6.552  20.120  0.00  0.00    +0.000 C 
BRANCH  17  18
ATOM     18  C   UNL     1       2.129   5.079  20.530  0.00  0.00    +0.000 C 
BRANCH  18  19
ATOM     19  C   UNL     1       2.765   4.166  19.457  0.00  0.00    +0.000 C 
ATOM     20  C   UNL     1       2.538   4.831  18.117  0.00  0.00    +0.000 C 
ATOM     21  C   UNL     1       3.539   4.973  17.235  0.00  0.00    +0.000 C 
ATOM     22  C   UNL     1       4.907   4.382  17.495  0.00  0.00    +0.000 C 
ATOM     23  O   UNL     1       4.841   3.467  18.605  0.00  0.00    +0.000 OA
ATOM     24  O   UNL     1       4.184   4.146  19.725  0.00  0.00    +0.000 OA
BRANCH  19  25
ATOM     25  O   UNL     1       2.115   2.895  19.554  0.00  0.00    +0.000 OA
ATOM     26  C   UNL     1       1.011   2.662  18.692  0.00  0.00    +0.000 C 
ENDBRANCH  19  25
BRANCH  22  27
ATOM     27  C   UNL     1       6.008   5.405  17.735  0.00  0.00    +0.000 C 
BRANCH  27  28
ATOM     28  C   UNL     1       7.349   4.777  17.488  0.00  0.00    +0.000 C 
ATOM     29  O   UNL     1       7.732   4.365  16.401  0.00  0.00    +0.000 OA
BRANCH  28  30
ATOM     30  O   UNL     1       8.072   4.725  18.639  0.00  0.00    +0.000 OA
ATOM     31  C   UNL     1       7.683   5.705  19.602  0.00  0.00    +0.000 C 
ENDBRANCH  28  30
ENDBRANCH  27  28
ENDBRANCH  22  27
ENDBRANCH  18  19
ENDBRANCH  17  18
ENDBRANCH   1  17
TORSDOF 19
ENDMDL
MODEL 8
REMARK VINA RESULT:      -5.6      1.686      2.923
REMARK  Name = 
REMARK  22 active torsions:
REMARK  status: ('A' for Active; 'I' for Inactive)
REMARK    1  A    between atoms: C_1  and  C_2
REMARK    2  A    between atoms: C_3  and  C_4
REMARK    3  A    between atoms: C_5  and  C_6
REMARK    4  A    between atoms: C_6  and  C_7
REMARK    5  A    between atoms: C_7  and  C_8
REMARK    6  A    between atoms: C_8  and  C_9
REMARK    7  A    between atoms: C_9  and  C_10
REMARK    8  A    between atoms: C_10  and  C_11
REMARK    9  A    between atoms: C_11  and  C_12
REMARK   10  A    between atoms: C_12  and  C_13
REMARK   11  A    between atoms: C_13  and  C_14
REMARK   12  A    between atoms: C_14  and  C_15
REMARK   13  A    between atoms: C_15  and  C_16
REMARK   14  A    between atoms: C_16  and  C_17
REMARK   15  A    between atoms: C_17  and  C_18
REMARK   16  A    between atoms: C_18  and  C_19
REMARK   17  A    between atoms: C_19  and  O_20
REMARK   18  A    between atoms: O_20  and  C_21
REMARK   19  A    between atoms: C_24  and  C_25
REMARK   20  A    between atoms: C_25  and  C_26
REMARK   21  A    between atoms: C_26  and  O_28
REMARK   22  A    between atoms: O_28  and  C_29
REMARK                            x       y       z     vdW  Elec       q    Type
REMARK                         _______ _______ _______ _____ _____    ______ ____
ROOT
ATOM      1  C   UNL     1       1.304   9.377  21.977  0.00  0.00    +0.000 C 
ENDROOT
BRANCH   1   2
ATOM      2  C   UNL     1       0.113   8.435  21.798  0.00  0.00    +0.000 C 
BRANCH   2   3
ATOM      3  C   UNL     1       0.450   7.265  20.880  0.00  0.00    +0.000 C 
BRANCH   3   4
ATOM      4  C   UNL     1       1.896   7.310  20.416  0.00  0.00    +0.000 C 
BRANCH   4   5
ATOM      5  C   UNL     1       2.368   5.898  20.092  0.00  0.00    +0.000 C 
BRANCH   5   6
ATOM      6  C   UNL     1       1.321   4.879  20.503  0.00  0.00    +0.000 C 
BRANCH   6   7
ATOM      7  C   UNL     1       1.965   3.728  21.263  0.00  0.00    +0.000 C 
BRANCH   7   8
ATOM      8  C   UNL     1       2.111   2.518  20.352  0.00  0.00    +0.000 C 
BRANCH   8   9
ATOM      9  C   UNL     1       1.146   2.609  19.178  0.00  0.00    +0.000 C 
BRANCH   9  10
ATOM     10  C   UNL     1       1.908   2.858  17.880  0.00  0.00    +0.000 C 
BRANCH  10  11
ATOM     11  C   UNL     1       3.400   2.601  18.077  0.00  0.00    +0.000 C 
BRANCH  11  13
ATOM     12  C   UNL     1       5.283   4.241  18.049  0.00  0.00    +0.000 C 
ATOM     13  C   UNL     1       4.213   3.695  17.454  0.00  0.00    +0.000 C 
BRANCH  12  16
ATOM     14  C   UNL     1       7.566   7.267  17.548  0.00  0.00    +0.000 C 
ATOM     15  C   UNL     1       6.767   6.170  18.166  0.00  0.00    +0.000 C 
ATOM     16  C   UNL     1       6.058   5.293  17.443  0.00  0.00    +0.000 C 
ENDBRANCH  12  16
ENDBRANCH  11  13
ENDBRANCH  10  11
ENDBRANCH   9  10
ENDBRANCH   8   9
ENDBRANCH   7   8
ENDBRANCH   6   7
ENDBRANCH   5   6
ENDBRANCH   4   5
ENDBRANCH   3   4
ENDBRANCH   2   3
ENDBRANCH   1   2
BRANCH   1  17
ATOM     17  C   UNL     1       1.044  10.767  21.388  0.00  0.00    +0.000 C 
BRANCH  17  18
ATOM     18  C   UNL     1      -0.430  10.947  21.022  0.00  0.00    +0.000 C 
BRANCH  18  19
ATOM     19  C   UNL     1      -0.634  11.463  19.580  0.00  0.00    +0.000 C 
ATOM     20  C   UNL     1      -0.267  10.329  18.647  0.00  0.00    +0.000 C 
ATOM     21  C   UNL     1      -1.069   9.982  17.629  0.00  0.00    +0.000 C 
ATOM     22  C   UNL     1      -2.317  10.774  17.305  0.00  0.00    +0.000 C 
ATOM     23  O   UNL     1      -2.305  12.021  18.025  0.00  0.00    +0.000 OA
ATOM     24  O   UNL     1      -2.045  11.736  19.438  0.00  0.00    +0.000 OA
BRANCH  19  25
ATOM     25  O   UNL     1       0.220  12.601  19.420  0.00  0.00    +0.000 OA
ATOM     26  C   UNL     1      -0.262  13.848  19.895  0.00  0.00    +0.000 C 
ENDBRANCH  19  25
BRANCH  22  27
ATOM     27  C   UNL     1      -3.625  10.039  17.568  0.00  0.00    +0.000 C 
BRANCH  27  28
ATOM     28  C   UNL     1      -4.776  10.997  17.473  0.00  0.00    +0.000 C 
ATOM     29  O   UNL     1      -5.000  11.718  16.509  0.00  0.00    +0.000 OA
BRANCH  28  30
ATOM     30  O   UNL     1      -5.525  10.958  18.607  0.00  0.00    +0.000 OA
ATOM     31  C   UNL     1      -6.883  11.352  18.408  0.00  0.00    +0.000 C 
ENDBRANCH  28  30
ENDBRANCH  27  28
ENDBRANCH  22  27
ENDBRANCH  18  19
ENDBRANCH  17  18
ENDBRANCH   1  17
TORSDOF 19
ENDMDL
MODEL 9
REMARK VINA RESULT:      -5.6      6.806     10.295
REMARK  Name = 
REMARK  22 active torsions:
REMARK  status: ('A' for Active; 'I' for Inactive)
REMARK    1  A    between atoms: C_1  and  C_2
REMARK    2  A    between atoms: C_3  and  C_4
REMARK    3  A    between atoms: C_5  and  C_6
REMARK    4  A    between atoms: C_6  and  C_7
REMARK    5  A    between atoms: C_7  and  C_8
REMARK    6  A    between atoms: C_8  and  C_9
REMARK    7  A    between atoms: C_9  and  C_10
REMARK    8  A    between atoms: C_10  and  C_11
REMARK    9  A    between atoms: C_11  and  C_12
REMARK   10  A    between atoms: C_12  and  C_13
REMARK   11  A    between atoms: C_13  and  C_14
REMARK   12  A    between atoms: C_14  and  C_15
REMARK   13  A    between atoms: C_15  and  C_16
REMARK   14  A    between atoms: C_16  and  C_17
REMARK   15  A    between atoms: C_17  and  C_18
REMARK   16  A    between atoms: C_18  and  C_19
REMARK   17  A    between atoms: C_19  and  O_20
REMARK   18  A    between atoms: O_20  and  C_21
REMARK   19  A    between atoms: C_24  and  C_25
REMARK   20  A    between atoms: C_25  and  C_26
REMARK   21  A    between atoms: C_26  and  O_28
REMARK   22  A    between atoms: O_28  and  C_29
REMARK                            x       y       z     vdW  Elec       q    Type
REMARK                         _______ _______ _______ _____ _____    ______ ____
ROOT
ATOM      1  C   UNL     1       7.845   8.556  17.532  0.00  0.00    +0.000 C 
ENDROOT
BRANCH   1   2
ATOM      2  C   UNL     1       8.253   7.497  18.556  0.00  0.00    +0.000 C 
BRANCH   2   3
ATOM      3  C   UNL     1       7.548   6.167  18.308  0.00  0.00    +0.000 C 
BRANCH   3   4
ATOM      4  C   UNL     1       6.163   6.366  17.715  0.00  0.00    +0.000 C 
BRANCH   4   5
ATOM      5  C   UNL     1       6.110   5.733  16.329  0.00  0.00    +0.000 C 
BRANCH   5   6
ATOM      6  C   UNL     1       5.721   4.268  16.428  0.00  0.00    +0.000 C 
BRANCH   6   7
ATOM      7  C   UNL     1       4.227   4.128  16.679  0.00  0.00    +0.000 C 
BRANCH   7   8
ATOM      8  C   UNL     1       3.956   2.914  17.554  0.00  0.00    +0.000 C 
BRANCH   8   9
ATOM      9  C   UNL     1       4.305   3.209  19.007  0.00  0.00    +0.000 C 
BRANCH   9  10
ATOM     10  C   UNL     1       3.102   2.948  19.907  0.00  0.00    +0.000 C 
BRANCH  10  11
ATOM     11  C   UNL     1       2.759   4.194  20.718  0.00  0.00    +0.000 C 
BRANCH  11  13
ATOM     12  C   UNL     1       2.224   6.157  19.267  0.00  0.00    +0.000 C 
ATOM     13  C   UNL     1       3.118   5.436  19.959  0.00  0.00    +0.000 C 
BRANCH  12  16
ATOM     14  C   UNL     1       2.161   9.676  17.775  0.00  0.00    +0.000 C 
ATOM     15  C   UNL     1       1.805   8.441  18.532  0.00  0.00    +0.000 C 
ATOM     16  C   UNL     1       2.579   7.348  18.540  0.00  0.00    +0.000 C 
ENDBRANCH  12  16
ENDBRANCH  11  13
ENDBRANCH  10  11
ENDBRANCH   9  10
ENDBRANCH   8   9
ENDBRANCH   7   8
ENDBRANCH   6   7
ENDBRANCH   5   6
ENDBRANCH   4   5
ENDBRANCH   3   4
ENDBRANCH   2   3
ENDBRANCH   1   2
BRANCH   1  17
ATOM     17  C   UNL     1       8.238   9.971  17.965  0.00  0.00    +0.000 C 
BRANCH  17  18
ATOM     18  C   UNL     1       9.277   9.939  19.087  0.00  0.00    +0.000 C 
BRANCH  18  19
ATOM     19  C   UNL     1      10.013  11.286  19.265  0.00  0.00    +0.000 C 
ATOM     20  C   UNL     1       9.017  12.381  18.950  0.00  0.00    +0.000 C 
ATOM     21  C   UNL     1       8.864  13.435  19.766  0.00  0.00    +0.000 C 
ATOM     22  C   UNL     1       9.751  13.628  20.976  0.00  0.00    +0.000 C 
ATOM     23  O   UNL     1      10.874  12.729  20.908  0.00  0.00    +0.000 OA
ATOM     24  O   UNL     1      10.368  11.377  20.662  0.00  0.00    +0.000 OA
BRANCH  19  25
ATOM     25  O   UNL     1      11.122  11.278  18.360  0.00  0.00    +0.000 OA
ATOM     26  C   UNL     1      11.229  12.365  17.454  0.00  0.00    +0.000 C 
ENDBRANCH  19  25
BRANCH  22  27
ATOM     27  C   UNL     1       9.045  13.471  22.316  0.00  0.00    +0.000 C 
BRANCH  27  28
ATOM     28  C   UNL     1       8.886  14.814  22.968  0.00  0.00    +0.000 C 
ATOM     29  O   UNL     1       9.728  15.702  22.943  0.00  0.00    +0.000 OA
BRANCH  28  30
ATOM     30  O   UNL     1       7.681  14.900  23.594  0.00  0.00    +0.000 OA
ATOM     31  C   UNL     1       6.611  14.305  22.860  0.00  0.00    +0.000 C 
ENDBRANCH  28  30
ENDBRANCH  27  28
ENDBRANCH  22  27
ENDBRANCH  18  19
ENDBRANCH  17  18
ENDBRANCH   1  17
TORSDOF 19
ENDMDL
