MODEL 1
REMARK VINA RESULT:      -7.8      0.000      0.000
REMARK  Name = 
REMARK  12 active torsions:
REMARK  status: ('A' for Active; 'I' for Inactive)
REMARK    1  A    between atoms: C_1  and  C_2
REMARK    2  A    between atoms: C_2  and  C_3
REMARK    3  A    between atoms: C_2  and  C_4
REMARK    4  A    between atoms: C_4  and  C_5
REMARK    5  A    between atoms: C_5  and  N_6
REMARK    6  A    between atoms: N_6  and  C_18
REMARK    7  A    between atoms: C_7  and  C_9
REMARK    8  A    between atoms: C_9  and  N_10
REMARK    9  A    between atoms: C_11  and  C_13
REMARK   10  A    between atoms: C_18  and  C_19
REMARK   11  A    between atoms: C_18  and  C_28
REMARK   12  A    between atoms: N_21  and  C_22
REMARK                            x       y       z     vdW  Elec       q    Type
REMARK                         _______ _______ _______ _____ _____    ______ ____
ROOT
ATOM      1  N   UNL     1       4.613   6.419  16.944  0.00  0.00    +0.000 N 
ATOM      2  C   UNL     1       5.289   6.348  15.723  0.00  0.00    +0.000 C 
ATOM      3  O   UNL     1       4.994   7.076  14.767  0.00  0.00    +0.000 OA
ENDROOT
BRANCH   1   4
ATOM      4  C   UNL     1       3.550   7.430  17.155  0.00  0.00    +0.000 C 
BRANCH   4   5
ATOM      5  C   UNL     1       2.532   7.339  18.304  0.00  0.00    +0.000 C 
BRANCH   5   7
ATOM      6  C   UNL     1       1.062   9.410  18.026  0.00  0.00    +0.000 C 
ATOM      7  C   UNL     1       2.048   8.663  18.923  0.00  0.00    +0.000 C 
ATOM      8  C   UNL     1       1.372   8.373  20.270  0.00  0.00    +0.000 C 
ENDBRANCH   5   7
ENDBRANCH   4   5
ENDBRANCH   1   4
BRANCH   2   9
ATOM      9  C   UNL     1       6.428   5.346  15.488  0.00  0.00    +0.000 C 
BRANCH   9  10
ATOM     10  N   UNL     1       6.143   4.353  14.479  0.00  0.00    +0.000 N 
ATOM     11  C   UNL     1       6.790   4.401  13.256  0.00  0.00    +0.000 C 
ATOM     12  O   UNL     1       7.604   5.280  13.002  0.00  0.00    +0.000 OA
ATOM     13  H   UNL     1       5.489   3.598  14.672  0.00  0.00    +0.000 HD
BRANCH  11  14
ATOM     14  C   UNL     1       6.449   3.355  12.333  0.00  0.00    +0.000 A 
ATOM     15  C   UNL     1       5.217   2.835  11.967  0.00  0.00    +0.000 A 
ATOM     16  C   UNL     1       5.464   1.759  11.088  0.00  0.00    +0.000 A 
ATOM     17  C   UNL     1       6.833   1.687  10.968  0.00  0.00    +0.000 A 
ATOM     18  O   UNL     1       7.440   2.665  11.687  0.00  0.00    +0.000 OA
ENDBRANCH  11  14
ENDBRANCH   9  10
ENDBRANCH   2   9
BRANCH   1  19
ATOM     19  C   UNL     1       4.988   5.735  18.233  0.00  0.00    +0.000 C 
BRANCH  19  20
ATOM     20  C   UNL     1       6.408   5.879  18.701  0.00  0.00    +0.000 A 
ATOM     21  C   UNL     1       7.462   6.703  18.331  0.00  0.00    +0.000 A 
ATOM     22  C   UNL     1       8.517   6.452  19.238  0.00  0.00    +0.000 A 
ATOM     23  C   UNL     1       8.073   5.454  20.071  0.00  0.00    +0.000 A 
ATOM     24  O   UNL     1       6.798   5.098  19.758  0.00  0.00    +0.000 OA
ENDBRANCH  19  20
BRANCH  19  25
ATOM     25  C   UNL     1       4.517   4.260  18.366  0.00  0.00    +0.000 C 
ATOM     26  O   UNL     1       4.658   3.467  17.433  0.00  0.00    +0.000 OA
ATOM     27  N   UNL     1       3.891   3.909  19.546  0.00  0.00    +0.000 N 
ATOM     28  H   UNL     1       3.984   4.564  20.316  0.00  0.00    +0.000 HD
BRANCH  27  29
ATOM     29  C   UNL     1       3.417   2.547  19.843  0.00  0.00    +0.000 C 
ATOM     30  C   UNL     1       2.814   2.475  21.256  0.00  0.00    +0.000 C 
ATOM     31  C   UNL     1       1.538   3.305  21.364  0.00  0.00    +0.000 C 
ATOM     32  C   UNL     1       0.518   2.989  20.263  0.00  0.00    +0.000 C 
ATOM     33  C   UNL     1       1.118   2.907  18.862  0.00  0.00    +0.000 C 
ATOM     34  C   UNL     1       2.357   2.024  18.856  0.00  0.00    +0.000 C 
ENDBRANCH  27  29
ENDBRANCH  19  25
ENDBRANCH   1  19
TORSDOF 10
ENDMDL
MODEL 2
REMARK VINA RESULT:      -7.3      3.289      7.974
REMARK  Name = 
REMARK  12 active torsions:
REMARK  status: ('A' for Active; 'I' for Inactive)
REMARK    1  A    between atoms: C_1  and  C_2
REMARK    2  A    between atoms: C_2  and  C_3
REMARK    3  A    between atoms: C_2  and  C_4
REMARK    4  A    between atoms: C_4  and  C_5
REMARK    5  A    between atoms: C_5  and  N_6
REMARK    6  A    between atoms: N_6  and  C_18
REMARK    7  A    between atoms: C_7  and  C_9
REMARK    8  A    between atoms: C_9  and  N_10
REMARK    9  A    between atoms: C_11  and  C_13
REMARK   10  A    between atoms: C_18  and  C_19
REMARK   11  A    between atoms: C_18  and  C_28
REMARK   12  A    between atoms: N_21  and  C_22
REMARK                            x       y       z     vdW  Elec       q    Type
REMARK                         _______ _______ _______ _____ _____    ______ ____
ROOT
ATOM      1  N   UNL     1       2.386   6.845  19.126  0.00  0.00    +0.000 N 
ATOM      2  C   UNL     1       2.029   8.175  19.366  0.00  0.00    +0.000 C 
ATOM      3  O   UNL     1       1.904   8.625  20.512  0.00  0.00    +0.000 OA
ENDROOT
BRANCH   1   4
ATOM      4  C   UNL     1       2.696   5.937  20.257  0.00  0.00    +0.000 C 
BRANCH   4   5
ATOM      5  C   UNL     1       1.612   5.153  21.015  0.00  0.00    +0.000 C 
BRANCH   5   7
ATOM      6  C   UNL     1       0.990   2.681  20.855  0.00  0.00    +0.000 C 
ATOM      7  C   UNL     1       1.952   3.713  21.440  0.00  0.00    +0.000 C 
ATOM      8  C   UNL     1       3.379   3.376  20.985  0.00  0.00    +0.000 C 
ENDBRANCH   5   7
ENDBRANCH   4   5
ENDBRANCH   1   4
BRANCH   2   9
ATOM      9  C   UNL     1       1.751   9.155  18.217  0.00  0.00    +0.000 C 
BRANCH   9  10
ATOM     10  N   UNL     1       0.348   9.340  17.926  0.00  0.00    +0.000 N 
ATOM     11  C   UNL     1      -0.293  10.504  18.314  0.00  0.00    +0.000 C 
ATOM     12  O   UNL     1       0.305  11.389  18.913  0.00  0.00    +0.000 OA
ATOM     13  H   UNL     1      -0.167   8.632  17.409  0.00  0.00    +0.000 HD
BRANCH  11  14
ATOM     14  C   UNL     1      -1.681  10.595  17.957  0.00  0.00    +0.000 A 
ATOM     15  C   UNL     1      -2.391  10.008  16.922  0.00  0.00    +0.000 A 
ATOM     16  C   UNL     1      -3.709  10.508  16.984  0.00  0.00    +0.000 A 
ATOM     17  C   UNL     1      -3.726  11.371  18.056  0.00  0.00    +0.000 A 
ATOM     18  O   UNL     1      -2.518  11.408  18.674  0.00  0.00    +0.000 OA
ENDBRANCH  11  14
ENDBRANCH   9  10
ENDBRANCH   2   9
BRANCH   1  19
ATOM     19  C   UNL     1       2.753   6.225  17.803  0.00  0.00    +0.000 C 
BRANCH  19  20
ATOM     20  C   UNL     1       2.681   4.728  17.700  0.00  0.00    +0.000 A 
ATOM     21  C   UNL     1       1.636   3.826  17.559  0.00  0.00    +0.000 A 
ATOM     22  C   UNL     1       2.217   2.549  17.385  0.00  0.00    +0.000 A 
ATOM     23  C   UNL     1       3.574   2.732  17.486  0.00  0.00    +0.000 A 
ATOM     24  O   UNL     1       3.869   4.047  17.677  0.00  0.00    +0.000 OA
ENDBRANCH  19  20
BRANCH  19  25
ATOM     25  C   UNL     1       4.067   6.753  17.162  0.00  0.00    +0.000 C 
ATOM     26  O   UNL     1       4.036   7.462  16.156  0.00  0.00    +0.000 OA
ATOM     27  N   UNL     1       5.252   6.343  17.742  0.00  0.00    +0.000 N 
ATOM     28  H   UNL     1       5.180   5.921  18.662  0.00  0.00    +0.000 HD
BRANCH  27  29
ATOM     29  C   UNL     1       6.579   6.779  17.278  0.00  0.00    +0.000 C 
ATOM     30  C   UNL     1       7.559   6.896  18.458  0.00  0.00    +0.000 C 
ATOM     31  C   UNL     1       7.853   5.534  19.079  0.00  0.00    +0.000 C 
ATOM     32  C   UNL     1       8.282   4.481  18.049  0.00  0.00    +0.000 C 
ATOM     33  C   UNL     1       7.411   4.445  16.796  0.00  0.00    +0.000 C 
ATOM     34  C   UNL     1       7.216   5.845  16.233  0.00  0.00    +0.000 C 
ENDBRANCH  27  29
ENDBRANCH  19  25
ENDBRANCH   1  19
TORSDOF 10
ENDMDL
MODEL 3
REMARK VINA RESULT:      -7.3      2.408      6.231
REMARK  Name = 
REMARK  12 active torsions:
REMARK  status: ('A' for Active; 'I' for Inactive)
REMARK    1  A    between atoms: C_1  and  C_2
REMARK    2  A    between atoms: C_2  and  C_3
REMARK    3  A    between atoms: C_2  and  C_4
REMARK    4  A    between atoms: C_4  and  C_5
REMARK    5  A    between atoms: C_5  and  N_6
REMARK    6  A    between atoms: N_6  and  C_18
REMARK    7  A    between atoms: C_7  and  C_9
REMARK    8  A    between atoms: C_9  and  N_10
REMARK    9  A    between atoms: C_11  and  C_13
REMARK   10  A    between atoms: C_18  and  C_19
REMARK   11  A    between atoms: C_18  and  C_28
REMARK   12  A    between atoms: N_21  and  C_22
REMARK                            x       y       z     vdW  Elec       q    Type
REMARK                         _______ _______ _______ _____ _____    ______ ____
ROOT
ATOM      1  N   UNL     1       5.769   5.363  16.146  0.00  0.00    +0.000 N 
ATOM      2  C   UNL     1       6.934   5.968  16.627  0.00  0.00    +0.000 C 
ATOM      3  O   UNL     1       7.878   6.258  15.881  0.00  0.00    +0.000 OA
ENDROOT
BRANCH   1   4
ATOM      4  C   UNL     1       5.601   5.108  14.696  0.00  0.00    +0.000 C 
BRANCH   4   5
ATOM      5  C   UNL     1       6.633   4.329  13.864  0.00  0.00    +0.000 C 
BRANCH   5   7
ATOM      6  C   UNL     1       4.759   3.746  12.230  0.00  0.00    +0.000 C 
ATOM      7  C   UNL     1       6.092   3.316  12.838  0.00  0.00    +0.000 C 
ATOM      8  C   UNL     1       7.120   3.142  11.711  0.00  0.00    +0.000 C 
ENDBRANCH   5   7
ENDBRANCH   4   5
ENDBRANCH   1   4
BRANCH   2   9
ATOM      9  C   UNL     1       7.118   6.293  18.116  0.00  0.00    +0.000 C 
BRANCH   9  10
ATOM     10  N   UNL     1       7.973   7.430  18.370  0.00  0.00    +0.000 N 
ATOM     11  C   UNL     1       7.627   8.680  17.888  0.00  0.00    +0.000 C 
ATOM     12  O   UNL     1       6.604   8.848  17.235  0.00  0.00    +0.000 OA
ATOM     13  H   UNL     1       8.816   7.323  18.929  0.00  0.00    +0.000 HD
BRANCH  11  14
ATOM     14  C   UNL     1       8.535   9.744  18.215  0.00  0.00    +0.000 A 
ATOM     15  C   UNL     1       9.521   9.827  19.186  0.00  0.00    +0.000 A 
ATOM     16  C   UNL     1      10.053  11.132  19.127  0.00  0.00    +0.000 A 
ATOM     17  C   UNL     1       9.362  11.768  18.121  0.00  0.00    +0.000 A 
ATOM     18  O   UNL     1       8.465  10.932  17.539  0.00  0.00    +0.000 OA
ENDBRANCH  11  14
ENDBRANCH   9  10
ENDBRANCH   2   9
BRANCH   1  19
ATOM     19  C   UNL     1       4.485   5.134  16.900  0.00  0.00    +0.000 C 
BRANCH  19  20
ATOM     20  C   UNL     1       3.813   6.336  17.499  0.00  0.00    +0.000 A 
ATOM     21  C   UNL     1       3.594   7.633  17.056  0.00  0.00    +0.000 A 
ATOM     22  C   UNL     1       2.781   8.266  18.024  0.00  0.00    +0.000 A 
ATOM     23  C   UNL     1       2.596   7.345  19.025  0.00  0.00    +0.000 A 
ATOM     24  O   UNL     1       3.215   6.172  18.721  0.00  0.00    +0.000 OA
ENDBRANCH  19  20
BRANCH  19  25
ATOM     25  C   UNL     1       4.512   3.960  17.919  0.00  0.00    +0.000 C 
ATOM     26  O   UNL     1       5.565   3.619  18.458  0.00  0.00    +0.000 OA
ATOM     27  N   UNL     1       3.320   3.297  18.137  0.00  0.00    +0.000 N 
ATOM     28  H   UNL     1       2.481   3.756  17.798  0.00  0.00    +0.000 HD
BRANCH  27  29
ATOM     29  C   UNL     1       3.168   2.188  19.094  0.00  0.00    +0.000 C 
ATOM     30  C   UNL     1       3.481   2.656  20.525  0.00  0.00    +0.000 C 
ATOM     31  C   UNL     1       2.452   3.668  21.021  0.00  0.00    +0.000 C 
ATOM     32  C   UNL     1       1.005   3.190  20.851  0.00  0.00    +0.000 C 
ATOM     33  C   UNL     1       0.705   2.583  19.484  0.00  0.00    +0.000 C 
ATOM     34  C   UNL     1       1.763   1.558  19.104  0.00  0.00    +0.000 C 
ENDBRANCH  27  29
ENDBRANCH  19  25
ENDBRANCH   1  19
TORSDOF 10
ENDMDL
MODEL 4
REMARK VINA RESULT:      -7.2      2.093      6.004
REMARK  Name = 
REMARK  12 active torsions:
REMARK  status: ('A' for Active; 'I' for Inactive)
REMARK    1  A    between atoms: C_1  and  C_2
REMARK    2  A    between atoms: C_2  and  C_3
REMARK    3  A    between atoms: C_2  and  C_4
REMARK    4  A    between atoms: C_4  and  C_5
REMARK    5  A    between atoms: C_5  and  N_6
REMARK    6  A    between atoms: N_6  and  C_18
REMARK    7  A    between atoms: C_7  and  C_9
REMARK    8  A    between atoms: C_9  and  N_10
REMARK    9  A    between atoms: C_11  and  C_13
REMARK   10  A    between atoms: C_18  and  C_19
REMARK   11  A    between atoms: C_18  and  C_28
REMARK   12  A    between atoms: N_21  and  C_22
REMARK                            x       y       z     vdW  Elec       q    Type
REMARK                         _______ _______ _______ _____ _____    ______ ____
ROOT
ATOM      1  N   UNL     1       5.804   4.204  16.618  0.00  0.00    +0.000 N 
ATOM      2  C   UNL     1       6.829   4.717  17.419  0.00  0.00    +0.000 C 
ATOM      3  O   UNL     1       8.023   4.579  17.123  0.00  0.00    +0.000 OA
ENDROOT
BRANCH   1   4
ATOM      4  C   UNL     1       6.120   3.526  15.338  0.00  0.00    +0.000 C 
BRANCH   4   5
ATOM      5  C   UNL     1       5.782   4.137  13.968  0.00  0.00    +0.000 C 
BRANCH   5   7
ATOM      6  C   UNL     1       5.396   2.946  11.743  0.00  0.00    +0.000 C 
ATOM      7  C   UNL     1       6.427   3.489  12.730  0.00  0.00    +0.000 C 
ATOM      8  C   UNL     1       7.303   4.527  12.014  0.00  0.00    +0.000 C 
ENDBRANCH   5   7
ENDBRANCH   4   5
ENDBRANCH   1   4
BRANCH   2   9
ATOM      9  C   UNL     1       6.534   5.469  18.724  0.00  0.00    +0.000 C 
BRANCH   9  10
ATOM     10  N   UNL     1       7.306   6.678  18.896  0.00  0.00    +0.000 N 
ATOM     11  C   UNL     1       7.377   7.606  17.872  0.00  0.00    +0.000 C 
ATOM     12  O   UNL     1       6.802   7.423  16.806  0.00  0.00    +0.000 OA
ATOM     13  H   UNL     1       7.774   6.867  19.779  0.00  0.00    +0.000 HD
BRANCH  11  14
ATOM     14  C   UNL     1       8.152   8.782  18.155  0.00  0.00    +0.000 A 
ATOM     15  C   UNL     1       8.281   9.972  17.456  0.00  0.00    +0.000 A 
ATOM     16  C   UNL     1       9.240  10.753  18.135  0.00  0.00    +0.000 A 
ATOM     17  C   UNL     1       9.639   9.993  19.211  0.00  0.00    +0.000 A 
ATOM     18  O   UNL     1       8.966   8.814  19.255  0.00  0.00    +0.000 OA
ENDBRANCH  11  14
ENDBRANCH   9  10
ENDBRANCH   2   9
BRANCH   1  19
ATOM     19  C   UNL     1       4.326   4.460  16.757  0.00  0.00    +0.000 C 
BRANCH  19  20
ATOM     20  C   UNL     1       3.906   5.800  17.293  0.00  0.00    +0.000 A 
ATOM     21  C   UNL     1       3.982   7.096  16.802  0.00  0.00    +0.000 A 
ATOM     22  C   UNL     1       3.292   7.922  17.719  0.00  0.00    +0.000 A 
ATOM     23  C   UNL     1       2.886   7.100  18.741  0.00  0.00    +0.000 A 
ATOM     24  O   UNL     1       3.250   5.812  18.496  0.00  0.00    +0.000 OA
ENDBRANCH  19  20
BRANCH  19  25
ATOM     25  C   UNL     1       3.514   3.323  17.436  0.00  0.00    +0.000 C 
ATOM     26  O   UNL     1       2.639   2.717  16.816  0.00  0.00    +0.000 OA
ATOM     27  N   UNL     1       3.785   3.072  18.767  0.00  0.00    +0.000 N 
ATOM     28  H   UNL     1       4.636   3.483  19.138  0.00  0.00    +0.000 HD
BRANCH  27  29
ATOM     29  C   UNL     1       3.130   2.008  19.546  0.00  0.00    +0.000 C 
ATOM     30  C   UNL     1       3.315   2.242  21.054  0.00  0.00    +0.000 C 
ATOM     31  C   UNL     1       2.582   3.497  21.520  0.00  0.00    +0.000 C 
ATOM     32  C   UNL     1       1.111   3.533  21.086  0.00  0.00    +0.000 C 
ATOM     33  C   UNL     1       0.884   3.158  19.624  0.00  0.00    +0.000 C 
ATOM     34  C   UNL     1       1.620   1.873  19.275  0.00  0.00    +0.000 C 
ENDBRANCH  27  29
ENDBRANCH  19  25
ENDBRANCH   1  19
TORSDOF 10
ENDMDL
MODEL 5
REMARK VINA RESULT:      -7.0      2.446      6.327
REMARK  Name = 
REMARK  12 active torsions:
REMARK  status: ('A' for Active; 'I' for Inactive)
REMARK    1  A    between atoms: C_1  and  C_2
REMARK    2  A    between atoms: C_2  and  C_3
REMARK    3  A    between atoms: C_2  and  C_4
REMARK    4  A    between atoms: C_4  and  C_5
REMARK    5  A    between atoms: C_5  and  N_6
REMARK    6  A    between atoms: N_6  and  C_18
REMARK    7  A    between atoms: C_7  and  C_9
REMARK    8  A    between atoms: C_9  and  N_10
REMARK    9  A    between atoms: C_11  and  C_13
REMARK   10  A    between atoms: C_18  and  C_19
REMARK   11  A    between atoms: C_18  and  C_28
REMARK   12  A    between atoms: N_21  and  C_22
REMARK                            x       y       z     vdW  Elec       q    Type
REMARK                         _______ _______ _______ _____ _____    ______ ____
ROOT
ATOM      1  N   UNL     1       5.952   5.433  16.180  0.00  0.00    +0.000 N 
ATOM      2  C   UNL     1       7.022   6.160  16.711  0.00  0.00    +0.000 C 
ATOM      3  O   UNL     1       7.994   6.494  16.022  0.00  0.00    +0.000 OA
ENDROOT
BRANCH   1   4
ATOM      4  C   UNL     1       5.921   5.093  14.737  0.00  0.00    +0.000 C 
BRANCH   4   5
ATOM      5  C   UNL     1       5.780   3.649  14.226  0.00  0.00    +0.000 C 
BRANCH   5   7
ATOM      6  C   UNL     1       4.861   3.425  11.854  0.00  0.00    +0.000 C 
ATOM      7  C   UNL     1       6.102   3.392  12.743  0.00  0.00    +0.000 C 
ATOM      8  C   UNL     1       7.095   4.455  12.251  0.00  0.00    +0.000 C 
ENDBRANCH   5   7
ENDBRANCH   4   5
ENDBRANCH   1   4
BRANCH   2   9
ATOM      9  C   UNL     1       7.061   6.572  18.189  0.00  0.00    +0.000 C 
BRANCH   9  10
ATOM     10  N   UNL     1       8.024   7.608  18.487  0.00  0.00    +0.000 N 
ATOM     11  C   UNL     1       7.807   8.902  18.048  0.00  0.00    +0.000 C 
ATOM     12  O   UNL     1       6.812   9.195  17.398  0.00  0.00    +0.000 OA
ATOM     13  H   UNL     1       8.847   7.398  19.045  0.00  0.00    +0.000 HD
BRANCH  11  14
ATOM     14  C   UNL     1       8.814   9.858  18.417  0.00  0.00    +0.000 A 
ATOM     15  C   UNL     1       9.566  10.727  17.642  0.00  0.00    +0.000 A 
ATOM     16  C   UNL     1      10.471  11.379  18.505  0.00  0.00    +0.000 A 
ATOM     17  C   UNL     1      10.217  10.871  19.759  0.00  0.00    +0.000 A 
ATOM     18  O   UNL     1       9.196   9.976  19.727  0.00  0.00    +0.000 OA
ENDBRANCH  11  14
ENDBRANCH   9  10
ENDBRANCH   2   9
BRANCH   1  19
ATOM     19  C   UNL     1       4.637   5.129  16.848  0.00  0.00    +0.000 C 
BRANCH  19  20
ATOM     20  C   UNL     1       3.859   6.291  17.398  0.00  0.00    +0.000 A 
ATOM     21  C   UNL     1       3.042   6.459  18.507  0.00  0.00    +0.000 A 
ATOM     22  C   UNL     1       2.702   7.830  18.561  0.00  0.00    +0.000 A 
ATOM     23  C   UNL     1       3.279   8.409  17.458  0.00  0.00    +0.000 A 
ATOM     24  O   UNL     1       3.983   7.489  16.745  0.00  0.00    +0.000 OA
ENDBRANCH  19  20
BRANCH  19  25
ATOM     25  C   UNL     1       4.664   3.958  17.869  0.00  0.00    +0.000 C 
ATOM     26  O   UNL     1       5.724   3.591  18.378  0.00  0.00    +0.000 OA
ATOM     27  N   UNL     1       3.462   3.327  18.126  0.00  0.00    +0.000 N 
ATOM     28  H   UNL     1       2.626   3.808  17.811  0.00  0.00    +0.000 HD
BRANCH  27  29
ATOM     29  C   UNL     1       3.310   2.225  19.091  0.00  0.00    +0.000 C 
ATOM     30  C   UNL     1       3.582   2.713  20.524  0.00  0.00    +0.000 C 
ATOM     31  C   UNL     1       2.524   3.711  20.986  0.00  0.00    +0.000 C 
ATOM     32  C   UNL     1       1.090   3.204  20.790  0.00  0.00    +0.000 C 
ATOM     33  C   UNL     1       0.832   2.577  19.423  0.00  0.00    +0.000 C 
ATOM     34  C   UNL     1       1.918   1.568  19.077  0.00  0.00    +0.000 C 
ENDBRANCH  27  29
ENDBRANCH  19  25
ENDBRANCH   1  19
TORSDOF 10
ENDMDL
MODEL 6
REMARK VINA RESULT:      -6.9      3.790      7.776
REMARK  Name = 
REMARK  12 active torsions:
REMARK  status: ('A' for Active; 'I' for Inactive)
REMARK    1  A    between atoms: C_1  and  C_2
REMARK    2  A    between atoms: C_2  and  C_3
REMARK    3  A    between atoms: C_2  and  C_4
REMARK    4  A    between atoms: C_4  and  C_5
REMARK    5  A    between atoms: C_5  and  N_6
REMARK    6  A    between atoms: N_6  and  C_18
REMARK    7  A    between atoms: C_7  and  C_9
REMARK    8  A    between atoms: C_9  and  N_10
REMARK    9  A    between atoms: C_11  and  C_13
REMARK   10  A    between atoms: C_18  and  C_19
REMARK   11  A    between atoms: C_18  and  C_28
REMARK   12  A    between atoms: N_21  and  C_22
REMARK                            x       y       z     vdW  Elec       q    Type
REMARK                         _______ _______ _______ _____ _____    ______ ____
ROOT
ATOM      1  N   UNL     1       2.216   7.425  18.799  0.00  0.00    +0.000 N 
ATOM      2  C   UNL     1       2.082   8.635  18.113  0.00  0.00    +0.000 C 
ATOM      3  O   UNL     1       2.751   8.895  17.105  0.00  0.00    +0.000 OA
ENDROOT
BRANCH   1   4
ATOM      4  C   UNL     1       3.129   6.373  18.292  0.00  0.00    +0.000 C 
BRANCH   4   5
ATOM      5  C   UNL     1       4.600   6.649  17.939  0.00  0.00    +0.000 C 
BRANCH   5   7
ATOM      6  C   UNL     1       5.321   5.973  15.584  0.00  0.00    +0.000 C 
ATOM      7  C   UNL     1       5.322   5.606  17.066  0.00  0.00    +0.000 C 
ATOM      8  C   UNL     1       6.775   5.468  17.544  0.00  0.00    +0.000 C 
ENDBRANCH   5   7
ENDBRANCH   4   5
ENDBRANCH   1   4
BRANCH   2   9
ATOM      9  C   UNL     1       1.108   9.725  18.582  0.00  0.00    +0.000 C 
BRANCH   9  10
ATOM     10  N   UNL     1      -0.049   9.889  17.731  0.00  0.00    +0.000 N 
ATOM     11  C   UNL     1      -1.224  10.401  18.251  0.00  0.00    +0.000 C 
ATOM     12  O   UNL     1      -1.314  10.716  19.431  0.00  0.00    +0.000 OA
ATOM     13  H   UNL     1       0.005   9.657  16.742  0.00  0.00    +0.000 HD
BRANCH  11  14
ATOM     14  C   UNL     1      -2.305  10.542  17.315  0.00  0.00    +0.000 A 
ATOM     15  C   UNL     1      -2.493   9.991  16.057  0.00  0.00    +0.000 A 
ATOM     16  C   UNL     1      -3.687  10.534  15.539  0.00  0.00    +0.000 A 
ATOM     17  C   UNL     1      -4.160  11.383  16.513  0.00  0.00    +0.000 A 
ATOM     18  O   UNL     1      -3.354  11.374  17.605  0.00  0.00    +0.000 OA
ENDBRANCH  11  14
ENDBRANCH   9  10
ENDBRANCH   2   9
BRANCH   1  19
ATOM     19  C   UNL     1       1.342   6.908  19.912  0.00  0.00    +0.000 C 
BRANCH  19  20
ATOM     20  C   UNL     1       1.041   7.848  21.045  0.00  0.00    +0.000 A 
ATOM     21  C   UNL     1       1.826   8.657  21.855  0.00  0.00    +0.000 A 
ATOM     22  C   UNL     1       0.943   9.413  22.658  0.00  0.00    +0.000 A 
ATOM     23  C   UNL     1      -0.323   8.985  22.339  0.00  0.00    +0.000 A 
ATOM     24  O   UNL     1      -0.278   8.038  21.363  0.00  0.00    +0.000 OA
ENDBRANCH  19  20
BRANCH  19  25
ATOM     25  C   UNL     1       1.718   5.502  20.456  0.00  0.00    +0.000 C 
ATOM     26  O   UNL     1       2.340   5.380  21.512  0.00  0.00    +0.000 OA
ATOM     27  N   UNL     1       1.372   4.417  19.673  0.00  0.00    +0.000 N 
ATOM     28  H   UNL     1       0.710   4.596  18.925  0.00  0.00    +0.000 HD
BRANCH  27  29
ATOM     29  C   UNL     1       1.625   3.019  20.059  0.00  0.00    +0.000 C 
ATOM     30  C   UNL     1       1.317   2.066  18.893  0.00  0.00    +0.000 C 
ATOM     31  C   UNL     1       2.283   2.272  17.730  0.00  0.00    +0.000 C 
ATOM     32  C   UNL     1       3.756   2.237  18.156  0.00  0.00    +0.000 C 
ATOM     33  C   UNL     1       4.063   3.059  19.405  0.00  0.00    +0.000 C 
ATOM     34  C   UNL     1       3.071   2.748  20.515  0.00  0.00    +0.000 C 
ENDBRANCH  27  29
ENDBRANCH  19  25
ENDBRANCH   1  19
TORSDOF 10
ENDMDL
MODEL 7
REMARK VINA RESULT:      -6.9      5.962      9.308
REMARK  Name = 
REMARK  12 active torsions:
REMARK  status: ('A' for Active; 'I' for Inactive)
REMARK    1  A    between atoms: C_1  and  C_2
REMARK    2  A    between atoms: C_2  and  C_3
REMARK    3  A    between atoms: C_2  and  C_4
REMARK    4  A    between atoms: C_4  and  C_5
REMARK    5  A    between atoms: C_5  and  N_6
REMARK    6  A    between atoms: N_6  and  C_18
REMARK    7  A    between atoms: C_7  and  C_9
REMARK    8  A    between atoms: C_9  and  N_10
REMARK    9  A    between atoms: C_11  and  C_13
REMARK   10  A    between atoms: C_18  and  C_19
REMARK   11  A    between atoms: C_18  and  C_28
REMARK   12  A    between atoms: N_21  and  C_22
REMARK                            x       y       z     vdW  Elec       q    Type
REMARK                         _______ _______ _______ _____ _____    ______ ____
ROOT
ATOM      1  N   UNL     1       0.024  10.620  20.952  0.00  0.00    +0.000 N 
ATOM      2  C   UNL     1       0.476   9.470  21.607  0.00  0.00    +0.000 C 
ATOM      3  O   UNL     1       0.020   9.117  22.702  0.00  0.00    +0.000 OA
ENDROOT
BRANCH   1   4
ATOM      4  C   UNL     1      -1.079  11.426  21.529  0.00  0.00    +0.000 C 
BRANCH   4   5
ATOM      5  C   UNL     1      -0.875  12.387  22.712  0.00  0.00    +0.000 C 
BRANCH   5   7
ATOM      6  C   UNL     1      -2.638  13.970  23.666  0.00  0.00    +0.000 C 
ATOM      7  C   UNL     1      -1.544  13.771  22.619  0.00  0.00    +0.000 C 
ATOM      8  C   UNL     1      -0.477  14.860  22.800  0.00  0.00    +0.000 C 
ENDBRANCH   5   7
ENDBRANCH   4   5
ENDBRANCH   1   4
BRANCH   2   9
ATOM      9  C   UNL     1       1.580   8.585  21.012  0.00  0.00    +0.000 C 
BRANCH   9  10
ATOM     10  N   UNL     1       1.364   7.168  21.197  0.00  0.00    +0.000 N 
ATOM     11  C   UNL     1       2.064   6.255  20.429  0.00  0.00    +0.000 C 
ATOM     12  O   UNL     1       2.868   6.621  19.580  0.00  0.00    +0.000 OA
ATOM     13  H   UNL     1       0.720   6.836  21.910  0.00  0.00    +0.000 HD
BRANCH  11  14
ATOM     14  C   UNL     1       1.790   4.872  20.707  0.00  0.00    +0.000 A 
ATOM     15  C   UNL     1       2.447   3.965  21.523  0.00  0.00    +0.000 A 
ATOM     16  C   UNL     1       1.807   2.718  21.360  0.00  0.00    +0.000 A 
ATOM     17  C   UNL     1       0.794   2.939  20.454  0.00  0.00    +0.000 A 
ATOM     18  O   UNL     1       0.750   4.242  20.077  0.00  0.00    +0.000 OA
ENDBRANCH  11  14
ENDBRANCH   9  10
ENDBRANCH   2   9
BRANCH   1  19
ATOM     19  C   UNL     1       0.351  11.055  19.548  0.00  0.00    +0.000 C 
BRANCH  19  20
ATOM     20  C   UNL     1       0.271  12.525  19.246  0.00  0.00    +0.000 A 
ATOM     21  C   UNL     1      -0.630  13.312  18.541  0.00  0.00    +0.000 A 
ATOM     22  C   UNL     1      -0.231  14.656  18.726  0.00  0.00    +0.000 A 
ATOM     23  C   UNL     1       0.916  14.612  19.480  0.00  0.00    +0.000 A 
ATOM     24  O   UNL     1       1.231  13.328  19.803  0.00  0.00    +0.000 OA
ENDBRANCH  19  20
BRANCH  19  25
ATOM     25  C   UNL     1      -0.327  10.229  18.420  0.00  0.00    +0.000 C 
ATOM     26  O   UNL     1       0.348   9.559  17.637  0.00  0.00    +0.000 OA
ATOM     27  N   UNL     1      -1.701  10.332  18.311  0.00  0.00    +0.000 N 
ATOM     28  H   UNL     1      -2.184  10.750  19.099  0.00  0.00    +0.000 HD
BRANCH  27  29
ATOM     29  C   UNL     1      -2.497   9.589  17.320  0.00  0.00    +0.000 C 
ATOM     30  C   UNL     1      -3.948   9.422  17.800  0.00  0.00    +0.000 C 
ATOM     31  C   UNL     1      -4.672  10.764  17.874  0.00  0.00    +0.000 C 
ATOM     32  C   UNL     1      -4.561  11.580  16.579  0.00  0.00    +0.000 C 
ATOM     33  C   UNL     1      -3.151  11.638  15.998  0.00  0.00    +0.000 C 
ATOM     34  C   UNL     1      -2.538  10.247  15.929  0.00  0.00    +0.000 C 
ENDBRANCH  27  29
ENDBRANCH  19  25
ENDBRANCH   1  19
TORSDOF 10
ENDMDL
MODEL 8
REMARK VINA RESULT:      -6.8      3.310      8.214
REMARK  Name = 
REMARK  12 active torsions:
REMARK  status: ('A' for Active; 'I' for Inactive)
REMARK    1  A    between atoms: C_1  and  C_2
REMARK    2  A    between atoms: C_2  and  C_3
REMARK    3  A    between atoms: C_2  and  C_4
REMARK    4  A    between atoms: C_4  and  C_5
REMARK    5  A    between atoms: C_5  and  N_6
REMARK    6  A    between atoms: N_6  and  C_18
REMARK    7  A    between atoms: C_7  and  C_9
REMARK    8  A    between atoms: C_9  and  N_10
REMARK    9  A    between atoms: C_11  and  C_13
REMARK   10  A    between atoms: C_18  and  C_19
REMARK   11  A    between atoms: C_18  and  C_28
REMARK   12  A    between atoms: N_21  and  C_22
REMARK                            x       y       z     vdW  Elec       q    Type
REMARK                         _______ _______ _______ _____ _____    ______ ____
ROOT
ATOM      1  N   UNL     1       2.399   6.849  19.009  0.00  0.00    +0.000 N 
ATOM      2  C   UNL     1       1.880   8.137  19.169  0.00  0.00    +0.000 C 
ATOM      3  O   UNL     1       1.716   8.643  20.287  0.00  0.00    +0.000 OA
ENDROOT
BRANCH   1   4
ATOM      4  C   UNL     1       2.837   6.065  20.188  0.00  0.00    +0.000 C 
BRANCH   4   5
ATOM      5  C   UNL     1       1.865   5.232  21.040  0.00  0.00    +0.000 C 
BRANCH   5   7
ATOM      6  C   UNL     1       2.140   2.926  22.103  0.00  0.00    +0.000 C 
ATOM      7  C   UNL     1       1.863   3.708  20.821  0.00  0.00    +0.000 C 
ATOM      8  C   UNL     1       0.500   3.280  20.261  0.00  0.00    +0.000 C 
ENDBRANCH   5   7
ENDBRANCH   4   5
ENDBRANCH   1   4
BRANCH   2   9
ATOM      9  C   UNL     1       1.465   8.995  17.966  0.00  0.00    +0.000 C 
BRANCH   9  10
ATOM     10  N   UNL     1       1.531  10.418  18.206  0.00  0.00    +0.000 N 
ATOM     11  C   UNL     1       0.377  11.128  18.489  0.00  0.00    +0.000 C 
ATOM     12  O   UNL     1      -0.715  10.574  18.535  0.00  0.00    +0.000 OA
ATOM     13  H   UNL     1       2.427  10.899  18.197  0.00  0.00    +0.000 HD
BRANCH  11  14
ATOM     14  C   UNL     1       0.557  12.532  18.732  0.00  0.00    +0.000 A 
ATOM     15  C   UNL     1       1.591  13.220  19.348  0.00  0.00    +0.000 A 
ATOM     16  C   UNL     1       1.216  14.579  19.397  0.00  0.00    +0.000 A 
ATOM     17  C   UNL     1      -0.025  14.642  18.804  0.00  0.00    +0.000 A 
ATOM     18  O   UNL     1      -0.421  13.419  18.367  0.00  0.00    +0.000 OA
ENDBRANCH  11  14
ENDBRANCH   9  10
ENDBRANCH   2   9
BRANCH   1  19
ATOM     19  C   UNL     1       2.823   6.193  17.721  0.00  0.00    +0.000 C 
BRANCH  19  20
ATOM     20  C   UNL     1       2.787   4.692  17.668  0.00  0.00    +0.000 A 
ATOM     21  C   UNL     1       1.833   3.768  17.264  0.00  0.00    +0.000 A 
ATOM     22  C   UNL     1       2.442   2.495  17.327  0.00  0.00    +0.000 A 
ATOM     23  C   UNL     1       3.708   2.702  17.818  0.00  0.00    +0.000 A 
ATOM     24  O   UNL     1       3.930   4.028  18.029  0.00  0.00    +0.000 OA
ENDBRANCH  19  20
BRANCH  19  25
ATOM     25  C   UNL     1       4.145   6.729  17.104  0.00  0.00    +0.000 C 
ATOM     26  O   UNL     1       4.129   7.412  16.079  0.00  0.00    +0.000 OA
ATOM     27  N   UNL     1       5.320   6.355  17.726  0.00  0.00    +0.000 N 
ATOM     28  H   UNL     1       5.229   5.953  18.654  0.00  0.00    +0.000 HD
BRANCH  27  29
ATOM     29  C   UNL     1       6.652   6.804  17.288  0.00  0.00    +0.000 C 
ATOM     30  C   UNL     1       7.610   6.918  18.486  0.00  0.00    +0.000 C 
ATOM     31  C   UNL     1       7.903   5.553  19.101  0.00  0.00    +0.000 C 
ATOM     32  C   UNL     1       8.357   4.511  18.070  0.00  0.00    +0.000 C 
ATOM     33  C   UNL     1       7.508   4.479  16.802  0.00  0.00    +0.000 C 
ATOM     34  C   UNL     1       7.313   5.882  16.247  0.00  0.00    +0.000 C 
ENDBRANCH  27  29
ENDBRANCH  19  25
ENDBRANCH   1  19
TORSDOF 10
ENDMDL
MODEL 9
REMARK VINA RESULT:      -6.8      2.053      7.530
REMARK  Name = 
REMARK  12 active torsions:
REMARK  status: ('A' for Active; 'I' for Inactive)
REMARK    1  A    between atoms: C_1  and  C_2
REMARK    2  A    between atoms: C_2  and  C_3
REMARK    3  A    between atoms: C_2  and  C_4
REMARK    4  A    between atoms: C_4  and  C_5
REMARK    5  A    between atoms: C_5  and  N_6
REMARK    6  A    between atoms: N_6  and  C_18
REMARK    7  A    between atoms: C_7  and  C_9
REMARK    8  A    between atoms: C_9  and  N_10
REMARK    9  A    between atoms: C_11  and  C_13
REMARK   10  A    between atoms: C_18  and  C_19
REMARK   11  A    between atoms: C_18  and  C_28
REMARK   12  A    between atoms: N_21  and  C_22
REMARK                            x       y       z     vdW  Elec       q    Type
REMARK                         _______ _______ _______ _____ _____    ______ ____
ROOT
ATOM      1  N   UNL     1       3.863   4.286  17.048  0.00  0.00    +0.000 N 
ATOM      2  C   UNL     1       3.089   5.254  17.694  0.00  0.00    +0.000 C 
ATOM      3  O   UNL     1       1.990   4.987  18.198  0.00  0.00    +0.000 OA
ENDROOT
BRANCH   1   4
ATOM      4  C   UNL     1       3.414   2.874  17.005  0.00  0.00    +0.000 C 
BRANCH   4   5
ATOM      5  C   UNL     1       3.591   1.909  18.189  0.00  0.00    +0.000 C 
BRANCH   5   7
ATOM      6  C   UNL     1       2.308   2.411  20.340  0.00  0.00    +0.000 C 
ATOM      7  C   UNL     1       3.638   2.526  19.599  0.00  0.00    +0.000 C 
ATOM      8  C   UNL     1       4.728   1.824  20.421  0.00  0.00    +0.000 C 
ENDBRANCH   5   7
ENDBRANCH   4   5
ENDBRANCH   1   4
BRANCH   2   9
ATOM      9  C   UNL     1       3.548   6.715  17.802  0.00  0.00    +0.000 C 
BRANCH   9  10
ATOM     10  N   UNL     1       2.788   7.505  18.743  0.00  0.00    +0.000 N 
ATOM     11  C   UNL     1       2.088   8.617  18.308  0.00  0.00    +0.000 C 
ATOM     12  O   UNL     1       2.102   8.957  17.132  0.00  0.00    +0.000 OA
ATOM     13  H   UNL     1       2.739   7.231  19.721  0.00  0.00    +0.000 HD
BRANCH  11  14
ATOM     14  C   UNL     1       1.348   9.318  19.321  0.00  0.00    +0.000 A 
ATOM     15  C   UNL     1       0.744  10.566  19.302  0.00  0.00    +0.000 A 
ATOM     16  C   UNL     1       0.231  10.800  20.595  0.00  0.00    +0.000 A 
ATOM     17  C   UNL     1       0.549   9.679  21.327  0.00  0.00    +0.000 A 
ATOM     18  O   UNL     1       1.195   8.761  20.563  0.00  0.00    +0.000 OA
ENDBRANCH  11  14
ENDBRANCH   9  10
ENDBRANCH   2   9
BRANCH   1  19
ATOM     19  C   UNL     1       5.283   4.430  16.565  0.00  0.00    +0.000 C 
BRANCH  19  20
ATOM     20  C   UNL     1       6.272   5.053  17.509  0.00  0.00    +0.000 A 
ATOM     21  C   UNL     1       7.219   6.059  17.381  0.00  0.00    +0.000 A 
ATOM     22  C   UNL     1       7.754   6.286  18.669  0.00  0.00    +0.000 A 
ATOM     23  C   UNL     1       7.150   5.372  19.498  0.00  0.00    +0.000 A 
ATOM     24  O   UNL     1       6.251   4.619  18.809  0.00  0.00    +0.000 OA
ENDBRANCH  19  20
BRANCH  19  25
ATOM     25  C   UNL     1       5.443   5.023  15.138  0.00  0.00    +0.000 C 
ATOM     26  O   UNL     1       5.280   6.227  14.934  0.00  0.00    +0.000 OA
ATOM     27  N   UNL     1       5.718   4.131  14.120  0.00  0.00    +0.000 N 
ATOM     28  H   UNL     1       6.015   3.203  14.403  0.00  0.00    +0.000 HD
BRANCH  27  29
ATOM     29  C   UNL     1       5.933   4.534  12.720  0.00  0.00    +0.000 C 
ATOM     30  C   UNL     1       7.149   3.806  12.123  0.00  0.00    +0.000 C 
ATOM     31  C   UNL     1       6.901   2.305  12.005  0.00  0.00    +0.000 C 
ATOM     32  C   UNL     1       5.589   1.964  11.286  0.00  0.00    +0.000 C 
ATOM     33  C   UNL     1       4.390   2.782  11.758  0.00  0.00    +0.000 C 
ATOM     34  C   UNL     1       4.729   4.264  11.799  0.00  0.00    +0.000 C 
ENDBRANCH  27  29
ENDBRANCH  19  25
ENDBRANCH   1  19
TORSDOF 10
ENDMDL
