MODEL 1
REMARK VINA RESULT:      -7.1      0.000      0.000
REMARK  Name = 
REMARK  7 active torsions:
REMARK  status: ('A' for Active; 'I' for Inactive)
REMARK    1  A    between atoms: C_2  and  C_3
REMARK    2  A    between atoms: C_4  and  N_5
REMARK    3  A    between atoms: N_6  and  C_7
REMARK    4  A    between atoms: C_10  and  S_11
REMARK    5  A    between atoms: S_11  and  N_12
REMARK    6  A    between atoms: C_23  and  C_24
REMARK    7  A    between atoms: C_29  and  O_30
REMARK                            x       y       z     vdW  Elec       q    Type
REMARK                         _______ _______ _______ _____ _____    ______ ____
ROOT
ATOM      1  C   UNL     1      -0.242  13.057  20.726  0.00  0.00    +0.000 C 
ATOM      2  C   UNL     1       0.577  12.044  20.341  0.00  0.00    +0.000 C 
ATOM      3  N   UNL     1       0.056  10.973  19.529  0.00  0.00    +0.000 N 
ATOM      4  C   UNL     1      -1.291  11.063  19.016  0.00  0.00    +0.000 C 
ATOM      5  C   UNL     1      -2.094  12.119  19.298  0.00  0.00    +0.000 C 
ATOM      6  C   UNL     1      -3.484  12.324  18.716  0.00  0.00    +0.000 C 
ATOM      7  C   UNL     1      -3.839  11.362  17.594  0.00  0.00    +0.000 C 
ATOM      8  C   UNL     1      -3.419   9.964  17.999  0.00  0.00    +0.000 C 
ATOM      9  C   UNL     1      -1.901   9.934  18.182  0.00  0.00    +0.000 C 
ATOM     10  C   UNL     1      -1.668  13.198  20.276  0.00  0.00    +0.000 C 
ENDROOT
BRANCH   3  11
ATOM     11  C   UNL     1       0.898   9.820  19.242  0.00  0.00    +0.000 A 
ATOM     12  C   UNL     1       1.558   9.674  18.003  0.00  0.00    +0.000 A 
ATOM     13  C   UNL     1       2.289   8.523  17.684  0.00  0.00    +0.000 A 
ATOM     14  C   UNL     1       2.505   7.559  18.665  0.00  0.00    +0.000 A 
ATOM     15  C   UNL     1       1.935   7.697  19.923  0.00  0.00    +0.000 A 
ATOM     16  C   UNL     1       1.086   8.780  20.170  0.00  0.00    +0.000 A 
BRANCH  14  17
ATOM     17  S   UNL     1       3.485   6.135  18.306  0.00  0.00    +0.000 S 
ATOM     18  O   UNL     1       2.642   5.112  17.716  0.00  0.00    +0.000 OA
ATOM     19  O   UNL     1       4.731   6.551  17.725  0.00  0.00    +0.000 OA
BRANCH  17  20
ATOM     20  N   UNL     1       3.838   5.597  19.856  0.00  0.00    +0.000 NA
ATOM     21  H   UNL     1       4.535   6.202  20.287  0.00  0.00    +0.000 HD
ATOM     22  H   UNL     1       2.976   5.497  20.391  0.00  0.00    +0.000 HD
ENDBRANCH  17  20
ENDBRANCH  14  17
ENDBRANCH   3  11
BRANCH  10  23
ATOM     23  C   UNL     1      -2.628  13.248  21.462  0.00  0.00    +0.000 A 
ATOM     24  C   UNL     1      -2.552  12.270  22.473  0.00  0.00    +0.000 A 
ATOM     25  C   UNL     1      -3.481  12.248  23.511  0.00  0.00    +0.000 A 
ATOM     26  C   UNL     1      -4.489  13.207  23.562  0.00  0.00    +0.000 A 
ATOM     27  C   UNL     1      -4.560  14.203  22.589  0.00  0.00    +0.000 A 
ATOM     28  C   UNL     1      -3.633  14.221  21.548  0.00  0.00    +0.000 A 
BRANCH  28  29
ATOM     29  O   UNL     1      -3.714  15.182  20.581  0.00  0.00    +0.000 OA
ATOM     30  H   UNL     1      -2.935  15.760  20.646  0.00  0.00    +0.000 HD
ENDBRANCH  28  29
ENDBRANCH  10  23
BRANCH   2  31
ATOM     31  N   UNL     1       1.917  12.153  20.715  0.00  0.00    +0.000 N 
ATOM     32  H   UNL     1       2.552  12.600  20.050  0.00  0.00    +0.000 HD
ATOM     33  H   UNL     1       2.119  12.339  21.676  0.00  0.00    +0.000 HD
ENDBRANCH   2  31
BRANCH   1  35
ATOM     34  N   UNL     1       0.720  15.099  22.350  0.00  0.00    +0.000 NA
ATOM     35  C   UNL     1       0.284  14.173  21.614  0.00  0.00    +0.000 C 
ENDBRANCH   1  35
TORSDOF 7
ENDMDL
MODEL 2
REMARK VINA RESULT:      -7.0      0.637      1.149
REMARK  Name = 
REMARK  7 active torsions:
REMARK  status: ('A' for Active; 'I' for Inactive)
REMARK    1  A    between atoms: C_2  and  C_3
REMARK    2  A    between atoms: C_4  and  N_5
REMARK    3  A    between atoms: N_6  and  C_7
REMARK    4  A    between atoms: C_10  and  S_11
REMARK    5  A    between atoms: S_11  and  N_12
REMARK    6  A    between atoms: C_23  and  C_24
REMARK    7  A    between atoms: C_29  and  O_30
REMARK                            x       y       z     vdW  Elec       q    Type
REMARK                         _______ _______ _______ _____ _____    ______ ____
ROOT
ATOM      1  C   UNL     1      -0.161  13.004  20.662  0.00  0.00    +0.000 C 
ATOM      2  C   UNL     1       0.642  11.976  20.282  0.00  0.00    +0.000 C 
ATOM      3  N   UNL     1       0.100  10.903  19.486  0.00  0.00    +0.000 N 
ATOM      4  C   UNL     1      -1.249  11.004  18.984  0.00  0.00    +0.000 C 
ATOM      5  C   UNL     1      -2.037  12.074  19.261  0.00  0.00    +0.000 C 
ATOM      6  C   UNL     1      -3.429  12.290  18.688  0.00  0.00    +0.000 C 
ATOM      7  C   UNL     1      -3.806  11.320  17.579  0.00  0.00    +0.000 C 
ATOM      8  C   UNL     1      -3.400   9.922  17.996  0.00  0.00    +0.000 C 
ATOM      9  C   UNL     1      -1.881   9.875  18.167  0.00  0.00    +0.000 C 
ATOM     10  C   UNL     1      -1.589  13.158  20.223  0.00  0.00    +0.000 C 
ENDROOT
BRANCH   3  11
ATOM     11  C   UNL     1       0.925   9.737  19.205  0.00  0.00    +0.000 A 
ATOM     12  C   UNL     1       1.115   8.715  20.161  0.00  0.00    +0.000 A 
ATOM     13  C   UNL     1       1.984   7.641  19.933  0.00  0.00    +0.000 A 
ATOM     14  C   UNL     1       2.561   7.484  18.677  0.00  0.00    +0.000 A 
ATOM     15  C   UNL     1       2.343   8.428  17.681  0.00  0.00    +0.000 A 
ATOM     16  C   UNL     1       1.593   9.570  17.979  0.00  0.00    +0.000 A 
BRANCH  14  17
ATOM     17  S   UNL     1       3.602   6.098  18.347  0.00  0.00    +0.000 S 
ATOM     18  O   UNL     1       4.431   6.386  17.191  0.00  0.00    +0.000 OA
ATOM     19  O   UNL     1       4.135   5.600  19.585  0.00  0.00    +0.000 OA
BRANCH  17  20
ATOM     20  N   UNL     1       2.471   4.972  17.827  0.00  0.00    +0.000 NA
ATOM     21  H   UNL     1       1.588   5.434  17.615  0.00  0.00    +0.000 HD
ATOM     22  H   UNL     1       2.857   4.424  17.059  0.00  0.00    +0.000 HD
ENDBRANCH  17  20
ENDBRANCH  14  17
ENDBRANCH   3  11
BRANCH  10  23
ATOM     23  C   UNL     1      -2.539  13.233  21.416  0.00  0.00    +0.000 A 
ATOM     24  C   UNL     1      -2.494  12.244  22.417  0.00  0.00    +0.000 A 
ATOM     25  C   UNL     1      -3.416  12.247  23.461  0.00  0.00    +0.000 A 
ATOM     26  C   UNL     1      -4.386  13.243  23.529  0.00  0.00    +0.000 A 
ATOM     27  C   UNL     1      -4.425  14.250  22.566  0.00  0.00    +0.000 A 
ATOM     28  C   UNL     1      -3.505  14.243  21.518  0.00  0.00    +0.000 A 
BRANCH  28  29
ATOM     29  O   UNL     1      -3.555  15.216  20.561  0.00  0.00    +0.000 OA
ATOM     30  H   UNL     1      -3.760  16.065  20.986  0.00  0.00    +0.000 HD
ENDBRANCH  28  29
ENDBRANCH  10  23
BRANCH   2  31
ATOM     31  N   UNL     1       1.986  12.073  20.643  0.00  0.00    +0.000 N 
ATOM     32  H   UNL     1       2.262  12.885  21.201  0.00  0.00    +0.000 HD
ATOM     33  H   UNL     1       2.471  11.227  20.866  0.00  0.00    +0.000 HD
ENDBRANCH   2  31
BRANCH   1  35
ATOM     34  N   UNL     1       0.840  15.052  22.256  0.00  0.00    +0.000 NA
ATOM     35  C   UNL     1       0.386  14.123  21.534  0.00  0.00    +0.000 C 
ENDBRANCH   1  35
TORSDOF 7
ENDMDL
MODEL 3
REMARK VINA RESULT:      -6.5      0.899      1.259
REMARK  Name = 
REMARK  7 active torsions:
REMARK  status: ('A' for Active; 'I' for Inactive)
REMARK    1  A    between atoms: C_2  and  C_3
REMARK    2  A    between atoms: C_4  and  N_5
REMARK    3  A    between atoms: N_6  and  C_7
REMARK    4  A    between atoms: C_10  and  S_11
REMARK    5  A    between atoms: S_11  and  N_12
REMARK    6  A    between atoms: C_23  and  C_24
REMARK    7  A    between atoms: C_29  and  O_30
REMARK                            x       y       z     vdW  Elec       q    Type
REMARK                         _______ _______ _______ _____ _____    ______ ____
ROOT
ATOM      1  C   UNL     1      -0.305  13.020  20.854  0.00  0.00    +0.000 C 
ATOM      2  C   UNL     1       0.524  12.024  20.444  0.00  0.00    +0.000 C 
ATOM      3  N   UNL     1       0.012  10.967  19.609  0.00  0.00    +0.000 N 
ATOM      4  C   UNL     1      -1.335  11.055  19.099  0.00  0.00    +0.000 C 
ATOM      5  C   UNL     1      -2.149  12.096  19.407  0.00  0.00    +0.000 C 
ATOM      6  C   UNL     1      -3.542  12.301  18.831  0.00  0.00    +0.000 C 
ATOM      7  C   UNL     1      -3.889  11.361  17.688  0.00  0.00    +0.000 C 
ATOM      8  C   UNL     1      -3.454   9.959  18.059  0.00  0.00    +0.000 C 
ATOM      9  C   UNL     1      -1.936   9.940  18.240  0.00  0.00    +0.000 C 
ATOM     10  C   UNL     1      -1.732  13.157  20.409  0.00  0.00    +0.000 C 
ENDROOT
BRANCH   3  11
ATOM     11  C   UNL     1       0.866   9.830  19.294  0.00  0.00    +0.000 A 
ATOM     12  C   UNL     1       1.519   9.715  18.048  0.00  0.00    +0.000 A 
ATOM     13  C   UNL     1       2.261   8.578  17.703  0.00  0.00    +0.000 A 
ATOM     14  C   UNL     1       2.495   7.599  18.663  0.00  0.00    +0.000 A 
ATOM     15  C   UNL     1       1.932   7.707  19.928  0.00  0.00    +0.000 A 
ATOM     16  C   UNL     1       1.073   8.775  20.201  0.00  0.00    +0.000 A 
BRANCH  14  17
ATOM     17  S   UNL     1       3.488   6.194  18.271  0.00  0.00    +0.000 S 
ATOM     18  O   UNL     1       2.648   5.159  17.699  0.00  0.00    +0.000 OA
ATOM     19  O   UNL     1       4.711   6.634  17.658  0.00  0.00    +0.000 OA
BRANCH  17  20
ATOM     20  N   UNL     1       3.893   5.655  19.808  0.00  0.00    +0.000 NA
ATOM     21  H   UNL     1       3.114   5.139  20.215  0.00  0.00    +0.000 HD
ATOM     22  H   UNL     1       4.770   5.137  19.773  0.00  0.00    +0.000 HD
ENDBRANCH  17  20
ENDBRANCH  14  17
ENDBRANCH   3  11
BRANCH  10  23
ATOM     23  C   UNL     1      -2.692  13.169  21.597  0.00  0.00    +0.000 A 
ATOM     24  C   UNL     1      -3.659  14.186  21.712  0.00  0.00    +0.000 A 
ATOM     25  C   UNL     1      -4.478  14.263  22.837  0.00  0.00    +0.000 A 
ATOM     26  C   UNL     1      -4.352  13.321  23.854  0.00  0.00    +0.000 A 
ATOM     27  C   UNL     1      -3.423  12.288  23.742  0.00  0.00    +0.000 A 
ATOM     28  C   UNL     1      -2.600  12.215  22.619  0.00  0.00    +0.000 A 
BRANCH  28  29
ATOM     29  O   UNL     1      -1.674  11.217  22.517  0.00  0.00    +0.000 OA
ATOM     30  H   UNL     1      -1.926  10.492  23.112  0.00  0.00    +0.000 HD
ENDBRANCH  28  29
ENDBRANCH  10  23
BRANCH   2  31
ATOM     31  N   UNL     1       1.863  12.139  20.819  0.00  0.00    +0.000 N 
ATOM     32  H   UNL     1       2.275  11.351  21.325  0.00  0.00    +0.000 HD
ATOM     33  H   UNL     1       2.486  12.603  20.189  0.00  0.00    +0.000 HD
ENDBRANCH   2  31
BRANCH   1  35
ATOM     34  N   UNL     1       0.638  15.034  22.524  0.00  0.00    +0.000 NA
ATOM     35  C   UNL     1       0.211  14.121  21.766  0.00  0.00    +0.000 C 
ENDBRANCH   1  35
TORSDOF 7
ENDMDL
MODEL 4
REMARK VINA RESULT:      -6.4      1.098      1.698
REMARK  Name = 
REMARK  7 active torsions:
REMARK  status: ('A' for Active; 'I' for Inactive)
REMARK    1  A    between atoms: C_2  and  C_3
REMARK    2  A    between atoms: C_4  and  N_5
REMARK    3  A    between atoms: N_6  and  C_7
REMARK    4  A    between atoms: C_10  and  S_11
REMARK    5  A    between atoms: S_11  and  N_12
REMARK    6  A    between atoms: C_23  and  C_24
REMARK    7  A    between atoms: C_29  and  O_30
REMARK                            x       y       z     vdW  Elec       q    Type
REMARK                         _______ _______ _______ _____ _____    ______ ____
ROOT
ATOM      1  C   UNL     1      -0.236  12.958  20.739  0.00  0.00    +0.000 C 
ATOM      2  C   UNL     1       0.581  11.947  20.343  0.00  0.00    +0.000 C 
ATOM      3  N   UNL     1       0.057  10.884  19.523  0.00  0.00    +0.000 N 
ATOM      4  C   UNL     1      -1.290  10.980  19.013  0.00  0.00    +0.000 C 
ATOM      5  C   UNL     1      -2.092  12.035  19.306  0.00  0.00    +0.000 C 
ATOM      6  C   UNL     1      -3.482  12.247  18.728  0.00  0.00    +0.000 C 
ATOM      7  C   UNL     1      -3.841  11.296  17.598  0.00  0.00    +0.000 C 
ATOM      8  C   UNL     1      -3.422   9.894  17.989  0.00  0.00    +0.000 C 
ATOM      9  C   UNL     1      -1.904   9.861  18.169  0.00  0.00    +0.000 C 
ATOM     10  C   UNL     1      -1.662  13.105  20.293  0.00  0.00    +0.000 C 
ENDROOT
BRANCH   3  11
ATOM     11  C   UNL     1       0.897   9.733  19.224  0.00  0.00    +0.000 A 
ATOM     12  C   UNL     1       1.115   8.708  20.170  0.00  0.00    +0.000 A 
ATOM     13  C   UNL     1       1.999   7.649  19.925  0.00  0.00    +0.000 A 
ATOM     14  C   UNL     1       2.562   7.511  18.660  0.00  0.00    +0.000 A 
ATOM     15  C   UNL     1       2.317   8.457  17.674  0.00  0.00    +0.000 A 
ATOM     16  C   UNL     1       1.552   9.584  17.988  0.00  0.00    +0.000 A 
BRANCH  14  17
ATOM     17  S   UNL     1       3.621   6.143  18.309  0.00  0.00    +0.000 S 
ATOM     18  O   UNL     1       4.426   6.450  17.142  0.00  0.00    +0.000 OA
ATOM     19  O   UNL     1       4.182   5.650  19.536  0.00  0.00    +0.000 OA
BRANCH  17  20
ATOM     20  N   UNL     1       2.501   5.000  17.803  0.00  0.00    +0.000 NA
ATOM     21  H   UNL     1       2.978   4.212  17.366  0.00  0.00    +0.000 HD
ATOM     22  H   UNL     1       1.891   4.747  18.579  0.00  0.00    +0.000 HD
ENDBRANCH  17  20
ENDBRANCH  14  17
ENDBRANCH   3  11
BRANCH  10  23
ATOM     23  C   UNL     1      -2.621  13.145  21.481  0.00  0.00    +0.000 A 
ATOM     24  C   UNL     1      -3.581  14.170  21.579  0.00  0.00    +0.000 A 
ATOM     25  C   UNL     1      -4.398  14.273  22.703  0.00  0.00    +0.000 A 
ATOM     26  C   UNL     1      -4.278  13.348  23.737  0.00  0.00    +0.000 A 
ATOM     27  C   UNL     1      -3.357  12.306  23.642  0.00  0.00    +0.000 A 
ATOM     28  C   UNL     1      -2.536  12.208  22.520  0.00  0.00    +0.000 A 
BRANCH  28  29
ATOM     29  O   UNL     1      -1.616  11.201  22.434  0.00  0.00    +0.000 OA
ATOM     30  H   UNL     1      -0.779  11.568  22.106  0.00  0.00    +0.000 HD
ENDBRANCH  28  29
ENDBRANCH  10  23
BRANCH   2  31
ATOM     31  N   UNL     1       1.921  12.051  20.716  0.00  0.00    +0.000 N 
ATOM     32  H   UNL     1       2.124  12.126  21.715  0.00  0.00    +0.000 HD
ATOM     33  H   UNL     1       2.593  11.529  20.191  0.00  0.00    +0.000 HD
ENDBRANCH   2  31
BRANCH   1  35
ATOM     34  N   UNL     1       0.731  14.984  22.380  0.00  0.00    +0.000 NA
ATOM     35  C   UNL     1       0.292  14.065  21.636  0.00  0.00    +0.000 C 
ENDBRANCH   1  35
TORSDOF 7
ENDMDL
MODEL 5
REMARK VINA RESULT:      -6.3      3.705      8.571
REMARK  Name = 
REMARK  7 active torsions:
REMARK  status: ('A' for Active; 'I' for Inactive)
REMARK    1  A    between atoms: C_2  and  C_3
REMARK    2  A    between atoms: C_4  and  N_5
REMARK    3  A    between atoms: N_6  and  C_7
REMARK    4  A    between atoms: C_10  and  S_11
REMARK    5  A    between atoms: S_11  and  N_12
REMARK    6  A    between atoms: C_23  and  C_24
REMARK    7  A    between atoms: C_29  and  O_30
REMARK                            x       y       z     vdW  Elec       q    Type
REMARK                         _______ _______ _______ _____ _____    ______ ____
ROOT
ATOM      1  C   UNL     1      -1.477  11.503  18.830  0.00  0.00    +0.000 C 
ATOM      2  C   UNL     1      -2.262  12.363  19.531  0.00  0.00    +0.000 C 
ATOM      3  N   UNL     1      -1.654  13.320  20.422  0.00  0.00    +0.000 N 
ATOM      4  C   UNL     1      -0.217  13.448  20.451  0.00  0.00    +0.000 C 
ATOM      5  C   UNL     1       0.586  12.673  19.679  0.00  0.00    +0.000 C 
ATOM      6  C   UNL     1       2.097  12.820  19.589  0.00  0.00    +0.000 C 
ATOM      7  C   UNL     1       2.645  14.068  20.263  0.00  0.00    +0.000 C 
ATOM      8  C   UNL     1       1.978  14.225  21.614  0.00  0.00    +0.000 C 
ATOM      9  C   UNL     1       0.476  14.422  21.407  0.00  0.00    +0.000 C 
ATOM     10  C   UNL     1       0.024  11.539  18.843  0.00  0.00    +0.000 C 
ENDROOT
BRANCH   3  11
ATOM     11  C   UNL     1      -2.503  14.138  21.277  0.00  0.00    +0.000 A 
ATOM     12  C   UNL     1      -2.932  13.688  22.545  0.00  0.00    +0.000 A 
ATOM     13  C   UNL     1      -3.827  14.427  23.328  0.00  0.00    +0.000 A 
ATOM     14  C   UNL     1      -4.188  15.710  22.926  0.00  0.00    +0.000 A 
ATOM     15  C   UNL     1      -3.730  16.222  21.720  0.00  0.00    +0.000 A 
ATOM     16  C   UNL     1      -2.959  15.409  20.884  0.00  0.00    +0.000 A 
BRANCH  14  17
ATOM     17  S   UNL     1      -5.257  16.686  23.935  0.00  0.00    +0.000 S 
ATOM     18  O   UNL     1      -4.613  16.937  25.211  0.00  0.00    +0.000 OA
ATOM     19  O   UNL     1      -5.841  17.729  23.138  0.00  0.00    +0.000 OA
BRANCH  17  20
ATOM     20  N   UNL     1      -6.483  15.585  24.252  0.00  0.00    +0.000 NA
ATOM     21  H   UNL     1      -7.194  16.012  24.844  0.00  0.00    +0.000 HD
ATOM     22  H   UNL     1      -6.838  15.202  23.377  0.00  0.00    +0.000 HD
ENDBRANCH  17  20
ENDBRANCH  14  17
ENDBRANCH   3  11
BRANCH  10  23
ATOM     23  C   UNL     1       0.614  10.205  19.294  0.00  0.00    +0.000 A 
ATOM     24  C   UNL     1       0.326   9.705  20.578  0.00  0.00    +0.000 A 
ATOM     25  C   UNL     1       0.931   8.538  21.039  0.00  0.00    +0.000 A 
ATOM     26  C   UNL     1       1.820   7.846  20.220  0.00  0.00    +0.000 A 
ATOM     27  C   UNL     1       2.092   8.308  18.933  0.00  0.00    +0.000 A 
ATOM     28  C   UNL     1       1.490   9.480  18.476  0.00  0.00    +0.000 A 
BRANCH  28  29
ATOM     29  O   UNL     1       1.771   9.946  17.223  0.00  0.00    +0.000 OA
ATOM     30  H   UNL     1       1.067   9.662  16.617  0.00  0.00    +0.000 HD
ENDBRANCH  28  29
ENDBRANCH  10  23
BRANCH   2  31
ATOM     31  N   UNL     1      -3.632  12.300  19.277  0.00  0.00    +0.000 N 
ATOM     32  H   UNL     1      -3.921  11.971  18.353  0.00  0.00    +0.000 HD
ATOM     33  H   UNL     1      -4.233  12.022  20.027  0.00  0.00    +0.000 HD
ENDBRANCH   2  31
BRANCH   1  35
ATOM     34  N   UNL     1      -2.625   9.602  17.157  0.00  0.00    +0.000 NA
ATOM     35  C   UNL     1      -2.105  10.464  17.915  0.00  0.00    +0.000 C 
ENDBRANCH   1  35
TORSDOF 7
ENDMDL
MODEL 6
REMARK VINA RESULT:      -6.3      9.005     11.331
REMARK  Name = 
REMARK  7 active torsions:
REMARK  status: ('A' for Active; 'I' for Inactive)
REMARK    1  A    between atoms: C_2  and  C_3
REMARK    2  A    between atoms: C_4  and  N_5
REMARK    3  A    between atoms: N_6  and  C_7
REMARK    4  A    between atoms: C_10  and  S_11
REMARK    5  A    between atoms: S_11  and  N_12
REMARK    6  A    between atoms: C_23  and  C_24
REMARK    7  A    between atoms: C_29  and  O_30
REMARK                            x       y       z     vdW  Elec       q    Type
REMARK                         _______ _______ _______ _____ _____    ______ ____
ROOT
ATOM      1  C   UNL     1       9.154  12.702  20.565  0.00  0.00    +0.000 C 
ATOM      2  C   UNL     1       8.621  12.168  21.695  0.00  0.00    +0.000 C 
ATOM      3  N   UNL     1       7.660  12.924  22.458  0.00  0.00    +0.000 N 
ATOM      4  C   UNL     1       7.169  14.177  21.937  0.00  0.00    +0.000 C 
ATOM      5  C   UNL     1       7.607  14.681  20.756  0.00  0.00    +0.000 C 
ATOM      6  C   UNL     1       7.064  15.943  20.104  0.00  0.00    +0.000 C 
ATOM      7  C   UNL     1       5.812  16.499  20.764  0.00  0.00    +0.000 C 
ATOM      8  C   UNL     1       6.003  16.481  22.266  0.00  0.00    +0.000 C 
ATOM      9  C   UNL     1       6.177  15.034  22.728  0.00  0.00    +0.000 C 
ATOM     10  C   UNL     1       8.733  14.021  19.983  0.00  0.00    +0.000 C 
ENDROOT
BRANCH   3  11
ATOM     11  C   UNL     1       7.204  12.408  23.741  0.00  0.00    +0.000 A 
ATOM     12  C   UNL     1       7.866  12.727  24.947  0.00  0.00    +0.000 A 
ATOM     13  C   UNL     1       7.492  12.156  26.170  0.00  0.00    +0.000 A 
ATOM     14  C   UNL     1       6.342  11.375  26.235  0.00  0.00    +0.000 A 
ATOM     15  C   UNL     1       5.617  11.096  25.085  0.00  0.00    +0.000 A 
ATOM     16  C   UNL     1       6.093  11.552  23.852  0.00  0.00    +0.000 A 
BRANCH  14  17
ATOM     17  S   UNL     1       5.812  10.707  27.780  0.00  0.00    +0.000 S 
ATOM     18  O   UNL     1       6.944  10.091  28.447  0.00  0.00    +0.000 OA
ATOM     19  O   UNL     1       4.940  11.646  28.429  0.00  0.00    +0.000 OA
BRANCH  17  20
ATOM     20  N   UNL     1       4.844   9.439  27.259  0.00  0.00    +0.000 NA
ATOM     21  H   UNL     1       4.036   9.799  26.754  0.00  0.00    +0.000 HD
ATOM     22  H   UNL     1       5.406   8.768  26.736  0.00  0.00    +0.000 HD
ENDBRANCH  17  20
ENDBRANCH  14  17
ENDBRANCH   3  11
BRANCH  10  23
ATOM     23  C   UNL     1       9.915  14.979  19.849  0.00  0.00    +0.000 A 
ATOM     24  C   UNL     1      10.570  15.457  20.999  0.00  0.00    +0.000 A 
ATOM     25  C   UNL     1      11.588  16.403  20.896  0.00  0.00    +0.000 A 
ATOM     26  C   UNL     1      11.975  16.874  19.644  0.00  0.00    +0.000 A 
ATOM     27  C   UNL     1      11.361  16.386  18.491  0.00  0.00    +0.000 A 
ATOM     28  C   UNL     1      10.339  15.444  18.597  0.00  0.00    +0.000 A 
BRANCH  28  29
ATOM     29  O   UNL     1       9.720  14.982  17.470  0.00  0.00    +0.000 OA
ATOM     30  H   UNL     1      10.054  14.091  17.272  0.00  0.00    +0.000 HD
ENDBRANCH  28  29
ENDBRANCH  10  23
BRANCH   2  31
ATOM     31  N   UNL     1       9.005  10.863  22.004  0.00  0.00    +0.000 N 
ATOM     32  H   UNL     1      10.001  10.694  22.163  0.00  0.00    +0.000 HD
ATOM     33  H   UNL     1       8.392  10.320  22.578  0.00  0.00    +0.000 HD
ENDBRANCH   2  31
BRANCH   1  35
ATOM     34  N   UNL     1      11.063  11.296  19.111  0.00  0.00    +0.000 NA
ATOM     35  C   UNL     1      10.197  11.933  19.770  0.00  0.00    +0.000 C 
ENDBRANCH   1  35
TORSDOF 7
ENDMDL
MODEL 7
REMARK VINA RESULT:      -6.3      9.280     11.818
REMARK  Name = 
REMARK  7 active torsions:
REMARK  status: ('A' for Active; 'I' for Inactive)
REMARK    1  A    between atoms: C_2  and  C_3
REMARK    2  A    between atoms: C_4  and  N_5
REMARK    3  A    between atoms: N_6  and  C_7
REMARK    4  A    between atoms: C_10  and  S_11
REMARK    5  A    between atoms: S_11  and  N_12
REMARK    6  A    between atoms: C_23  and  C_24
REMARK    7  A    between atoms: C_29  and  O_30
REMARK                            x       y       z     vdW  Elec       q    Type
REMARK                         _______ _______ _______ _____ _____    ______ ____
ROOT
ATOM      1  C   UNL     1      10.047  12.985  19.755  0.00  0.00    +0.000 C 
ATOM      2  C   UNL     1       9.457  12.632  20.927  0.00  0.00    +0.000 C 
ATOM      3  N   UNL     1       8.309  13.364  21.399  0.00  0.00    +0.000 N 
ATOM      4  C   UNL     1       7.713  14.371  20.553  0.00  0.00    +0.000 C 
ATOM      5  C   UNL     1       8.220  14.667  19.329  0.00  0.00    +0.000 C 
ATOM      6  C   UNL     1       7.589  15.644  18.349  0.00  0.00    +0.000 C 
ATOM      7  C   UNL     1       6.197  16.112  18.743  0.00  0.00    +0.000 C 
ATOM      8  C   UNL     1       6.198  16.459  20.217  0.00  0.00    +0.000 C 
ATOM      9  C   UNL     1       6.517  15.200  21.025  0.00  0.00    +0.000 C 
ATOM     10  C   UNL     1       9.518  14.052  18.840  0.00  0.00    +0.000 C 
ENDROOT
BRANCH   3  11
ATOM     11  C   UNL     1       7.773  13.075  22.721  0.00  0.00    +0.000 A 
ATOM     12  C   UNL     1       6.741  12.130  22.913  0.00  0.00    +0.000 A 
ATOM     13  C   UNL     1       6.154  11.920  24.167  0.00  0.00    +0.000 A 
ATOM     14  C   UNL     1       6.699  12.538  25.288  0.00  0.00    +0.000 A 
ATOM     15  C   UNL     1       7.763  13.420  25.156  0.00  0.00    +0.000 A 
ATOM     16  C   UNL     1       8.235  13.730  23.877  0.00  0.00    +0.000 A 
BRANCH  14  17
ATOM     17  S   UNL     1       6.019  12.229  26.887  0.00  0.00    +0.000 S 
ATOM     18  O   UNL     1       7.013  12.542  27.897  0.00  0.00    +0.000 OA
ATOM     19  O   UNL     1       4.673  12.728  26.935  0.00  0.00    +0.000 OA
BRANCH  17  20
ATOM     20  N   UNL     1       5.906  10.555  26.862  0.00  0.00    +0.000 NA
ATOM     21  H   UNL     1       5.912  10.217  25.901  0.00  0.00    +0.000 HD
ATOM     22  H   UNL     1       6.628  10.151  27.457  0.00  0.00    +0.000 HD
ENDBRANCH  17  20
ENDBRANCH  14  17
ENDBRANCH   3  11
BRANCH  10  23
ATOM     23  C   UNL     1      10.558  15.142  18.588  0.00  0.00    +0.000 A 
ATOM     24  C   UNL     1      10.892  16.049  19.611  0.00  0.00    +0.000 A 
ATOM     25  C   UNL     1      11.768  17.104  19.368  0.00  0.00    +0.000 A 
ATOM     26  C   UNL     1      12.333  17.261  18.105  0.00  0.00    +0.000 A 
ATOM     27  C   UNL     1      12.041  16.352  17.088  0.00  0.00    +0.000 A 
ATOM     28  C   UNL     1      11.159  15.300  17.332  0.00  0.00    +0.000 A 
BRANCH  28  29
ATOM     29  O   UNL     1      10.854  14.422  16.332  0.00  0.00    +0.000 OA
ATOM     30  H   UNL     1      11.598  14.384  15.709  0.00  0.00    +0.000 HD
ENDBRANCH  28  29
ENDBRANCH  10  23
BRANCH   2  31
ATOM     31  N   UNL     1       9.982  11.511  21.571  0.00  0.00    +0.000 N 
ATOM     32  H   UNL     1      10.752  11.023  21.107  0.00  0.00    +0.000 HD
ATOM     33  H   UNL     1      10.040  11.531  22.569  0.00  0.00    +0.000 HD
ENDBRANCH   2  31
BRANCH   1  35
ATOM     34  N   UNL     1      12.305  11.634  18.855  0.00  0.00    +0.000 NA
ATOM     35  C   UNL     1      11.281  12.247  19.263  0.00  0.00    +0.000 C 
ENDBRANCH   1  35
TORSDOF 7
ENDMDL
MODEL 8
REMARK VINA RESULT:      -6.3      9.332     11.879
REMARK  Name = 
REMARK  7 active torsions:
REMARK  status: ('A' for Active; 'I' for Inactive)
REMARK    1  A    between atoms: C_2  and  C_3
REMARK    2  A    between atoms: C_4  and  N_5
REMARK    3  A    between atoms: N_6  and  C_7
REMARK    4  A    between atoms: C_10  and  S_11
REMARK    5  A    between atoms: S_11  and  N_12
REMARK    6  A    between atoms: C_23  and  C_24
REMARK    7  A    between atoms: C_29  and  O_30
REMARK                            x       y       z     vdW  Elec       q    Type
REMARK                         _______ _______ _______ _____ _____    ______ ____
ROOT
ATOM      1  C   UNL     1      10.068  12.974  19.745  0.00  0.00    +0.000 C 
ATOM      2  C   UNL     1       9.510  12.610  20.930  0.00  0.00    +0.000 C 
ATOM      3  N   UNL     1       8.381  13.344  21.443  0.00  0.00    +0.000 N 
ATOM      4  C   UNL     1       7.767  14.363  20.626  0.00  0.00    +0.000 C 
ATOM      5  C   UNL     1       8.240  14.672  19.392  0.00  0.00    +0.000 C 
ATOM      6  C   UNL     1       7.588  15.663  18.442  0.00  0.00    +0.000 C 
ATOM      7  C   UNL     1       6.211  16.135  18.880  0.00  0.00    +0.000 C 
ATOM      8  C   UNL     1       6.255  16.465  20.358  0.00  0.00    +0.000 C 
ATOM      9  C   UNL     1       6.590  15.195  21.141  0.00  0.00    +0.000 C 
ATOM     10  C   UNL     1       9.520  14.055  18.859  0.00  0.00    +0.000 C 
ENDROOT
BRANCH   3  11
ATOM     11  C   UNL     1       7.880  13.043  22.777  0.00  0.00    +0.000 A 
ATOM     12  C   UNL     1       8.365  13.716  23.920  0.00  0.00    +0.000 A 
ATOM     13  C   UNL     1       7.960  13.363  25.213  0.00  0.00    +0.000 A 
ATOM     14  C   UNL     1       6.938  12.432  25.379  0.00  0.00    +0.000 A 
ATOM     15  C   UNL     1       6.381  11.799  24.276  0.00  0.00    +0.000 A 
ATOM     16  C   UNL     1       6.904  12.057  23.006  0.00  0.00    +0.000 A 
BRANCH  14  17
ATOM     17  S   UNL     1       6.363  12.028  26.997  0.00  0.00    +0.000 S 
ATOM     18  O   UNL     1       5.328  12.967  27.385  0.00  0.00    +0.000 OA
ATOM     19  O   UNL     1       6.203  10.604  27.101  0.00  0.00    +0.000 OA
BRANCH  17  20
ATOM     20  N   UNL     1       7.709  12.425  27.918  0.00  0.00    +0.000 NA
ATOM     21  H   UNL     1       8.267  13.128  27.437  0.00  0.00    +0.000 HD
ATOM     22  H   UNL     1       7.418  12.687  28.859  0.00  0.00    +0.000 HD
ENDBRANCH  17  20
ENDBRANCH  14  17
ENDBRANCH   3  11
BRANCH  10  23
ATOM     23  C   UNL     1      10.559  15.141  18.589  0.00  0.00    +0.000 A 
ATOM     24  C   UNL     1      10.885  16.071  19.595  0.00  0.00    +0.000 A 
ATOM     25  C   UNL     1      11.760  17.122  19.334  0.00  0.00    +0.000 A 
ATOM     26  C   UNL     1      12.333  17.253  18.071  0.00  0.00    +0.000 A 
ATOM     27  C   UNL     1      12.049  16.322  17.073  0.00  0.00    +0.000 A 
ATOM     28  C   UNL     1      11.168  15.274  17.334  0.00  0.00    +0.000 A 
BRANCH  28  29
ATOM     29  O   UNL     1      10.870  14.373  16.351  0.00  0.00    +0.000 OA
ATOM     30  H   UNL     1       9.976  14.027  16.503  0.00  0.00    +0.000 HD
ENDBRANCH  28  29
ENDBRANCH  10  23
BRANCH   2  31
ATOM     31  N   UNL     1      10.046  11.479  21.546  0.00  0.00    +0.000 N 
ATOM     32  H   UNL     1       9.441  10.657  21.620  0.00  0.00    +0.000 HD
ATOM     33  H   UNL     1      11.012  11.274  21.387  0.00  0.00    +0.000 HD
ENDBRANCH   2  31
BRANCH   1  35
ATOM     34  N   UNL     1      12.291  11.620  18.766  0.00  0.00    +0.000 NA
ATOM     35  C   UNL     1      11.283  12.234  19.210  0.00  0.00    +0.000 C 
ENDBRANCH   1  35
TORSDOF 7
ENDMDL
MODEL 9
REMARK VINA RESULT:      -6.1      3.750      8.578
REMARK  Name = 
REMARK  7 active torsions:
REMARK  status: ('A' for Active; 'I' for Inactive)
REMARK    1  A    between atoms: C_2  and  C_3
REMARK    2  A    between atoms: C_4  and  N_5
REMARK    3  A    between atoms: N_6  and  C_7
REMARK    4  A    between atoms: C_10  and  S_11
REMARK    5  A    between atoms: S_11  and  N_12
REMARK    6  A    between atoms: C_23  and  C_24
REMARK    7  A    between atoms: C_29  and  O_30
REMARK                            x       y       z     vdW  Elec       q    Type
REMARK                         _______ _______ _______ _____ _____    ______ ____
ROOT
ATOM      1  C   UNL     1      -1.569  11.556  18.889  0.00  0.00    +0.000 C 
ATOM      2  C   UNL     1      -2.356  12.432  19.567  0.00  0.00    +0.000 C 
ATOM      3  N   UNL     1      -1.752  13.404  20.443  0.00  0.00    +0.000 N 
ATOM      4  C   UNL     1      -0.314  13.531  20.478  0.00  0.00    +0.000 C 
ATOM      5  C   UNL     1       0.491  12.739  19.726  0.00  0.00    +0.000 C 
ATOM      6  C   UNL     1       2.003  12.881  19.642  0.00  0.00    +0.000 C 
ATOM      7  C   UNL     1       2.550  14.141  20.294  0.00  0.00    +0.000 C 
ATOM      8  C   UNL     1       1.875  14.326  21.638  0.00  0.00    +0.000 C 
ATOM      9  C   UNL     1       0.375  14.522  21.419  0.00  0.00    +0.000 C 
ATOM     10  C   UNL     1      -0.068  11.589  18.909  0.00  0.00    +0.000 C 
ENDROOT
BRANCH   3  11
ATOM     11  C   UNL     1      -2.604  14.241  21.276  0.00  0.00    +0.000 A 
ATOM     12  C   UNL     1      -3.000  15.534  20.869  0.00  0.00    +0.000 A 
ATOM     13  C   UNL     1      -3.737  16.380  21.707  0.00  0.00    +0.000 A 
ATOM     14  C   UNL     1      -4.230  15.888  22.911  0.00  0.00    +0.000 A 
ATOM     15  C   UNL     1      -3.926  14.596  23.319  0.00  0.00    +0.000 A 
ATOM     16  C   UNL     1      -3.065  13.820  22.537  0.00  0.00    +0.000 A 
BRANCH  14  17
ATOM     17  S   UNL     1      -5.222  16.916  23.948  0.00  0.00    +0.000 S 
ATOM     18  O   UNL     1      -6.620  16.587  23.748  0.00  0.00    +0.000 OA
ATOM     19  O   UNL     1      -4.618  17.001  25.249  0.00  0.00    +0.000 OA
BRANCH  17  20
ATOM     20  N   UNL     1      -4.996  18.410  23.218  0.00  0.00    +0.000 NA
ATOM     21  H   UNL     1      -5.893  18.873  23.081  0.00  0.00    +0.000 HD
ATOM     22  H   UNL     1      -4.317  18.954  23.749  0.00  0.00    +0.000 HD
ENDBRANCH  17  20
ENDBRANCH  14  17
ENDBRANCH   3  11
BRANCH  10  23
ATOM     23  C   UNL     1       0.516  10.263  19.391  0.00  0.00    +0.000 A 
ATOM     24  C   UNL     1       0.237   9.800  20.690  0.00  0.00    +0.000 A 
ATOM     25  C   UNL     1       0.837   8.640  21.176  0.00  0.00    +0.000 A 
ATOM     26  C   UNL     1       1.714   7.921  20.368  0.00  0.00    +0.000 A 
ATOM     27  C   UNL     1       1.977   8.346  19.066  0.00  0.00    +0.000 A 
ATOM     28  C   UNL     1       1.379   9.510  18.584  0.00  0.00    +0.000 A 
BRANCH  28  29
ATOM     29  O   UNL     1       1.653   9.941  17.317  0.00  0.00    +0.000 OA
ATOM     30  H   UNL     1       2.524   9.603  17.051  0.00  0.00    +0.000 HD
ENDBRANCH  28  29
ENDBRANCH  10  23
BRANCH   2  31
ATOM     31  N   UNL     1      -3.725  12.365  19.307  0.00  0.00    +0.000 N 
ATOM     32  H   UNL     1      -4.138  11.435  19.211  0.00  0.00    +0.000 HD
ATOM     33  H   UNL     1      -4.316  13.042  19.745  0.00  0.00    +0.000 HD
ENDBRANCH   2  31
BRANCH   1  35
ATOM     34  N   UNL     1      -2.712   9.624  17.247  0.00  0.00    +0.000 NA
ATOM     35  C   UNL     1      -2.194  10.500  17.991  0.00  0.00    +0.000 C 
ENDBRANCH   1  35
TORSDOF 7
ENDMDL
