MODEL 1
REMARK VINA RESULT:      -7.9      0.000      0.000
REMARK  Name = 
REMARK  10 active torsions:
REMARK  status: ('A' for Active; 'I' for Inactive)
REMARK    1  A    between atoms: C_1  and  O_2
REMARK    2  A    between atoms: O_2  and  C_3
REMARK    3  A    between atoms: C_6  and  C_7
REMARK    4  A    between atoms: C_7  and  C_8
REMARK    5  A    between atoms: N_10  and  C_11
REMARK    6  A    between atoms: C_11  and  C_12
REMARK    7  A    between atoms: C_12  and  C_13
REMARK    8  A    between atoms: C_16  and  C_17
REMARK    9  A    between atoms: C_20  and  O_21
REMARK   10  A    between atoms: O_21  and  C_22
REMARK                            x       y       z     vdW  Elec       q    Type
REMARK                         _______ _______ _______ _____ _____    ______ ____
ROOT
ATOM      1  C   UNL     1       7.883   5.789  19.005  0.00  0.00    +0.000 C 
ENDROOT
BRANCH   1   2
ATOM      2  C   UNL     1       7.962   7.155  18.425  0.00  0.00    +0.000 A 
ATOM      3  N   UNL     1       7.312   7.516  17.313  0.00  0.00    +0.000 NA
ATOM      4  N   UNL     1       7.647   8.811  17.214  0.00  0.00    +0.000 N 
ATOM      5  C   UNL     1       8.472   9.206  18.233  0.00  0.00    +0.000 A 
ATOM      6  N   UNL     1       8.709   8.153  18.996  0.00  0.00    +0.000 NA
ATOM      7  H   UNL     1       7.297   9.357  16.437  0.00  0.00    +0.000 HD
BRANCH   5   8
ATOM      8  C   UNL     1       9.005  10.555  18.403  0.00  0.00    +0.000 A 
ATOM      9  C   UNL     1      10.071  10.834  19.269  0.00  0.00    +0.000 A 
ATOM     10  C   UNL     1      10.556  12.140  19.395  0.00  0.00    +0.000 A 
ATOM     11  C   UNL     1      10.001  13.182  18.651  0.00  0.00    +0.000 A 
ATOM     12  C   UNL     1       8.934  12.916  17.796  0.00  0.00    +0.000 A 
ATOM     13  C   UNL     1       8.447  11.611  17.669  0.00  0.00    +0.000 A 
BRANCH  11  14
ATOM     14  O   UNL     1      10.554  14.414  18.866  0.00  0.00    +0.000 OA
ATOM     15  C   UNL     1       9.639  15.504  18.868  0.00  0.00    +0.000 C 
ENDBRANCH  11  14
ENDBRANCH   5   8
ENDBRANCH   1   2
BRANCH   1  16
ATOM     16  C   UNL     1       7.613   4.736  17.931  0.00  0.00    +0.000 C 
BRANCH  16  19
ATOM     17  C   UNL     1       5.840   4.214  16.281  0.00  0.00    +0.000 C 
ATOM     18  O   UNL     1       6.647   3.787  15.458  0.00  0.00    +0.000 OA
ATOM     19  N   UNL     1       6.213   4.691  17.522  0.00  0.00    +0.000 N 
ATOM     20  H   UNL     1       5.517   5.094  18.132  0.00  0.00    +0.000 HD
BRANCH  17  21
ATOM     21  C   UNL     1       4.345   4.241  16.007  0.00  0.00    +0.000 C 
BRANCH  21  25
ATOM     22  C   UNL     1       1.965   2.863  19.354  0.00  0.00    +0.000 A 
ATOM     23  C   UNL     1       2.836   1.992  18.700  0.00  0.00    +0.000 A 
ATOM     24  C   UNL     1       3.608   2.430  17.620  0.00  0.00    +0.000 A 
ATOM     25  C   UNL     1       3.499   3.748  17.157  0.00  0.00    +0.000 A 
ATOM     26  C   UNL     1       2.624   4.620  17.819  0.00  0.00    +0.000 A 
ATOM     27  C   UNL     1       1.859   4.180  18.908  0.00  0.00    +0.000 A 
BRANCH  22  29
ATOM     28  C   UNL     1       1.563   2.790  21.688  0.00  0.00    +0.000 C 
ATOM     29  O   UNL     1       1.253   2.313  20.385  0.00  0.00    +0.000 OA
ENDBRANCH  22  29
ENDBRANCH  21  25
ENDBRANCH  17  21
ENDBRANCH  16  19
ENDBRANCH   1  16
TORSDOF 8
ENDMDL
MODEL 2
REMARK VINA RESULT:      -7.8      0.892      1.512
REMARK  Name = 
REMARK  10 active torsions:
REMARK  status: ('A' for Active; 'I' for Inactive)
REMARK    1  A    between atoms: C_1  and  O_2
REMARK    2  A    between atoms: O_2  and  C_3
REMARK    3  A    between atoms: C_6  and  C_7
REMARK    4  A    between atoms: C_7  and  C_8
REMARK    5  A    between atoms: N_10  and  C_11
REMARK    6  A    between atoms: C_11  and  C_12
REMARK    7  A    between atoms: C_12  and  C_13
REMARK    8  A    between atoms: C_16  and  C_17
REMARK    9  A    between atoms: C_20  and  O_21
REMARK   10  A    between atoms: O_21  and  C_22
REMARK                            x       y       z     vdW  Elec       q    Type
REMARK                         _______ _______ _______ _____ _____    ______ ____
ROOT
ATOM      1  C   UNL     1       7.523   5.627  18.594  0.00  0.00    +0.000 C 
ENDROOT
BRANCH   1   2
ATOM      2  C   UNL     1       7.808   7.039  18.228  0.00  0.00    +0.000 A 
ATOM      3  N   UNL     1       7.348   7.611  17.111  0.00  0.00    +0.000 NA
ATOM      4  N   UNL     1       7.815   8.862  17.237  0.00  0.00    +0.000 N 
ATOM      5  C   UNL     1       8.532   9.026  18.393  0.00  0.00    +0.000 A 
ATOM      6  N   UNL     1       8.564   7.864  19.020  0.00  0.00    +0.000 NA
ATOM      7  H   UNL     1       7.624   9.539  16.510  0.00  0.00    +0.000 HD
BRANCH   5   8
ATOM      8  C   UNL     1       9.163  10.274  18.815  0.00  0.00    +0.000 A 
ATOM      9  C   UNL     1       9.494  11.288  17.907  0.00  0.00    +0.000 A 
ATOM     10  C   UNL     1      10.090  12.472  18.355  0.00  0.00    +0.000 A 
ATOM     11  C   UNL     1      10.348  12.671  19.712  0.00  0.00    +0.000 A 
ATOM     12  C   UNL     1      10.031  11.664  20.622  0.00  0.00    +0.000 A 
ATOM     13  C   UNL     1       9.436  10.479  20.174  0.00  0.00    +0.000 A 
BRANCH  11  14
ATOM     14  O   UNL     1      10.939  13.863  20.027  0.00  0.00    +0.000 OA
ATOM     15  C   UNL     1      11.744  14.437  19.002  0.00  0.00    +0.000 C 
ENDBRANCH  11  14
ENDBRANCH   5   8
ENDBRANCH   1   2
BRANCH   1  16
ATOM     16  C   UNL     1       7.575   4.708  17.374  0.00  0.00    +0.000 C 
BRANCH  16  19
ATOM     17  C   UNL     1       5.500   4.534  16.034  0.00  0.00    +0.000 C 
ATOM     18  O   UNL     1       5.832   5.454  15.288  0.00  0.00    +0.000 OA
ATOM     19  N   UNL     1       6.288   4.090  17.076  0.00  0.00    +0.000 N 
ATOM     20  H   UNL     1       5.937   3.378  17.699  0.00  0.00    +0.000 HD
BRANCH  17  21
ATOM     21  C   UNL     1       4.186   3.790  15.860  0.00  0.00    +0.000 C 
BRANCH  21  25
ATOM     22  C   UNL     1       1.882   3.274  19.493  0.00  0.00    +0.000 A 
ATOM     23  C   UNL     1       2.270   4.548  19.076  0.00  0.00    +0.000 A 
ATOM     24  C   UNL     1       3.012   4.721  17.904  0.00  0.00    +0.000 A 
ATOM     25  C   UNL     1       3.404   3.615  17.141  0.00  0.00    +0.000 A 
ATOM     26  C   UNL     1       3.010   2.337  17.563  0.00  0.00    +0.000 A 
ATOM     27  C   UNL     1       2.257   2.167  18.732  0.00  0.00    +0.000 A 
BRANCH  22  29
ATOM     28  C   UNL     1       1.934   3.290  21.861  0.00  0.00    +0.000 C 
ATOM     29  O   UNL     1       1.173   3.233  20.662  0.00  0.00    +0.000 OA
ENDBRANCH  22  29
ENDBRANCH  21  25
ENDBRANCH  17  21
ENDBRANCH  16  19
ENDBRANCH   1  16
TORSDOF 8
ENDMDL
MODEL 3
REMARK VINA RESULT:      -7.8      4.077      6.952
REMARK  Name = 
REMARK  10 active torsions:
REMARK  status: ('A' for Active; 'I' for Inactive)
REMARK    1  A    between atoms: C_1  and  O_2
REMARK    2  A    between atoms: O_2  and  C_3
REMARK    3  A    between atoms: C_6  and  C_7
REMARK    4  A    between atoms: C_7  and  C_8
REMARK    5  A    between atoms: N_10  and  C_11
REMARK    6  A    between atoms: C_11  and  C_12
REMARK    7  A    between atoms: C_12  and  C_13
REMARK    8  A    between atoms: C_16  and  C_17
REMARK    9  A    between atoms: C_20  and  O_21
REMARK   10  A    between atoms: O_21  and  C_22
REMARK                            x       y       z     vdW  Elec       q    Type
REMARK                         _______ _______ _______ _____ _____    ______ ____
ROOT
ATOM      1  C   UNL     1       1.884   3.243  21.058  0.00  0.00    +0.000 C 
ENDROOT
BRANCH   1   2
ATOM      2  C   UNL     1       2.303   4.604  20.634  0.00  0.00    +0.000 A 
ATOM      3  N   UNL     1       3.560   4.909  20.294  0.00  0.00    +0.000 NA
ATOM      4  N   UNL     1       3.441   6.201  19.954  0.00  0.00    +0.000 N 
ATOM      5  C   UNL     1       2.154   6.649  20.091  0.00  0.00    +0.000 A 
ATOM      6  N   UNL     1       1.423   5.652  20.554  0.00  0.00    +0.000 NA
ATOM      7  H   UNL     1       4.261   6.713  19.655  0.00  0.00    +0.000 HD
BRANCH   5   8
ATOM      8  C   UNL     1       1.706   8.008  19.795  0.00  0.00    +0.000 A 
ATOM      9  C   UNL     1       1.973   8.632  18.569  0.00  0.00    +0.000 A 
ATOM     10  C   UNL     1       1.518   9.932  18.324  0.00  0.00    +0.000 A 
ATOM     11  C   UNL     1       0.778  10.621  19.285  0.00  0.00    +0.000 A 
ATOM     12  C   UNL     1       0.516  10.013  20.511  0.00  0.00    +0.000 A 
ATOM     13  C   UNL     1       0.972   8.713  20.758  0.00  0.00    +0.000 A 
BRANCH  11  14
ATOM     14  O   UNL     1       0.396  11.886  18.933  0.00  0.00    +0.000 OA
ATOM     15  C   UNL     1       1.439  12.732  18.460  0.00  0.00    +0.000 C 
ENDBRANCH  11  14
ENDBRANCH   5   8
ENDBRANCH   1   2
BRANCH   1  16
ATOM     16  C   UNL     1       1.338   2.430  19.885  0.00  0.00    +0.000 C 
BRANCH  16  19
ATOM     17  C   UNL     1       2.828   2.532  17.909  0.00  0.00    +0.000 C 
ATOM     18  O   UNL     1       3.554   1.637  18.334  0.00  0.00    +0.000 OA
ATOM     19  N   UNL     1       1.715   2.984  18.588  0.00  0.00    +0.000 N 
ATOM     20  H   UNL     1       1.193   3.768  18.227  0.00  0.00    +0.000 HD
BRANCH  17  21
ATOM     21  C   UNL     1       3.087   3.216  16.576  0.00  0.00    +0.000 C 
BRANCH  21  25
ATOM     22  C   UNL     1       6.627   5.714  16.607  0.00  0.00    +0.000 A 
ATOM     23  C   UNL     1       5.419   6.193  17.114  0.00  0.00    +0.000 A 
ATOM     24  C   UNL     1       4.273   5.392  17.109  0.00  0.00    +0.000 A 
ATOM     25  C   UNL     1       4.312   4.101  16.567  0.00  0.00    +0.000 A 
ATOM     26  C   UNL     1       5.528   3.624  16.060  0.00  0.00    +0.000 A 
ATOM     27  C   UNL     1       6.677   4.425  16.076  0.00  0.00    +0.000 A 
BRANCH  22  29
ATOM     28  C   UNL     1       7.421   7.832  17.312  0.00  0.00    +0.000 C 
ATOM     29  O   UNL     1       7.671   6.597  16.654  0.00  0.00    +0.000 OA
ENDBRANCH  22  29
ENDBRANCH  21  25
ENDBRANCH  17  21
ENDBRANCH  16  19
ENDBRANCH   1  16
TORSDOF 8
ENDMDL
MODEL 4
REMARK VINA RESULT:      -7.6      1.592      2.109
REMARK  Name = 
REMARK  10 active torsions:
REMARK  status: ('A' for Active; 'I' for Inactive)
REMARK    1  A    between atoms: C_1  and  O_2
REMARK    2  A    between atoms: O_2  and  C_3
REMARK    3  A    between atoms: C_6  and  C_7
REMARK    4  A    between atoms: C_7  and  C_8
REMARK    5  A    between atoms: N_10  and  C_11
REMARK    6  A    between atoms: C_11  and  C_12
REMARK    7  A    between atoms: C_12  and  C_13
REMARK    8  A    between atoms: C_16  and  C_17
REMARK    9  A    between atoms: C_20  and  O_21
REMARK   10  A    between atoms: O_21  and  C_22
REMARK                            x       y       z     vdW  Elec       q    Type
REMARK                         _______ _______ _______ _____ _____    ______ ____
ROOT
ATOM      1  C   UNL     1       7.883   5.678  18.860  0.00  0.00    +0.000 C 
ENDROOT
BRANCH   1   2
ATOM      2  C   UNL     1       7.948   7.071  18.346  0.00  0.00    +0.000 A 
ATOM      3  N   UNL     1       7.268   7.486  17.272  0.00  0.00    +0.000 NA
ATOM      4  N   UNL     1       7.602   8.784  17.227  0.00  0.00    +0.000 N 
ATOM      5  C   UNL     1       8.456   9.128  18.241  0.00  0.00    +0.000 A 
ATOM      6  N   UNL     1       8.712   8.039  18.944  0.00  0.00    +0.000 NA
ATOM      7  H   UNL     1       7.232   9.367  16.487  0.00  0.00    +0.000 HD
BRANCH   5   8
ATOM      8  C   UNL     1       8.995  10.467  18.463  0.00  0.00    +0.000 A 
ATOM      9  C   UNL     1      10.012  10.719  19.393  0.00  0.00    +0.000 A 
ATOM     10  C   UNL     1      10.505  12.017  19.568  0.00  0.00    +0.000 A 
ATOM     11  C   UNL     1      10.008  13.077  18.808  0.00  0.00    +0.000 A 
ATOM     12  C   UNL     1       8.990  12.838  17.887  0.00  0.00    +0.000 A 
ATOM     13  C   UNL     1       8.495  11.541  17.713  0.00  0.00    +0.000 A 
BRANCH  11  14
ATOM     14  O   UNL     1      10.563  14.297  19.074  0.00  0.00    +0.000 OA
ATOM     15  C   UNL     1      10.498  14.718  20.433  0.00  0.00    +0.000 C 
ENDBRANCH  11  14
ENDBRANCH   5   8
ENDBRANCH   1   2
BRANCH   1  16
ATOM     16  C   UNL     1       7.411   4.702  17.783  0.00  0.00    +0.000 C 
BRANCH  16  19
ATOM     17  C   UNL     1       5.291   3.999  16.712  0.00  0.00    +0.000 C 
ATOM     18  O   UNL     1       5.849   3.716  15.654  0.00  0.00    +0.000 OA
ATOM     19  N   UNL     1       5.969   4.479  17.814  0.00  0.00    +0.000 N 
ATOM     20  H   UNL     1       5.454   4.760  18.635  0.00  0.00    +0.000 HD
BRANCH  17  21
ATOM     21  C   UNL     1       3.793   3.829  16.905  0.00  0.00    +0.000 C 
BRANCH  21  25
ATOM     22  C   UNL     1       2.058   6.275  20.032  0.00  0.00    +0.000 A 
ATOM     23  C   UNL     1       2.493   6.855  18.840  0.00  0.00    +0.000 A 
ATOM     24  C   UNL     1       3.052   6.071  17.827  0.00  0.00    +0.000 A 
ATOM     25  C   UNL     1       3.212   4.691  18.002  0.00  0.00    +0.000 A 
ATOM     26  C   UNL     1       2.772   4.113  19.201  0.00  0.00    +0.000 A 
ATOM     27  C   UNL     1       2.202   4.899  20.211  0.00  0.00    +0.000 A 
BRANCH  22  29
ATOM     28  C   UNL     1       1.298   8.471  20.495  0.00  0.00    +0.000 C 
ATOM     29  O   UNL     1       1.544   7.147  20.952  0.00  0.00    +0.000 OA
ENDBRANCH  22  29
ENDBRANCH  21  25
ENDBRANCH  17  21
ENDBRANCH  16  19
ENDBRANCH   1  16
TORSDOF 8
ENDMDL
MODEL 5
REMARK VINA RESULT:      -7.5      3.963      7.019
REMARK  Name = 
REMARK  10 active torsions:
REMARK  status: ('A' for Active; 'I' for Inactive)
REMARK    1  A    between atoms: C_1  and  O_2
REMARK    2  A    between atoms: O_2  and  C_3
REMARK    3  A    between atoms: C_6  and  C_7
REMARK    4  A    between atoms: C_7  and  C_8
REMARK    5  A    between atoms: N_10  and  C_11
REMARK    6  A    between atoms: C_11  and  C_12
REMARK    7  A    between atoms: C_12  and  C_13
REMARK    8  A    between atoms: C_16  and  C_17
REMARK    9  A    between atoms: C_20  and  O_21
REMARK   10  A    between atoms: O_21  and  C_22
REMARK                            x       y       z     vdW  Elec       q    Type
REMARK                         _______ _______ _______ _____ _____    ______ ____
ROOT
ATOM      1  C   UNL     1       2.998   2.938  20.357  0.00  0.00    +0.000 C 
ENDROOT
BRANCH   1   2
ATOM      2  C   UNL     1       3.138   4.400  20.124  0.00  0.00    +0.000 A 
ATOM      3  N   UNL     1       4.298   4.980  19.802  0.00  0.00    +0.000 NA
ATOM      4  N   UNL     1       3.927   6.261  19.657  0.00  0.00    +0.000 N 
ATOM      5  C   UNL     1       2.588   6.435  19.888  0.00  0.00    +0.000 A 
ATOM      6  N   UNL     1       2.077   5.262  20.220  0.00  0.00    +0.000 NA
ATOM      7  H   UNL     1       4.622   6.956  19.415  0.00  0.00    +0.000 HD
BRANCH   5   8
ATOM      8  C   UNL     1       1.884   7.712  19.805  0.00  0.00    +0.000 A 
ATOM      9  C   UNL     1       1.164   8.240  20.885  0.00  0.00    +0.000 A 
ATOM     10  C   UNL     1       0.510   9.471  20.764  0.00  0.00    +0.000 A 
ATOM     11  C   UNL     1       0.579  10.201  19.577  0.00  0.00    +0.000 A 
ATOM     12  C   UNL     1       1.284   9.680  18.495  0.00  0.00    +0.000 A 
ATOM     13  C   UNL     1       1.936   8.448  18.613  0.00  0.00    +0.000 A 
BRANCH  11  14
ATOM     14  O   UNL     1      -0.106  11.385  19.578  0.00  0.00    +0.000 OA
ATOM     15  C   UNL     1       0.403  12.388  18.705  0.00  0.00    +0.000 C 
ENDBRANCH  11  14
ENDBRANCH   5   8
ENDBRANCH   1   2
BRANCH   1  16
ATOM     16  C   UNL     1       2.998   2.157  19.044  0.00  0.00    +0.000 C 
BRANCH  16  19
ATOM     17  C   UNL     1       3.821   3.422  17.080  0.00  0.00    +0.000 C 
ATOM     18  O   UNL     1       2.712   3.894  16.842  0.00  0.00    +0.000 OA
ATOM     19  N   UNL     1       4.065   2.570  18.138  0.00  0.00    +0.000 N 
ATOM     20  H   UNL     1       4.979   2.157  18.248  0.00  0.00    +0.000 HD
BRANCH  17  21
ATOM     21  C   UNL     1       5.037   3.749  16.228  0.00  0.00    +0.000 C 
BRANCH  21  25
ATOM     22  C   UNL     1       7.582   6.778  17.995  0.00  0.00    +0.000 A 
ATOM     23  C   UNL     1       6.557   7.139  17.120  0.00  0.00    +0.000 A 
ATOM     24  C   UNL     1       5.731   6.166  16.547  0.00  0.00    +0.000 A 
ATOM     25  C   UNL     1       5.937   4.808  16.821  0.00  0.00    +0.000 A 
ATOM     26  C   UNL     1       6.967   4.452  17.703  0.00  0.00    +0.000 A 
ATOM     27  C   UNL     1       7.786   5.429  18.283  0.00  0.00    +0.000 A 
BRANCH  22  29
ATOM     28  C   UNL     1       8.064   9.096  17.916  0.00  0.00    +0.000 C 
ATOM     29  O   UNL     1       8.330   7.817  18.477  0.00  0.00    +0.000 OA
ENDBRANCH  22  29
ENDBRANCH  21  25
ENDBRANCH  17  21
ENDBRANCH  16  19
ENDBRANCH   1  16
TORSDOF 8
ENDMDL
MODEL 6
REMARK VINA RESULT:      -7.5      2.687      3.487
REMARK  Name = 
REMARK  10 active torsions:
REMARK  status: ('A' for Active; 'I' for Inactive)
REMARK    1  A    between atoms: C_1  and  O_2
REMARK    2  A    between atoms: O_2  and  C_3
REMARK    3  A    between atoms: C_6  and  C_7
REMARK    4  A    between atoms: C_7  and  C_8
REMARK    5  A    between atoms: N_10  and  C_11
REMARK    6  A    between atoms: C_11  and  C_12
REMARK    7  A    between atoms: C_12  and  C_13
REMARK    8  A    between atoms: C_16  and  C_17
REMARK    9  A    between atoms: C_20  and  O_21
REMARK   10  A    between atoms: O_21  and  C_22
REMARK                            x       y       z     vdW  Elec       q    Type
REMARK                         _______ _______ _______ _____ _____    ______ ____
ROOT
ATOM      1  C   UNL     1       7.608   5.658  18.267  0.00  0.00    +0.000 C 
ENDROOT
BRANCH   1   2
ATOM      2  C   UNL     1       7.772   7.110  18.000  0.00  0.00    +0.000 A 
ATOM      3  N   UNL     1       7.157   7.743  16.996  0.00  0.00    +0.000 NA
ATOM      4  N   UNL     1       7.569   9.006  17.181  0.00  0.00    +0.000 N 
ATOM      5  C   UNL     1       8.404   9.118  18.261  0.00  0.00    +0.000 A 
ATOM      6  N   UNL     1       8.570   7.913  18.774  0.00  0.00    +0.000 NA
ATOM      7  H   UNL     1       7.259   9.728  16.543  0.00  0.00    +0.000 HD
BRANCH   5   8
ATOM      8  C   UNL     1       9.013  10.364  18.721  0.00  0.00    +0.000 A 
ATOM      9  C   UNL     1       9.050  11.516  17.923  0.00  0.00    +0.000 A 
ATOM     10  C   UNL     1       9.636  12.691  18.406  0.00  0.00    +0.000 A 
ATOM     11  C   UNL     1      10.175  12.743  19.693  0.00  0.00    +0.000 A 
ATOM     12  C   UNL     1      10.151  11.600  20.489  0.00  0.00    +0.000 A 
ATOM     13  C   UNL     1       9.567  10.423  20.006  0.00  0.00    +0.000 A 
BRANCH  11  14
ATOM     14  O   UNL     1      10.726  13.943  20.048  0.00  0.00    +0.000 OA
ATOM     15  C   UNL     1      11.961  14.261  19.417  0.00  0.00    +0.000 C 
ENDBRANCH  11  14
ENDBRANCH   5   8
ENDBRANCH   1   2
BRANCH   1  16
ATOM     16  C   UNL     1       6.717   5.407  19.484  0.00  0.00    +0.000 C 
BRANCH  16  19
ATOM     17  C   UNL     1       4.535   4.272  19.196  0.00  0.00    +0.000 C 
ATOM     18  O   UNL     1       4.992   3.177  19.519  0.00  0.00    +0.000 OA
ATOM     19  N   UNL     1       5.295   5.423  19.158  0.00  0.00    +0.000 N 
ATOM     20  H   UNL     1       4.886   6.281  18.821  0.00  0.00    +0.000 HD
BRANCH  17  21
ATOM     21  C   UNL     1       3.073   4.456  18.823  0.00  0.00    +0.000 C 
BRANCH  21  25
ATOM     22  C   UNL     1       1.686   8.528  19.343  0.00  0.00    +0.000 A 
ATOM     23  C   UNL     1       1.678   7.635  20.416  0.00  0.00    +0.000 A 
ATOM     24  C   UNL     1       2.125   6.320  20.255  0.00  0.00    +0.000 A 
ATOM     25  C   UNL     1       2.565   5.867  19.005  0.00  0.00    +0.000 A 
ATOM     26  C   UNL     1       2.573   6.768  17.931  0.00  0.00    +0.000 A 
ATOM     27  C   UNL     1       2.134   8.089  18.097  0.00  0.00    +0.000 A 
BRANCH  22  29
ATOM     28  C   UNL     1       0.278  10.319  18.694  0.00  0.00    +0.000 C 
ATOM     29  O   UNL     1       1.211   9.780  19.622  0.00  0.00    +0.000 OA
ENDBRANCH  22  29
ENDBRANCH  21  25
ENDBRANCH  17  21
ENDBRANCH  16  19
ENDBRANCH   1  16
TORSDOF 8
ENDMDL
MODEL 7
REMARK VINA RESULT:      -7.3      4.440      7.285
REMARK  Name = 
REMARK  10 active torsions:
REMARK  status: ('A' for Active; 'I' for Inactive)
REMARK    1  A    between atoms: C_1  and  O_2
REMARK    2  A    between atoms: O_2  and  C_3
REMARK    3  A    between atoms: C_6  and  C_7
REMARK    4  A    between atoms: C_7  and  C_8
REMARK    5  A    between atoms: N_10  and  C_11
REMARK    6  A    between atoms: C_11  and  C_12
REMARK    7  A    between atoms: C_12  and  C_13
REMARK    8  A    between atoms: C_16  and  C_17
REMARK    9  A    between atoms: C_20  and  O_21
REMARK   10  A    between atoms: O_21  and  C_22
REMARK                            x       y       z     vdW  Elec       q    Type
REMARK                         _______ _______ _______ _____ _____    ______ ____
ROOT
ATOM      1  C   UNL     1       2.185   3.346  20.760  0.00  0.00    +0.000 C 
ENDROOT
BRANCH   1   2
ATOM      2  C   UNL     1       2.397   4.795  20.508  0.00  0.00    +0.000 A 
ATOM      3  N   UNL     1       3.511   5.285  19.954  0.00  0.00    +0.000 NA
ATOM      4  N   UNL     1       3.227   6.595  19.893  0.00  0.00    +0.000 N 
ATOM      5  C   UNL     1       1.985   6.873  20.398  0.00  0.00    +0.000 A 
ATOM      6  N   UNL     1       1.456   5.740  20.825  0.00  0.00    +0.000 NA
ATOM      7  H   UNL     1       3.914   7.235  19.515  0.00  0.00    +0.000 HD
BRANCH   5   8
ATOM      8  C   UNL     1       1.389   8.205  20.466  0.00  0.00    +0.000 A 
ATOM      9  C   UNL     1       1.277   9.031  19.339  0.00  0.00    +0.000 A 
ATOM     10  C   UNL     1       0.692  10.298  19.447  0.00  0.00    +0.000 A 
ATOM     11  C   UNL     1       0.195  10.752  20.670  0.00  0.00    +0.000 A 
ATOM     12  C   UNL     1       0.311   9.941  21.797  0.00  0.00    +0.000 A 
ATOM     13  C   UNL     1       0.897   8.676  21.691  0.00  0.00    +0.000 A 
BRANCH  11  14
ATOM     14  O   UNL     1      -0.347  12.007  20.651  0.00  0.00    +0.000 OA
ATOM     15  C   UNL     1      -1.266  12.294  21.699  0.00  0.00    +0.000 C 
ENDBRANCH  11  14
ENDBRANCH   5   8
ENDBRANCH   1   2
BRANCH   1  16
ATOM     16  C   UNL     1       2.025   2.565  19.456  0.00  0.00    +0.000 C 
BRANCH  16  19
ATOM     17  C   UNL     1       2.967   3.382  17.317  0.00  0.00    +0.000 C 
ATOM     18  O   UNL     1       1.883   3.817  16.935  0.00  0.00    +0.000 OA
ATOM     19  N   UNL     1       3.141   2.763  18.537  0.00  0.00    +0.000 N 
ATOM     20  H   UNL     1       4.037   2.364  18.772  0.00  0.00    +0.000 HD
BRANCH  17  21
ATOM     21  C   UNL     1       4.227   3.504  16.474  0.00  0.00    +0.000 C 
BRANCH  21  25
ATOM     22  C   UNL     1       7.000   6.570  17.773  0.00  0.00    +0.000 A 
ATOM     23  C   UNL     1       7.281   5.221  17.995  0.00  0.00    +0.000 A 
ATOM     24  C   UNL     1       6.391   4.227  17.578  0.00  0.00    +0.000 A 
ATOM     25  C   UNL     1       5.186   4.570  16.952  0.00  0.00    +0.000 A 
ATOM     26  C   UNL     1       4.909   5.926  16.730  0.00  0.00    +0.000 A 
ATOM     27  C   UNL     1       5.807   6.919  17.140  0.00  0.00    +0.000 A 
BRANCH  22  29
ATOM     28  C   UNL     1       7.942   8.740  17.649  0.00  0.00    +0.000 C 
ATOM     29  O   UNL     1       7.939   7.447  18.241  0.00  0.00    +0.000 OA
ENDBRANCH  22  29
ENDBRANCH  21  25
ENDBRANCH  17  21
ENDBRANCH  16  19
ENDBRANCH   1  16
TORSDOF 8
ENDMDL
MODEL 8
REMARK VINA RESULT:      -7.3      3.201      4.105
REMARK  Name = 
REMARK  10 active torsions:
REMARK  status: ('A' for Active; 'I' for Inactive)
REMARK    1  A    between atoms: C_1  and  O_2
REMARK    2  A    between atoms: O_2  and  C_3
REMARK    3  A    between atoms: C_6  and  C_7
REMARK    4  A    between atoms: C_7  and  C_8
REMARK    5  A    between atoms: N_10  and  C_11
REMARK    6  A    between atoms: C_11  and  C_12
REMARK    7  A    between atoms: C_12  and  C_13
REMARK    8  A    between atoms: C_16  and  C_17
REMARK    9  A    between atoms: C_20  and  O_21
REMARK   10  A    between atoms: O_21  and  C_22
REMARK                            x       y       z     vdW  Elec       q    Type
REMARK                         _______ _______ _______ _____ _____    ______ ____
ROOT
ATOM      1  C   UNL     1       7.214   4.872  17.659  0.00  0.00    +0.000 C 
ENDROOT
BRANCH   1   2
ATOM      2  C   UNL     1       7.266   6.348  17.492  0.00  0.00    +0.000 A 
ATOM      3  N   UNL     1       6.477   7.016  16.644  0.00  0.00    +0.000 NA
ATOM      4  N   UNL     1       6.850   8.284  16.871  0.00  0.00    +0.000 N 
ATOM      5  C   UNL     1       7.832   8.366  17.822  0.00  0.00    +0.000 A 
ATOM      6  N   UNL     1       8.132   7.137  18.204  0.00  0.00    +0.000 NA
ATOM      7  H   UNL     1       6.414   9.032  16.346  0.00  0.00    +0.000 HD
BRANCH   5   8
ATOM      8  C   UNL     1       8.443   9.608  18.289  0.00  0.00    +0.000 A 
ATOM      9  C   UNL     1       9.151   9.684  19.495  0.00  0.00    +0.000 A 
ATOM     10  C   UNL     1       9.728  10.893  19.901  0.00  0.00    +0.000 A 
ATOM     11  C   UNL     1       9.623  12.035  19.106  0.00  0.00    +0.000 A 
ATOM     12  C   UNL     1       8.913  11.971  17.910  0.00  0.00    +0.000 A 
ATOM     13  C   UNL     1       8.334  10.764  17.503  0.00  0.00    +0.000 A 
BRANCH  11  14
ATOM     14  O   UNL     1      10.221  13.156  19.612  0.00  0.00    +0.000 OA
ATOM     15  C   UNL     1      11.628  13.065  19.810  0.00  0.00    +0.000 C 
ENDBRANCH  11  14
ENDBRANCH   5   8
ENDBRANCH   1   2
BRANCH   1  16
ATOM     16  C   UNL     1       5.774   4.366  17.739  0.00  0.00    +0.000 C 
BRANCH  16  19
ATOM     17  C   UNL     1       3.614   5.044  18.743  0.00  0.00    +0.000 C 
ATOM     18  O   UNL     1       2.960   4.478  17.869  0.00  0.00    +0.000 OA
ATOM     19  N   UNL     1       4.994   5.039  18.772  0.00  0.00    +0.000 N 
ATOM     20  H   UNL     1       5.481   5.577  19.473  0.00  0.00    +0.000 HD
BRANCH  17  21
ATOM     21  C   UNL     1       2.951   5.795  19.887  0.00  0.00    +0.000 C 
BRANCH  21  25
ATOM     22  C   UNL     1       1.303   9.635  18.743  0.00  0.00    +0.000 A 
ATOM     23  C   UNL     1       1.094   9.130  20.027  0.00  0.00    +0.000 A 
ATOM     24  C   UNL     1       1.625   7.892  20.403  0.00  0.00    +0.000 A 
ATOM     25  C   UNL     1       2.353   7.123  19.486  0.00  0.00    +0.000 A 
ATOM     26  C   UNL     1       2.561   7.636  18.198  0.00  0.00    +0.000 A 
ATOM     27  C   UNL     1       2.037   8.881  17.828  0.00  0.00    +0.000 A 
BRANCH  22  29
ATOM     28  C   UNL     1       1.474  11.995  18.864  0.00  0.00    +0.000 C 
ATOM     29  O   UNL     1       0.722  10.847  18.491  0.00  0.00    +0.000 OA
ENDBRANCH  22  29
ENDBRANCH  21  25
ENDBRANCH  17  21
ENDBRANCH  16  19
ENDBRANCH   1  16
TORSDOF 8
ENDMDL
MODEL 9
REMARK VINA RESULT:      -7.3      4.659      7.229
REMARK  Name = 
REMARK  10 active torsions:
REMARK  status: ('A' for Active; 'I' for Inactive)
REMARK    1  A    between atoms: C_1  and  O_2
REMARK    2  A    between atoms: O_2  and  C_3
REMARK    3  A    between atoms: C_6  and  C_7
REMARK    4  A    between atoms: C_7  and  C_8
REMARK    5  A    between atoms: N_10  and  C_11
REMARK    6  A    between atoms: C_11  and  C_12
REMARK    7  A    between atoms: C_12  and  C_13
REMARK    8  A    between atoms: C_16  and  C_17
REMARK    9  A    between atoms: C_20  and  O_21
REMARK   10  A    between atoms: O_21  and  C_22
REMARK                            x       y       z     vdW  Elec       q    Type
REMARK                         _______ _______ _______ _____ _____    ______ ____
ROOT
ATOM      1  C   UNL     1       1.814   3.607  21.010  0.00  0.00    +0.000 C 
ENDROOT
BRANCH   1   2
ATOM      2  C   UNL     1       2.081   5.039  20.717  0.00  0.00    +0.000 A 
ATOM      3  N   UNL     1       3.199   5.468  20.122  0.00  0.00    +0.000 NA
ATOM      4  N   UNL     1       2.970   6.787  20.036  0.00  0.00    +0.000 N 
ATOM      5  C   UNL     1       1.755   7.130  20.566  0.00  0.00    +0.000 A 
ATOM      6  N   UNL     1       1.190   6.032  21.034  0.00  0.00    +0.000 NA
ATOM      7  H   UNL     1       3.673   7.387  19.625  0.00  0.00    +0.000 HD
BRANCH   5   8
ATOM      8  C   UNL     1       1.219   8.488  20.617  0.00  0.00    +0.000 A 
ATOM      9  C   UNL     1       0.711   9.047  21.798  0.00  0.00    +0.000 A 
ATOM     10  C   UNL     1       0.215  10.355  21.804  0.00  0.00    +0.000 A 
ATOM     11  C   UNL     1       0.232  11.130  20.644  0.00  0.00    +0.000 A 
ATOM     12  C   UNL     1       0.726  10.579  19.463  0.00  0.00    +0.000 A 
ATOM     13  C   UNL     1       1.221   9.271  19.455  0.00  0.00    +0.000 A 
BRANCH  11  14
ATOM     14  O   UNL     1      -0.286  12.388  20.773  0.00  0.00    +0.000 OA
ATOM     15  C   UNL     1      -0.473  12.840  22.110  0.00  0.00    +0.000 C 
ENDBRANCH  11  14
ENDBRANCH   5   8
ENDBRANCH   1   2
BRANCH   1  16
ATOM     16  C   UNL     1       1.527   2.816  19.734  0.00  0.00    +0.000 C 
BRANCH  16  19
ATOM     17  C   UNL     1       2.407   3.577  17.548  0.00  0.00    +0.000 C 
ATOM     18  O   UNL     1       1.347   4.118  17.241  0.00  0.00    +0.000 OA
ATOM     19  N   UNL     1       2.597   2.923  18.748  0.00  0.00    +0.000 N 
ATOM     20  H   UNL     1       3.465   2.438  18.921  0.00  0.00    +0.000 HD
BRANCH  17  21
ATOM     21  C   UNL     1       3.618   3.595  16.629  0.00  0.00    +0.000 C 
BRANCH  21  25
ATOM     22  C   UNL     1       6.758   6.341  17.798  0.00  0.00    +0.000 A 
ATOM     23  C   UNL     1       6.894   4.972  18.030  0.00  0.00    +0.000 A 
ATOM     24  C   UNL     1       5.885   4.080  17.654  0.00  0.00    +0.000 A 
ATOM     25  C   UNL     1       4.706   4.550  17.062  0.00  0.00    +0.000 A 
ATOM     26  C   UNL     1       4.576   5.926  16.829  0.00  0.00    +0.000 A 
ATOM     27  C   UNL     1       5.593   6.816  17.198  0.00  0.00    +0.000 A 
BRANCH  22  29
ATOM     28  C   UNL     1       7.876   8.427  17.690  0.00  0.00    +0.000 C 
ATOM     29  O   UNL     1       7.805   7.112  18.225  0.00  0.00    +0.000 OA
ENDBRANCH  22  29
ENDBRANCH  21  25
ENDBRANCH  17  21
ENDBRANCH  16  19
ENDBRANCH   1  16
TORSDOF 8
ENDMDL
