MODEL 1
REMARK VINA RESULT:      -8.0      0.000      0.000
REMARK  Name = 
REMARK  10 active torsions:
REMARK  status: ('A' for Active; 'I' for Inactive)
REMARK    1  A    between atoms: C_1  and  O_2
REMARK    2  A    between atoms: O_2  and  C_3
REMARK    3  A    between atoms: C_4  and  C_5
REMARK    4  A    between atoms: N_7  and  O_8
REMARK    5  A    between atoms: C_12  and  C_13
REMARK    6  A    between atoms: C_15  and  C_16
REMARK    7  A    between atoms: C_20  and  C_21
REMARK    8  A    between atoms: N_23  and  O_24
REMARK    9  A    between atoms: C_25  and  O_26
REMARK   10  A    between atoms: O_26  and  C_27
REMARK                            x       y       z     vdW  Elec       q    Type
REMARK                         _______ _______ _______ _____ _____    ______ ____
ROOT
ATOM      1  C   UNL     1       1.544   9.371  18.680  0.00  0.00    +0.000 A 
ATOM      2  C   UNL     1       1.982   8.062  19.009  0.00  0.00    +0.000 A 
ATOM      3  C   UNL     1       2.935   7.781  18.056  0.00  0.00    +0.000 A 
ATOM      4  O   UNL     1       3.114   8.876  17.277  0.00  0.00    +0.000 OA
ATOM      5  N   UNL     1       2.305   9.899  17.712  0.00  0.00    +0.000 NA
ENDROOT
BRANCH   1  11
ATOM      6  C   UNL     1       0.246  10.546  20.482  0.00  0.00    +0.000 A 
ATOM      7  C   UNL     1      -0.899  11.295  20.843  0.00  0.00    +0.000 A 
ATOM      8  C   UNL     1      -1.944  11.448  19.910  0.00  0.00    +0.000 A 
ATOM      9  C   UNL     1      -1.852  10.921  18.625  0.00  0.00    +0.000 A 
ATOM     10  C   UNL     1      -0.697  10.249  18.245  0.00  0.00    +0.000 A 
ATOM     11  C   UNL     1       0.361  10.072  19.153  0.00  0.00    +0.000 A 
BRANCH   7  12
ATOM     12  C   UNL     1      -1.074  11.991  22.172  0.00  0.00    +0.000 C 
ATOM     13  N   UNL     1      -1.807  11.411  23.175  0.00  0.00    +0.000 N 
ATOM     14  N   UNL     1      -0.501  13.153  22.347  0.00  0.00    +0.000 NA
ATOM     15  H   UNL     1      -2.563  10.805  22.886  0.00  0.00    +0.000 HD
ATOM     16  H   UNL     1      -2.041  12.086  23.897  0.00  0.00    +0.000 HD
BRANCH  14  17
ATOM     17  O   UNL     1      -0.750  13.660  23.634  0.00  0.00    +0.000 OA
ATOM     18  H   UNL     1      -1.699  13.464  23.747  0.00  0.00    +0.000 HD
ENDBRANCH  14  17
ENDBRANCH   7  12
BRANCH   6  20
ATOM     19  C   UNL     1       1.092   9.262  22.292  0.00  0.00    +0.000 C 
ATOM     20  O   UNL     1       1.259  10.376  21.404  0.00  0.00    +0.000 OA
ENDBRANCH   6  20
ENDBRANCH   1  11
BRANCH   3  21
ATOM     21  C   UNL     1       3.632   6.585  17.624  0.00  0.00    +0.000 A 
ATOM     22  C   UNL     1       4.491   6.723  16.510  0.00  0.00    +0.000 A 
ATOM     23  C   UNL     1       5.299   5.674  16.077  0.00  0.00    +0.000 A 
ATOM     24  C   UNL     1       5.237   4.456  16.732  0.00  0.00    +0.000 A 
ATOM     25  C   UNL     1       4.377   4.281  17.833  0.00  0.00    +0.000 A 
ATOM     26  C   UNL     1       3.566   5.348  18.295  0.00  0.00    +0.000 A 
BRANCH  25  27
ATOM     27  C   UNL     1       4.331   2.916  18.457  0.00  0.00    +0.000 C 
ATOM     28  N   UNL     1       4.911   2.704  19.687  0.00  0.00    +0.000 N 
ATOM     29  N   UNL     1       3.722   1.953  17.818  0.00  0.00    +0.000 NA
ATOM     30  H   UNL     1       5.793   3.197  19.795  0.00  0.00    +0.000 HD
ATOM     31  H   UNL     1       5.001   1.707  19.854  0.00  0.00    +0.000 HD
BRANCH  29  32
ATOM     32  O   UNL     1       3.807   0.746  18.534  0.00  0.00    +0.000 OA
ATOM     33  H   UNL     1       2.954   0.326  18.326  0.00  0.00    +0.000 HD
ENDBRANCH  29  32
ENDBRANCH  25  27
BRANCH  26  34
ATOM     34  O   UNL     1       2.884   5.123  19.470  0.00  0.00    +0.000 OA
ATOM     35  C   UNL     1       1.600   4.507  19.396  0.00  0.00    +0.000 C 
ENDBRANCH  26  34
ENDBRANCH   3  21
TORSDOF 8
ENDMDL
MODEL 2
REMARK VINA RESULT:      -7.8      1.628      9.007
REMARK  Name = 
REMARK  10 active torsions:
REMARK  status: ('A' for Active; 'I' for Inactive)
REMARK    1  A    between atoms: C_1  and  O_2
REMARK    2  A    between atoms: O_2  and  C_3
REMARK    3  A    between atoms: C_4  and  C_5
REMARK    4  A    between atoms: N_7  and  O_8
REMARK    5  A    between atoms: C_12  and  C_13
REMARK    6  A    between atoms: C_15  and  C_16
REMARK    7  A    between atoms: C_20  and  C_21
REMARK    8  A    between atoms: N_23  and  O_24
REMARK    9  A    between atoms: C_25  and  O_26
REMARK   10  A    between atoms: O_26  and  C_27
REMARK                            x       y       z     vdW  Elec       q    Type
REMARK                         _______ _______ _______ _____ _____    ______ ____
ROOT
ATOM      1  C   UNL     1       2.564   7.755  18.557  0.00  0.00    +0.000 A 
ATOM      2  C   UNL     1       1.896   8.753  17.802  0.00  0.00    +0.000 A 
ATOM      3  C   UNL     1       0.968   9.268  18.679  0.00  0.00    +0.000 A 
ATOM      4  O   UNL     1       1.135   8.683  19.890  0.00  0.00    +0.000 OA
ATOM      5  N   UNL     1       2.183   7.794  19.842  0.00  0.00    +0.000 NA
ENDROOT
BRANCH   1  11
ATOM      6  C   UNL     1       3.485   5.421  18.694  0.00  0.00    +0.000 A 
ATOM      7  C   UNL     1       4.294   4.415  18.118  0.00  0.00    +0.000 A 
ATOM      8  C   UNL     1       5.119   4.737  17.021  0.00  0.00    +0.000 A 
ATOM      9  C   UNL     1       5.116   6.012  16.462  0.00  0.00    +0.000 A 
ATOM     10  C   UNL     1       4.266   6.981  16.981  0.00  0.00    +0.000 A 
ATOM     11  C   UNL     1       3.436   6.695  18.078  0.00  0.00    +0.000 A 
BRANCH   7  12
ATOM     12  C   UNL     1       4.316   2.975  18.577  0.00  0.00    +0.000 C 
ATOM     13  N   UNL     1       4.908   2.627  19.762  0.00  0.00    +0.000 N 
ATOM     14  N   UNL     1       3.746   2.073  17.821  0.00  0.00    +0.000 NA
ATOM     15  H   UNL     1       5.684   3.202  20.063  0.00  0.00    +0.000 HD
ATOM     16  H   UNL     1       5.062   1.624  19.815  0.00  0.00    +0.000 HD
BRANCH  14  17
ATOM     17  O   UNL     1       3.842   0.792  18.390  0.00  0.00    +0.000 OA
ATOM     18  H   UNL     1       4.726   0.505  18.093  0.00  0.00    +0.000 HD
ENDBRANCH  14  17
ENDBRANCH   7  12
BRANCH   6  20
ATOM     19  C   UNL     1       1.497   4.384  19.477  0.00  0.00    +0.000 C 
ATOM     20  O   UNL     1       2.695   5.111  19.783  0.00  0.00    +0.000 OA
ENDBRANCH   6  20
ENDBRANCH   1  11
BRANCH   3  21
ATOM     21  C   UNL     1      -0.191  10.132  18.557  0.00  0.00    +0.000 A 
ATOM     22  C   UNL     1      -1.124   9.798  17.549  0.00  0.00    +0.000 A 
ATOM     23  C   UNL     1      -2.329  10.485  17.413  0.00  0.00    +0.000 A 
ATOM     24  C   UNL     1      -2.606  11.541  18.265  0.00  0.00    +0.000 A 
ATOM     25  C   UNL     1      -1.688  11.910  19.266  0.00  0.00    +0.000 A 
ATOM     26  C   UNL     1      -0.469  11.204  19.427  0.00  0.00    +0.000 A 
BRANCH  25  27
ATOM     27  C   UNL     1      -2.040  13.097  20.116  0.00  0.00    +0.000 C 
ATOM     28  N   UNL     1      -1.462  14.319  19.861  0.00  0.00    +0.000 N 
ATOM     29  N   UNL     1      -2.909  12.943  21.080  0.00  0.00    +0.000 NA
ATOM     30  H   UNL     1      -0.479  14.245  19.613  0.00  0.00    +0.000 HD
ATOM     31  H   UNL     1      -1.617  14.940  20.649  0.00  0.00    +0.000 HD
BRANCH  29  32
ATOM     32  O   UNL     1      -3.090  14.147  21.785  0.00  0.00    +0.000 OA
ATOM     33  H   UNL     1      -3.261  14.780  21.065  0.00  0.00    +0.000 HD
ENDBRANCH  29  32
ENDBRANCH  25  27
BRANCH  26  34
ATOM     34  O   UNL     1       0.282  11.540  20.531  0.00  0.00    +0.000 OA
ATOM     35  C   UNL     1       1.454  12.328  20.335  0.00  0.00    +0.000 C 
ENDBRANCH  26  34
ENDBRANCH   3  21
TORSDOF 8
ENDMDL
MODEL 3
REMARK VINA RESULT:      -7.8      2.288      9.038
REMARK  Name = 
REMARK  10 active torsions:
REMARK  status: ('A' for Active; 'I' for Inactive)
REMARK    1  A    between atoms: C_1  and  O_2
REMARK    2  A    between atoms: O_2  and  C_3
REMARK    3  A    between atoms: C_4  and  C_5
REMARK    4  A    between atoms: N_7  and  O_8
REMARK    5  A    between atoms: C_12  and  C_13
REMARK    6  A    between atoms: C_15  and  C_16
REMARK    7  A    between atoms: C_20  and  C_21
REMARK    8  A    between atoms: N_23  and  O_24
REMARK    9  A    between atoms: C_25  and  O_26
REMARK   10  A    between atoms: O_26  and  C_27
REMARK                            x       y       z     vdW  Elec       q    Type
REMARK                         _______ _______ _______ _____ _____    ______ ____
ROOT
ATOM      1  C   UNL     1       2.884   6.935  18.618  0.00  0.00    +0.000 A 
ATOM      2  C   UNL     1       2.425   8.202  18.175  0.00  0.00    +0.000 A 
ATOM      3  C   UNL     1       1.661   8.665  19.223  0.00  0.00    +0.000 A 
ATOM      4  O   UNL     1       1.739   7.780  20.247  0.00  0.00    +0.000 OA
ATOM      5  N   UNL     1       2.565   6.736  19.905  0.00  0.00    +0.000 NA
ENDROOT
BRANCH   1  11
ATOM      6  C   UNL     1       4.672   6.062  17.084  0.00  0.00    +0.000 A 
ATOM      7  C   UNL     1       5.245   4.954  16.417  0.00  0.00    +0.000 A 
ATOM      8  C   UNL     1       4.564   3.720  16.420  0.00  0.00    +0.000 A 
ATOM      9  C   UNL     1       3.364   3.556  17.106  0.00  0.00    +0.000 A 
ATOM     10  C   UNL     1       2.837   4.623  17.822  0.00  0.00    +0.000 A 
ATOM     11  C   UNL     1       3.487   5.869  17.834  0.00  0.00    +0.000 A 
BRANCH   7  12
ATOM     12  C   UNL     1       6.583   4.984  15.716  0.00  0.00    +0.000 C 
ATOM     13  N   UNL     1       7.694   4.436  16.302  0.00  0.00    +0.000 N 
ATOM     14  N   UNL     1       6.653   5.534  14.532  0.00  0.00    +0.000 NA
ATOM     15  H   UNL     1       7.720   4.447  17.313  0.00  0.00    +0.000 HD
ATOM     16  H   UNL     1       8.544   4.743  15.840  0.00  0.00    +0.000 HD
BRANCH  14  17
ATOM     17  O   UNL     1       7.957   5.471  14.013  0.00  0.00    +0.000 OA
ATOM     18  H   UNL     1       8.311   6.349  14.250  0.00  0.00    +0.000 HD
ENDBRANCH  14  17
ENDBRANCH   7  12
BRANCH   6  20
ATOM     19  C   UNL     1       6.550   7.321  17.811  0.00  0.00    +0.000 C 
ATOM     20  O   UNL     1       5.328   7.277  17.061  0.00  0.00    +0.000 OA
ENDBRANCH   6  20
ENDBRANCH   1  11
BRANCH   3  21
ATOM     21  C   UNL     1       0.716   9.750  19.404  0.00  0.00    +0.000 A 
ATOM     22  C   UNL     1      -0.164  10.006  18.328  0.00  0.00    +0.000 A 
ATOM     23  C   UNL     1      -1.188  10.945  18.430  0.00  0.00    +0.000 A 
ATOM     24  C   UNL     1      -1.330  11.667  19.603  0.00  0.00    +0.000 A 
ATOM     25  C   UNL     1      -0.457  11.448  20.686  0.00  0.00    +0.000 A 
ATOM     26  C   UNL     1       0.575  10.481  20.599  0.00  0.00    +0.000 A 
BRANCH  25  27
ATOM     27  C   UNL     1      -0.646  12.307  21.903  0.00  0.00    +0.000 C 
ATOM     28  N   UNL     1      -1.499  11.901  22.903  0.00  0.00    +0.000 N 
ATOM     29  N   UNL     1       0.021  13.426  21.991  0.00  0.00    +0.000 NA
ATOM     30  H   UNL     1      -2.347  11.468  22.546  0.00  0.00    +0.000 HD
ATOM     31  H   UNL     1      -1.693  12.681  23.523  0.00  0.00    +0.000 HD
BRANCH  29  32
ATOM     32  O   UNL     1      -0.305  14.110  23.177  0.00  0.00    +0.000 OA
ATOM     33  H   UNL     1       0.415  13.837  23.773  0.00  0.00    +0.000 HD
ENDBRANCH  29  32
ENDBRANCH  25  27
BRANCH  26  34
ATOM     34  O   UNL     1       1.268  10.232  21.763  0.00  0.00    +0.000 OA
ATOM     35  C   UNL     1       0.697   9.328  22.706  0.00  0.00    +0.000 C 
ENDBRANCH  26  34
ENDBRANCH   3  21
TORSDOF 8
ENDMDL
MODEL 4
REMARK VINA RESULT:      -7.7      1.946      2.333
REMARK  Name = 
REMARK  10 active torsions:
REMARK  status: ('A' for Active; 'I' for Inactive)
REMARK    1  A    between atoms: C_1  and  O_2
REMARK    2  A    between atoms: O_2  and  C_3
REMARK    3  A    between atoms: C_4  and  C_5
REMARK    4  A    between atoms: N_7  and  O_8
REMARK    5  A    between atoms: C_12  and  C_13
REMARK    6  A    between atoms: C_15  and  C_16
REMARK    7  A    between atoms: C_20  and  C_21
REMARK    8  A    between atoms: N_23  and  O_24
REMARK    9  A    between atoms: C_25  and  O_26
REMARK   10  A    between atoms: O_26  and  C_27
REMARK                            x       y       z     vdW  Elec       q    Type
REMARK                         _______ _______ _______ _____ _____    ______ ____
ROOT
ATOM      1  C   UNL     1       1.462   9.460  18.797  0.00  0.00    +0.000 A 
ATOM      2  C   UNL     1       1.973   8.703  17.713  0.00  0.00    +0.000 A 
ATOM      3  C   UNL     1       2.489   7.574  18.309  0.00  0.00    +0.000 A 
ATOM      4  O   UNL     1       2.220   7.617  19.637  0.00  0.00    +0.000 OA
ATOM      5  N   UNL     1       1.509   8.754  19.936  0.00  0.00    +0.000 NA
ENDROOT
BRANCH   1  11
ATOM      6  C   UNL     1      -0.277  11.257  19.041  0.00  0.00    +0.000 A 
ATOM      7  C   UNL     1      -0.572  12.638  19.127  0.00  0.00    +0.000 A 
ATOM      8  C   UNL     1       0.446  13.578  18.867  0.00  0.00    +0.000 A 
ATOM      9  C   UNL     1       1.746  13.176  18.575  0.00  0.00    +0.000 A 
ATOM     10  C   UNL     1       2.054  11.821  18.564  0.00  0.00    +0.000 A 
ATOM     11  C   UNL     1       1.062  10.858  18.812  0.00  0.00    +0.000 A 
BRANCH   7  12
ATOM     12  C   UNL     1      -1.919  13.196  19.522  0.00  0.00    +0.000 C 
ATOM     13  N   UNL     1      -3.076  12.646  19.035  0.00  0.00    +0.000 N 
ATOM     14  N   UNL     1      -1.955  14.209  20.349  0.00  0.00    +0.000 NA
ATOM     15  H   UNL     1      -3.021  12.223  18.118  0.00  0.00    +0.000 HD
ATOM     16  H   UNL     1      -3.868  13.264  19.184  0.00  0.00    +0.000 HD
BRANCH  14  17
ATOM     17  O   UNL     1      -3.276  14.600  20.624  0.00  0.00    +0.000 OA
ATOM     18  H   UNL     1      -3.146  15.487  21.012  0.00  0.00    +0.000 HD
ENDBRANCH  14  17
ENDBRANCH   7  12
BRANCH   6  20
ATOM     19  C   UNL     1      -1.908   9.814  18.095  0.00  0.00    +0.000 C 
ATOM     20  O   UNL     1      -1.280  10.338  19.274  0.00  0.00    +0.000 OA
ENDBRANCH   6  20
ENDBRANCH   1  11
BRANCH   3  21
ATOM     21  C   UNL     1       3.350   6.488  17.880  0.00  0.00    +0.000 A 
ATOM     22  C   UNL     1       4.303   6.795  16.883  0.00  0.00    +0.000 A 
ATOM     23  C   UNL     1       5.257   5.865  16.475  0.00  0.00    +0.000 A 
ATOM     24  C   UNL     1       5.253   4.600  17.036  0.00  0.00    +0.000 A 
ATOM     25  C   UNL     1       4.304   4.258  18.018  0.00  0.00    +0.000 A 
ATOM     26  C   UNL     1       3.342   5.202  18.455  0.00  0.00    +0.000 A 
BRANCH  25  27
ATOM     27  C   UNL     1       4.335   2.850  18.541  0.00  0.00    +0.000 C 
ATOM     28  N   UNL     1       4.948   2.578  19.742  0.00  0.00    +0.000 N 
ATOM     29  N   UNL     1       3.760   1.908  17.841  0.00  0.00    +0.000 NA
ATOM     30  H   UNL     1       5.807   3.104  19.873  0.00  0.00    +0.000 HD
ATOM     31  H   UNL     1       5.088   1.577  19.833  0.00  0.00    +0.000 HD
BRANCH  29  32
ATOM     32  O   UNL     1       3.916   0.657  18.466  0.00  0.00    +0.000 OA
ATOM     33  H   UNL     1       3.598   0.046  17.778  0.00  0.00    +0.000 HD
ENDBRANCH  29  32
ENDBRANCH  25  27
BRANCH  26  34
ATOM     34  O   UNL     1       2.566   4.822  19.527  0.00  0.00    +0.000 OA
ATOM     35  C   UNL     1       1.327   4.167  19.263  0.00  0.00    +0.000 C 
ENDBRANCH  26  34
ENDBRANCH   3  21
TORSDOF 8
ENDMDL
MODEL 5
REMARK VINA RESULT:      -7.7      1.702      2.309
REMARK  Name = 
REMARK  10 active torsions:
REMARK  status: ('A' for Active; 'I' for Inactive)
REMARK    1  A    between atoms: C_1  and  O_2
REMARK    2  A    between atoms: O_2  and  C_3
REMARK    3  A    between atoms: C_4  and  C_5
REMARK    4  A    between atoms: N_7  and  O_8
REMARK    5  A    between atoms: C_12  and  C_13
REMARK    6  A    between atoms: C_15  and  C_16
REMARK    7  A    between atoms: C_20  and  C_21
REMARK    8  A    between atoms: N_23  and  O_24
REMARK    9  A    between atoms: C_25  and  O_26
REMARK   10  A    between atoms: O_26  and  C_27
REMARK                            x       y       z     vdW  Elec       q    Type
REMARK                         _______ _______ _______ _____ _____    ______ ____
ROOT
ATOM      1  C   UNL     1       1.239   9.360  18.770  0.00  0.00    +0.000 A 
ATOM      2  C   UNL     1       1.623   8.118  19.337  0.00  0.00    +0.000 A 
ATOM      3  C   UNL     1       2.420   7.544  18.371  0.00  0.00    +0.000 A 
ATOM      4  O   UNL     1       2.571   8.422  17.349  0.00  0.00    +0.000 OA
ATOM      5  N   UNL     1       1.901   9.589  17.627  0.00  0.00    +0.000 NA
ENDROOT
BRANCH   1  11
ATOM      6  C   UNL     1       0.154  10.824  20.500  0.00  0.00    +0.000 A 
ATOM      7  C   UNL     1      -0.860  11.758  20.817  0.00  0.00    +0.000 A 
ATOM      8  C   UNL     1      -1.880  12.013  19.878  0.00  0.00    +0.000 A 
ATOM      9  C   UNL     1      -1.883  11.403  18.628  0.00  0.00    +0.000 A 
ATOM     10  C   UNL     1      -0.848  10.541  18.287  0.00  0.00    +0.000 A 
ATOM     11  C   UNL     1       0.181  10.260  19.202  0.00  0.00    +0.000 A 
BRANCH   7  12
ATOM     12  C   UNL     1      -0.914  12.550  22.103  0.00  0.00    +0.000 C 
ATOM     13  N   UNL     1      -1.637  12.098  23.175  0.00  0.00    +0.000 N 
ATOM     14  N   UNL     1      -0.245  13.672  22.171  0.00  0.00    +0.000 NA
ATOM     15  H   UNL     1      -2.451  11.536  22.964  0.00  0.00    +0.000 HD
ATOM     16  H   UNL     1      -1.781  12.834  23.859  0.00  0.00    +0.000 HD
BRANCH  14  17
ATOM     17  O   UNL     1      -0.389  14.279  23.430  0.00  0.00    +0.000 OA
ATOM     18  H   UNL     1       0.039  13.628  24.017  0.00  0.00    +0.000 HD
ENDBRANCH  14  17
ENDBRANCH   7  12
BRANCH   6  20
ATOM     19  C   UNL     1       0.803   9.557  22.401  0.00  0.00    +0.000 C 
ATOM     20  O   UNL     1       1.139  10.557  21.429  0.00  0.00    +0.000 OA
ENDBRANCH   6  20
ENDBRANCH   1  11
BRANCH   3  21
ATOM     21  C   UNL     1       2.969   6.221  18.146  0.00  0.00    +0.000 A 
ATOM     22  C   UNL     1       2.050   5.147  18.153  0.00  0.00    +0.000 A 
ATOM     23  C   UNL     1       2.443   3.848  17.835  0.00  0.00    +0.000 A 
ATOM     24  C   UNL     1       3.771   3.597  17.536  0.00  0.00    +0.000 A 
ATOM     25  C   UNL     1       4.714   4.643  17.540  0.00  0.00    +0.000 A 
ATOM     26  C   UNL     1       4.321   5.971  17.841  0.00  0.00    +0.000 A 
BRANCH  25  27
ATOM     27  C   UNL     1       6.143   4.278  17.254  0.00  0.00    +0.000 C 
ATOM     28  N   UNL     1       6.492   3.796  16.014  0.00  0.00    +0.000 N 
ATOM     29  N   UNL     1       7.033   4.443  18.196  0.00  0.00    +0.000 NA
ATOM     30  H   UNL     1       5.801   3.158  15.631  0.00  0.00    +0.000 HD
ATOM     31  H   UNL     1       7.419   3.384  16.057  0.00  0.00    +0.000 HD
BRANCH  29  32
ATOM     32  O   UNL     1       8.303   4.021  17.761  0.00  0.00    +0.000 OA
ATOM     33  H   UNL     1       8.839   4.129  18.567  0.00  0.00    +0.000 HD
ENDBRANCH  29  32
ENDBRANCH  25  27
BRANCH  26  34
ATOM     34  O   UNL     1       5.282   6.940  17.662  0.00  0.00    +0.000 OA
ATOM     35  C   UNL     1       5.640   7.295  16.328  0.00  0.00    +0.000 C 
ENDBRANCH  26  34
ENDBRANCH   3  21
TORSDOF 8
ENDMDL
MODEL 6
REMARK VINA RESULT:      -7.6      2.633      9.086
REMARK  Name = 
REMARK  10 active torsions:
REMARK  status: ('A' for Active; 'I' for Inactive)
REMARK    1  A    between atoms: C_1  and  O_2
REMARK    2  A    between atoms: O_2  and  C_3
REMARK    3  A    between atoms: C_4  and  C_5
REMARK    4  A    between atoms: N_7  and  O_8
REMARK    5  A    between atoms: C_12  and  C_13
REMARK    6  A    between atoms: C_15  and  C_16
REMARK    7  A    between atoms: C_20  and  C_21
REMARK    8  A    between atoms: N_23  and  O_24
REMARK    9  A    between atoms: C_25  and  O_26
REMARK   10  A    between atoms: O_26  and  C_27
REMARK                            x       y       z     vdW  Elec       q    Type
REMARK                         _______ _______ _______ _____ _____    ______ ____
ROOT
ATOM      1  C   UNL     1       2.228   6.560  19.468  0.00  0.00    +0.000 A 
ATOM      2  C   UNL     1       2.001   7.918  19.127  0.00  0.00    +0.000 A 
ATOM      3  C   UNL     1       1.347   8.432  20.225  0.00  0.00    +0.000 A 
ATOM      4  O   UNL     1       1.276   7.474  21.182  0.00  0.00    +0.000 OA
ATOM      5  N   UNL     1       1.895   6.326  20.745  0.00  0.00    +0.000 NA
ENDROOT
BRANCH   1  11
ATOM      6  C   UNL     1       3.811   5.493  17.835  0.00  0.00    +0.000 A 
ATOM      7  C   UNL     1       4.165   4.352  17.077  0.00  0.00    +0.000 A 
ATOM      8  C   UNL     1       3.268   3.268  17.004  0.00  0.00    +0.000 A 
ATOM      9  C   UNL     1       2.064   3.275  17.703  0.00  0.00    +0.000 A 
ATOM     10  C   UNL     1       1.749   4.363  18.507  0.00  0.00    +0.000 A 
ATOM     11  C   UNL     1       2.618   5.464  18.596  0.00  0.00    +0.000 A 
BRANCH   7  12
ATOM     12  C   UNL     1       5.480   4.189  16.350  0.00  0.00    +0.000 C 
ATOM     13  N   UNL     1       6.658   4.106  17.044  0.00  0.00    +0.000 N 
ATOM     14  N   UNL     1       5.464   4.118  15.045  0.00  0.00    +0.000 NA
ATOM     15  H   UNL     1       6.696   4.597  17.928  0.00  0.00    +0.000 HD
ATOM     16  H   UNL     1       7.457   4.247  16.432  0.00  0.00    +0.000 HD
BRANCH  14  17
ATOM     17  O   UNL     1       6.760   3.956  14.524  0.00  0.00    +0.000 OA
ATOM     18  H   UNL     1       6.765   4.603  13.793  0.00  0.00    +0.000 HD
ENDBRANCH  14  17
ENDBRANCH   7  12
BRANCH   6  20
ATOM     19  C   UNL     1       4.729   7.364  16.696  0.00  0.00    +0.000 C 
ATOM     20  O   UNL     1       4.680   6.565  17.886  0.00  0.00    +0.000 OA
ENDBRANCH   6  20
ENDBRANCH   1  11
BRANCH   3  21
ATOM     21  C   UNL     1       0.616   9.652  20.507  0.00  0.00    +0.000 A 
ATOM     22  C   UNL     1       0.153   9.819  21.831  0.00  0.00    +0.000 A 
ATOM     23  C   UNL     1      -0.460  11.000  22.246  0.00  0.00    +0.000 A 
ATOM     24  C   UNL     1      -0.649  12.023  21.333  0.00  0.00    +0.000 A 
ATOM     25  C   UNL     1      -0.215  11.879  20.001  0.00  0.00    +0.000 A 
ATOM     26  C   UNL     1       0.428  10.691  19.573  0.00  0.00    +0.000 A 
BRANCH  25  27
ATOM     27  C   UNL     1      -0.502  13.014  19.060  0.00  0.00    +0.000 C 
ATOM     28  N   UNL     1      -1.075  12.761  17.835  0.00  0.00    +0.000 N 
ATOM     29  N   UNL     1      -0.211  14.230  19.437  0.00  0.00    +0.000 NA
ATOM     30  H   UNL     1      -0.710  11.921  17.396  0.00  0.00    +0.000 HD
ATOM     31  H   UNL     1      -0.985  13.580  17.242  0.00  0.00    +0.000 HD
BRANCH  29  32
ATOM     32  O   UNL     1      -0.517  15.154  18.422  0.00  0.00    +0.000 OA
ATOM     33  H   UNL     1      -0.291  14.655  17.617  0.00  0.00    +0.000 HD
ENDBRANCH  29  32
ENDBRANCH  25  27
BRANCH  26  34
ATOM     34  O   UNL     1       0.954  10.713  18.301  0.00  0.00    +0.000 OA
ATOM     35  C   UNL     1       2.220  11.338  18.107  0.00  0.00    +0.000 C 
ENDBRANCH  26  34
ENDBRANCH   3  21
TORSDOF 8
ENDMDL
MODEL 7
REMARK VINA RESULT:      -7.6      2.019      2.605
REMARK  Name = 
REMARK  10 active torsions:
REMARK  status: ('A' for Active; 'I' for Inactive)
REMARK    1  A    between atoms: C_1  and  O_2
REMARK    2  A    between atoms: O_2  and  C_3
REMARK    3  A    between atoms: C_4  and  C_5
REMARK    4  A    between atoms: N_7  and  O_8
REMARK    5  A    between atoms: C_12  and  C_13
REMARK    6  A    between atoms: C_15  and  C_16
REMARK    7  A    between atoms: C_20  and  C_21
REMARK    8  A    between atoms: N_23  and  O_24
REMARK    9  A    between atoms: C_25  and  O_26
REMARK   10  A    between atoms: O_26  and  C_27
REMARK                            x       y       z     vdW  Elec       q    Type
REMARK                         _______ _______ _______ _____ _____    ______ ____
ROOT
ATOM      1  C   UNL     1       1.439   9.316  18.707  0.00  0.00    +0.000 A 
ATOM      2  C   UNL     1       1.862   8.021  19.100  0.00  0.00    +0.000 A 
ATOM      3  C   UNL     1       2.754   7.650  18.119  0.00  0.00    +0.000 A 
ATOM      4  O   UNL     1       2.917   8.686  17.260  0.00  0.00    +0.000 OA
ATOM      5  N   UNL     1       2.159   9.758  17.666  0.00  0.00    +0.000 NA
ENDROOT
BRANCH   1  11
ATOM      6  C   UNL     1       0.227  10.559  20.523  0.00  0.00    +0.000 A 
ATOM      7  C   UNL     1      -0.872  11.368  20.897  0.00  0.00    +0.000 A 
ATOM      8  C   UNL     1      -1.918  11.578  19.976  0.00  0.00    +0.000 A 
ATOM      9  C   UNL     1      -1.869  11.047  18.690  0.00  0.00    +0.000 A 
ATOM     10  C   UNL     1      -0.757  10.314  18.297  0.00  0.00    +0.000 A 
ATOM     11  C   UNL     1       0.301  10.080  19.193  0.00  0.00    +0.000 A 
BRANCH   7  12
ATOM     12  C   UNL     1      -0.995  12.072  22.228  0.00  0.00    +0.000 C 
ATOM     13  N   UNL     1      -1.714  11.514  23.252  0.00  0.00    +0.000 N 
ATOM     14  N   UNL     1      -0.389  13.221  22.383  0.00  0.00    +0.000 NA
ATOM     15  H   UNL     1      -2.492  10.925  22.986  0.00  0.00    +0.000 HD
ATOM     16  H   UNL     1      -1.911  12.196  23.978  0.00  0.00    +0.000 HD
BRANCH  14  17
ATOM     17  O   UNL     1      -0.590  13.737  23.674  0.00  0.00    +0.000 OA
ATOM     18  H   UNL     1       0.264  13.543  24.104  0.00  0.00    +0.000 HD
ENDBRANCH  14  17
ENDBRANCH   7  12
BRANCH   6  20
ATOM     19  C   UNL     1       1.010   9.248  22.342  0.00  0.00    +0.000 C 
ATOM     20  O   UNL     1       1.240  10.335  21.434  0.00  0.00    +0.000 OA
ENDBRANCH   6  20
ENDBRANCH   1  11
BRANCH   3  21
ATOM     21  C   UNL     1       3.398   6.409  17.732  0.00  0.00    +0.000 A 
ATOM     22  C   UNL     1       2.652   5.225  17.923  0.00  0.00    +0.000 A 
ATOM     23  C   UNL     1       3.121   3.988  17.484  0.00  0.00    +0.000 A 
ATOM     24  C   UNL     1       4.361   3.912  16.874  0.00  0.00    +0.000 A 
ATOM     25  C   UNL     1       5.137   5.072  16.687  0.00  0.00    +0.000 A 
ATOM     26  C   UNL     1       4.660   6.338  17.111  0.00  0.00    +0.000 A 
BRANCH  25  27
ATOM     27  C   UNL     1       6.491   4.897  16.063  0.00  0.00    +0.000 C 
ATOM     28  N   UNL     1       7.509   4.314  16.783  0.00  0.00    +0.000 N 
ATOM     29  N   UNL     1       6.671   5.295  14.832  0.00  0.00    +0.000 NA
ATOM     30  H   UNL     1       7.518   4.605  17.757  0.00  0.00    +0.000 HD
ATOM     31  H   UNL     1       8.395   4.483  16.319  0.00  0.00    +0.000 HD
BRANCH  29  32
ATOM     32  O   UNL     1       8.002   5.082  14.428  0.00  0.00    +0.000 OA
ATOM     33  H   UNL     1       8.117   5.764  13.742  0.00  0.00    +0.000 HD
ENDBRANCH  29  32
ENDBRANCH  25  27
BRANCH  26  34
ATOM     34  O   UNL     1       5.420   7.424  16.739  0.00  0.00    +0.000 OA
ATOM     35  C   UNL     1       6.570   7.741  17.520  0.00  0.00    +0.000 C 
ENDBRANCH  26  34
ENDBRANCH   3  21
TORSDOF 8
ENDMDL
MODEL 8
REMARK VINA RESULT:      -7.6      1.343      1.599
REMARK  Name = 
REMARK  10 active torsions:
REMARK  status: ('A' for Active; 'I' for Inactive)
REMARK    1  A    between atoms: C_1  and  O_2
REMARK    2  A    between atoms: O_2  and  C_3
REMARK    3  A    between atoms: C_4  and  C_5
REMARK    4  A    between atoms: N_7  and  O_8
REMARK    5  A    between atoms: C_12  and  C_13
REMARK    6  A    between atoms: C_15  and  C_16
REMARK    7  A    between atoms: C_20  and  C_21
REMARK    8  A    between atoms: N_23  and  O_24
REMARK    9  A    between atoms: C_25  and  O_26
REMARK   10  A    between atoms: O_26  and  C_27
REMARK                            x       y       z     vdW  Elec       q    Type
REMARK                         _______ _______ _______ _____ _____    ______ ____
ROOT
ATOM      1  C   UNL     1       0.997   9.512  18.211  0.00  0.00    +0.000 A 
ATOM      2  C   UNL     1       1.360   8.185  18.553  0.00  0.00    +0.000 A 
ATOM      3  C   UNL     1       2.599   8.019  17.977  0.00  0.00    +0.000 A 
ATOM      4  O   UNL     1       2.982   9.192  17.414  0.00  0.00    +0.000 OA
ATOM      5  N   UNL     1       2.020  10.151  17.626  0.00  0.00    +0.000 NA
ENDROOT
BRANCH   1  11
ATOM      6  C   UNL     1      -0.624  11.100  19.291  0.00  0.00    +0.000 A 
ATOM      7  C   UNL     1      -1.890  11.730  19.257  0.00  0.00    +0.000 A 
ATOM      8  C   UNL     1      -2.846  11.305  18.313  0.00  0.00    +0.000 A 
ATOM      9  C   UNL     1      -2.554  10.313  17.381  0.00  0.00    +0.000 A 
ATOM     10  C   UNL     1      -1.286   9.745  17.365  0.00  0.00    +0.000 A 
ATOM     11  C   UNL     1      -0.312  10.141  18.297  0.00  0.00    +0.000 A 
BRANCH   7  12
ATOM     12  C   UNL     1      -2.293  12.877  20.154  0.00  0.00    +0.000 C 
ATOM     13  N   UNL     1      -1.666  14.092  20.061  0.00  0.00    +0.000 N 
ATOM     14  N   UNL     1      -3.260  12.686  21.012  0.00  0.00    +0.000 NA
ATOM     15  H   UNL     1      -0.700  14.079  19.762  0.00  0.00    +0.000 HD
ATOM     16  H   UNL     1      -1.864  14.671  20.871  0.00  0.00    +0.000 HD
BRANCH  14  17
ATOM     17  O   UNL     1      -3.520  13.847  21.760  0.00  0.00    +0.000 OA
ATOM     18  H   UNL     1      -2.941  14.500  21.324  0.00  0.00    +0.000 HD
ENDBRANCH  14  17
ENDBRANCH   7  12
BRANCH   6  20
ATOM     19  C   UNL     1       0.257  10.785  21.474  0.00  0.00    +0.000 C 
ATOM     20  O   UNL     1       0.304  11.500  20.231  0.00  0.00    +0.000 OA
ENDBRANCH   6  20
ENDBRANCH   1  11
BRANCH   3  21
ATOM     21  C   UNL     1       3.466   6.887  17.712  0.00  0.00    +0.000 A 
ATOM     22  C   UNL     1       4.636   7.148  16.964  0.00  0.00    +0.000 A 
ATOM     23  C   UNL     1       5.599   6.165  16.747  0.00  0.00    +0.000 A 
ATOM     24  C   UNL     1       5.391   4.891  17.248  0.00  0.00    +0.000 A 
ATOM     25  C   UNL     1       4.225   4.595  17.981  0.00  0.00    +0.000 A 
ATOM     26  C   UNL     1       3.250   5.593  18.225  0.00  0.00    +0.000 A 
BRANCH  25  27
ATOM     27  C   UNL     1       4.051   3.177  18.447  0.00  0.00    +0.000 C 
ATOM     28  N   UNL     1       4.821   2.696  19.481  0.00  0.00    +0.000 N 
ATOM     29  N   UNL     1       3.154   2.430  17.862  0.00  0.00    +0.000 NA
ATOM     30  H   UNL     1       5.783   3.020  19.439  0.00  0.00    +0.000 HD
ATOM     31  H   UNL     1       4.753   1.684  19.514  0.00  0.00    +0.000 HD
BRANCH  29  32
ATOM     32  O   UNL     1       3.154   1.132  18.405  0.00  0.00    +0.000 OA
ATOM     33  H   UNL     1       3.884   0.709  17.919  0.00  0.00    +0.000 HD
ENDBRANCH  29  32
ENDBRANCH  25  27
BRANCH  26  34
ATOM     34  O   UNL     1       2.231   5.244  19.084  0.00  0.00    +0.000 OA
ATOM     35  C   UNL     1       2.473   5.329  20.486  0.00  0.00    +0.000 C 
ENDBRANCH  26  34
ENDBRANCH   3  21
TORSDOF 8
ENDMDL
MODEL 9
REMARK VINA RESULT:      -7.6      1.372      1.900
REMARK  Name = 
REMARK  10 active torsions:
REMARK  status: ('A' for Active; 'I' for Inactive)
REMARK    1  A    between atoms: C_1  and  O_2
REMARK    2  A    between atoms: O_2  and  C_3
REMARK    3  A    between atoms: C_4  and  C_5
REMARK    4  A    between atoms: N_7  and  O_8
REMARK    5  A    between atoms: C_12  and  C_13
REMARK    6  A    between atoms: C_15  and  C_16
REMARK    7  A    between atoms: C_20  and  C_21
REMARK    8  A    between atoms: N_23  and  O_24
REMARK    9  A    between atoms: C_25  and  O_26
REMARK   10  A    between atoms: O_26  and  C_27
REMARK                            x       y       z     vdW  Elec       q    Type
REMARK                         _______ _______ _______ _____ _____    ______ ____
ROOT
ATOM      1  C   UNL     1       1.278   9.119  19.920  0.00  0.00    +0.000 A 
ATOM      2  C   UNL     1       2.350   8.197  20.027  0.00  0.00    +0.000 A 
ATOM      3  C   UNL     1       2.513   7.725  18.744  0.00  0.00    +0.000 A 
ATOM      4  O   UNL     1       1.663   8.387  17.922  0.00  0.00    +0.000 OA
ATOM      5  N   UNL     1       0.944   9.316  18.636  0.00  0.00    +0.000 NA
ENDROOT
BRANCH   1  11
ATOM      6  C   UNL     1       0.141  11.080  21.003  0.00  0.00    +0.000 A 
ATOM      7  C   UNL     1      -0.707  11.560  22.029  0.00  0.00    +0.000 A 
ATOM      8  C   UNL     1      -1.092  10.689  23.068  0.00  0.00    +0.000 A 
ATOM      9  C   UNL     1      -0.696   9.355  23.080  0.00  0.00    +0.000 A 
ATOM     10  C   UNL     1       0.076   8.864  22.035  0.00  0.00    +0.000 A 
ATOM     11  C   UNL     1       0.483   9.707  20.986  0.00  0.00    +0.000 A 
BRANCH   7  12
ATOM     12  C   UNL     1      -1.276  12.959  22.076  0.00  0.00    +0.000 C 
ATOM     13  N   UNL     1      -1.916  13.493  20.988  0.00  0.00    +0.000 N 
ATOM     14  N   UNL     1      -1.153  13.643  23.184  0.00  0.00    +0.000 NA
ATOM     15  H   UNL     1      -1.608  13.168  20.082  0.00  0.00    +0.000 HD
ATOM     16  H   UNL     1      -2.020  14.499  21.080  0.00  0.00    +0.000 HD
BRANCH  14  17
ATOM     17  O   UNL     1      -1.741  14.914  23.070  0.00  0.00    +0.000 OA
ATOM     18  H   UNL     1      -1.104  15.380  22.496  0.00  0.00    +0.000 HD
ENDBRANCH  14  17
ENDBRANCH   7  12
BRANCH   6  20
ATOM     19  C   UNL     1       1.717  12.704  20.282  0.00  0.00    +0.000 C 
ATOM     20  O   UNL     1       0.536  11.940  19.998  0.00  0.00    +0.000 OA
ENDBRANCH   6  20
ENDBRANCH   1  11
BRANCH   3  21
ATOM     21  C   UNL     1       3.238   6.624  18.139  0.00  0.00    +0.000 A 
ATOM     22  C   UNL     1       3.987   6.923  16.979  0.00  0.00    +0.000 A 
ATOM     23  C   UNL     1       4.813   5.975  16.379  0.00  0.00    +0.000 A 
ATOM     24  C   UNL     1       4.879   4.699  16.912  0.00  0.00    +0.000 A 
ATOM     25  C   UNL     1       4.128   4.365  18.056  0.00  0.00    +0.000 A 
ATOM     26  C   UNL     1       3.301   5.328  18.686  0.00  0.00    +0.000 A 
BRANCH  25  27
ATOM     27  C   UNL     1       4.215   2.947  18.542  0.00  0.00    +0.000 C 
ATOM     28  N   UNL     1       4.913   2.657  19.693  0.00  0.00    +0.000 N 
ATOM     29  N   UNL     1       3.609   2.011  17.861  0.00  0.00    +0.000 NA
ATOM     30  H   UNL     1       5.771   3.195  19.778  0.00  0.00    +0.000 HD
ATOM     31  H   UNL     1       5.073   1.657  19.751  0.00  0.00    +0.000 HD
BRANCH  29  32
ATOM     32  O   UNL     1       3.825   0.749  18.444  0.00  0.00    +0.000 OA
ATOM     33  H   UNL     1       3.009   0.622  18.960  0.00  0.00    +0.000 HD
ENDBRANCH  29  32
ENDBRANCH  25  27
BRANCH  26  34
ATOM     34  O   UNL     1       2.738   4.948  19.884  0.00  0.00    +0.000 OA
ATOM     35  C   UNL     1       1.408   4.434  19.870  0.00  0.00    +0.000 C 
ENDBRANCH  26  34
ENDBRANCH   3  21
TORSDOF 8
ENDMDL
