MODEL 1
REMARK VINA RESULT:      -6.3      0.000      0.000
REMARK  Name = 
REMARK  10 active torsions:
REMARK  status: ('A' for Active; 'I' for Inactive)
REMARK    1  A    between atoms: C_1  and  O_2
REMARK    2  A    between atoms: O_2  and  C_3
REMARK    3  A    between atoms: C_3  and  C_5
REMARK    4  A    between atoms: C_5  and  S_6
REMARK    5  A    between atoms: S_6  and  C_7
REMARK    6  A    between atoms: C_7  and  C_8
REMARK    7  A    between atoms: C_7  and  C_9
REMARK    8  A    between atoms: C_15  and  C_16
REMARK    9  A    between atoms: C_16  and  C_17
REMARK   10  A    between atoms: C_16  and  C_18
REMARK                            x       y       z     vdW  Elec       q    Type
REMARK                         _______ _______ _______ _____ _____    ______ ____
ROOT
ATOM      1  C   UNL     1       4.875   4.988  15.999  0.00  0.00    +0.000 C 
ATOM      2  O   UNL     1       4.550   6.042  16.536  0.00  0.00    +0.000 OA
ATOM      3  N   UNL     1       4.442   3.722  16.344  0.00  0.00    +0.000 N 
ATOM      4  C   UNL     1       3.593   3.411  17.379  0.00  0.00    +0.000 A 
ATOM      5  N   UNL     1       3.402   2.179  17.803  0.00  0.00    +0.000 NA
ATOM      6  N   UNL     1       2.530   2.123  18.875  0.00  0.00    +0.000 NA
ATOM      7  C   UNL     1       2.065   3.316  19.195  0.00  0.00    +0.000 A 
ATOM      8  S   UNL     1       2.650   4.577  18.187  0.00  0.00    +0.000 S 
ATOM      9  H   UNL     1       4.931   2.926  15.955  0.00  0.00    +0.000 HD
ENDROOT
BRANCH   7  10
ATOM     10  C   UNL     1       1.114   3.620  20.319  0.00  0.00    +0.000 C 
ATOM     11  C   UNL     1       1.386   2.719  21.522  0.00  0.00    +0.000 C 
ATOM     12  C   UNL     1       1.193   5.093  20.717  0.00  0.00    +0.000 C 
ENDBRANCH   7  10
BRANCH   1  13
ATOM     13  C   UNL     1       5.814   5.019  14.780  0.00  0.00    +0.000 C 
ATOM     14  C   UNL     1       5.496   3.857  13.849  0.00  0.00    +0.000 C 
BRANCH  13  15
ATOM     15  S   UNL     1       7.556   4.989  15.359  0.00  0.00    +0.000 S 
BRANCH  15  16
ATOM     16  C   UNL     1       7.325   4.740  17.157  0.00  0.00    +0.000 C 
BRANCH  16  17
ATOM     17  C   UNL     1       7.623   6.033  17.902  0.00  0.00    +0.000 C 
ATOM     18  O   UNL     1       7.765   6.141  19.114  0.00  0.00    +0.000 OA
BRANCH  17  20
ATOM     19  C   UNL     1       7.843   8.343  17.662  0.00  0.00    +0.000 C 
ATOM     20  O   UNL     1       7.766   7.067  17.020  0.00  0.00    +0.000 OA
ENDBRANCH  17  20
ENDBRANCH  16  17
ENDBRANCH  15  16
ENDBRANCH  13  15
ENDBRANCH   1  13
TORSDOF 6
ENDMDL
MODEL 2
REMARK VINA RESULT:      -6.3      4.385      6.309
REMARK  Name = 
REMARK  10 active torsions:
REMARK  status: ('A' for Active; 'I' for Inactive)
REMARK    1  A    between atoms: C_1  and  O_2
REMARK    2  A    between atoms: O_2  and  C_3
REMARK    3  A    between atoms: C_3  and  C_5
REMARK    4  A    between atoms: C_5  and  S_6
REMARK    5  A    between atoms: S_6  and  C_7
REMARK    6  A    between atoms: C_7  and  C_8
REMARK    7  A    between atoms: C_7  and  C_9
REMARK    8  A    between atoms: C_15  and  C_16
REMARK    9  A    between atoms: C_16  and  C_17
REMARK   10  A    between atoms: C_16  and  C_18
REMARK                            x       y       z     vdW  Elec       q    Type
REMARK                         _______ _______ _______ _____ _____    ______ ____
ROOT
ATOM      1  C   UNL     1       3.703   5.844  18.731  0.00  0.00    +0.000 C 
ATOM      2  O   UNL     1       3.929   6.465  17.697  0.00  0.00    +0.000 OA
ATOM      3  N   UNL     1       2.850   6.226  19.749  0.00  0.00    +0.000 N 
ATOM      4  C   UNL     1       2.128   7.393  19.803  0.00  0.00    +0.000 A 
ATOM      5  N   UNL     1       1.519   7.808  20.896  0.00  0.00    +0.000 NA
ATOM      6  N   UNL     1       0.885   9.024  20.712  0.00  0.00    +0.000 NA
ATOM      7  C   UNL     1       1.008   9.462  19.474  0.00  0.00    +0.000 A 
ATOM      8  S   UNL     1       1.888   8.400  18.451  0.00  0.00    +0.000 S 
ATOM      9  H   UNL     1       2.901   5.728  20.628  0.00  0.00    +0.000 HD
ENDROOT
BRANCH   7  10
ATOM     10  C   UNL     1       0.460  10.755  18.937  0.00  0.00    +0.000 C 
ATOM     11  C   UNL     1      -0.938  10.553  18.353  0.00  0.00    +0.000 C 
ATOM     12  C   UNL     1       0.445  11.833  20.019  0.00  0.00    +0.000 C 
ENDBRANCH   7  10
BRANCH   1  13
ATOM     13  C   UNL     1       4.363   4.471  18.948  0.00  0.00    +0.000 C 
ATOM     14  C   UNL     1       5.864   4.571  18.711  0.00  0.00    +0.000 C 
BRANCH  13  15
ATOM     15  S   UNL     1       3.566   3.237  17.847  0.00  0.00    +0.000 S 
BRANCH  15  16
ATOM     16  C   UNL     1       2.652   2.219  19.064  0.00  0.00    +0.000 C 
BRANCH  16  17
ATOM     17  C   UNL     1       1.207   2.687  19.149  0.00  0.00    +0.000 C 
ATOM     18  O   UNL     1       0.275   2.247  18.486  0.00  0.00    +0.000 OA
BRANCH  17  20
ATOM     19  C   UNL     1       1.622   3.241  21.377  0.00  0.00    +0.000 C 
ATOM     20  O   UNL     1       1.074   3.642  20.118  0.00  0.00    +0.000 OA
ENDBRANCH  17  20
ENDBRANCH  16  17
ENDBRANCH  15  16
ENDBRANCH  13  15
ENDBRANCH   1  13
TORSDOF 6
ENDMDL
MODEL 3
REMARK VINA RESULT:      -6.3      2.930      6.806
REMARK  Name = 
REMARK  10 active torsions:
REMARK  status: ('A' for Active; 'I' for Inactive)
REMARK    1  A    between atoms: C_1  and  O_2
REMARK    2  A    between atoms: O_2  and  C_3
REMARK    3  A    between atoms: C_3  and  C_5
REMARK    4  A    between atoms: C_5  and  S_6
REMARK    5  A    between atoms: S_6  and  C_7
REMARK    6  A    between atoms: C_7  and  C_8
REMARK    7  A    between atoms: C_7  and  C_9
REMARK    8  A    between atoms: C_15  and  C_16
REMARK    9  A    between atoms: C_16  and  C_17
REMARK   10  A    between atoms: C_16  and  C_18
REMARK                            x       y       z     vdW  Elec       q    Type
REMARK                         _______ _______ _______ _____ _____    ______ ____
ROOT
ATOM      1  C   UNL     1       3.198   5.298  17.719  0.00  0.00    +0.000 C 
ATOM      2  O   UNL     1       2.812   4.346  17.048  0.00  0.00    +0.000 OA
ATOM      3  N   UNL     1       4.367   6.011  17.536  0.00  0.00    +0.000 N 
ATOM      4  C   UNL     1       5.329   5.759  16.589  0.00  0.00    +0.000 A 
ATOM      5  N   UNL     1       6.521   6.320  16.612  0.00  0.00    +0.000 NA
ATOM      6  N   UNL     1       7.324   5.884  15.573  0.00  0.00    +0.000 NA
ATOM      7  C   UNL     1       6.693   5.037  14.782  0.00  0.00    +0.000 A 
ATOM      8  S   UNL     1       5.067   4.741  15.249  0.00  0.00    +0.000 S 
ATOM      9  H   UNL     1       4.663   6.642  18.270  0.00  0.00    +0.000 HD
ENDROOT
BRANCH   7  10
ATOM     10  C   UNL     1       7.273   4.358  13.574  0.00  0.00    +0.000 C 
ATOM     11  C   UNL     1       6.197   3.585  12.813  0.00  0.00    +0.000 C 
ATOM     12  C   UNL     1       7.963   5.368  12.658  0.00  0.00    +0.000 C 
ENDBRANCH   7  10
BRANCH   1  13
ATOM     13  C   UNL     1       2.309   5.831  18.857  0.00  0.00    +0.000 C 
ATOM     14  C   UNL     1       2.534   7.326  19.037  0.00  0.00    +0.000 C 
BRANCH  13  15
ATOM     15  S   UNL     1       2.661   4.886  20.391  0.00  0.00    +0.000 S 
BRANCH  15  16
ATOM     16  C   UNL     1       1.205   3.779  20.463  0.00  0.00    +0.000 C 
BRANCH  16  17
ATOM     17  C   UNL     1       1.419   2.581  19.550  0.00  0.00    +0.000 C 
ATOM     18  O   UNL     1       0.626   2.176  18.708  0.00  0.00    +0.000 OA
BRANCH  17  20
ATOM     19  C   UNL     1       3.255   1.534  18.562  0.00  0.00    +0.000 C 
ATOM     20  O   UNL     1       2.656   2.039  19.759  0.00  0.00    +0.000 OA
ENDBRANCH  17  20
ENDBRANCH  16  17
ENDBRANCH  15  16
ENDBRANCH  13  15
ENDBRANCH   1  13
TORSDOF 6
ENDMDL
MODEL 4
REMARK VINA RESULT:      -6.3      4.233      5.694
REMARK  Name = 
REMARK  10 active torsions:
REMARK  status: ('A' for Active; 'I' for Inactive)
REMARK    1  A    between atoms: C_1  and  O_2
REMARK    2  A    between atoms: O_2  and  C_3
REMARK    3  A    between atoms: C_3  and  C_5
REMARK    4  A    between atoms: C_5  and  S_6
REMARK    5  A    between atoms: S_6  and  C_7
REMARK    6  A    between atoms: C_7  and  C_8
REMARK    7  A    between atoms: C_7  and  C_9
REMARK    8  A    between atoms: C_15  and  C_16
REMARK    9  A    between atoms: C_16  and  C_17
REMARK   10  A    between atoms: C_16  and  C_18
REMARK                            x       y       z     vdW  Elec       q    Type
REMARK                         _______ _______ _______ _____ _____    ______ ____
ROOT
ATOM      1  C   UNL     1       4.230   5.918  17.820  0.00  0.00    +0.000 C 
ATOM      2  O   UNL     1       4.406   6.667  16.864  0.00  0.00    +0.000 OA
ATOM      3  N   UNL     1       3.368   6.127  18.880  0.00  0.00    +0.000 N 
ATOM      4  C   UNL     1       2.577   7.234  19.073  0.00  0.00    +0.000 A 
ATOM      5  N   UNL     1       1.958   7.481  20.209  0.00  0.00    +0.000 NA
ATOM      6  N   UNL     1       1.250   8.670  20.171  0.00  0.00    +0.000 NA
ATOM      7  C   UNL     1       1.332   9.255  18.992  0.00  0.00    +0.000 A 
ATOM      8  S   UNL     1       2.262   8.374  17.848  0.00  0.00    +0.000 S 
ATOM      9  H   UNL     1       3.458   5.534  19.695  0.00  0.00    +0.000 HD
ENDROOT
BRANCH   7  10
ATOM     10  C   UNL     1       0.701  10.565  18.611  0.00  0.00    +0.000 C 
ATOM     11  C   UNL     1      -0.822  10.476  18.677  0.00  0.00    +0.000 C 
ATOM     12  C   UNL     1       1.216  11.697  19.499  0.00  0.00    +0.000 C 
ENDBRANCH   7  10
BRANCH   1  13
ATOM     13  C   UNL     1       4.973   4.571  17.873  0.00  0.00    +0.000 C 
ATOM     14  C   UNL     1       5.812   4.390  16.615  0.00  0.00    +0.000 C 
BRANCH  13  15
ATOM     15  S   UNL     1       3.755   3.217  18.097  0.00  0.00    +0.000 S 
BRANCH  15  16
ATOM     16  C   UNL     1       4.174   2.642  19.783  0.00  0.00    +0.000 C 
BRANCH  16  17
ATOM     17  C   UNL     1       3.039   2.975  20.741  0.00  0.00    +0.000 C 
ATOM     18  O   UNL     1       2.885   2.496  21.858  0.00  0.00    +0.000 OA
BRANCH  17  20
ATOM     19  C   UNL     1       0.838   3.675  20.409  0.00  0.00    +0.000 C 
ATOM     20  O   UNL     1       2.229   3.936  20.202  0.00  0.00    +0.000 OA
ENDBRANCH  17  20
ENDBRANCH  16  17
ENDBRANCH  15  16
ENDBRANCH  13  15
ENDBRANCH   1  13
TORSDOF 6
ENDMDL
MODEL 5
REMARK VINA RESULT:      -6.3      2.992      6.791
REMARK  Name = 
REMARK  10 active torsions:
REMARK  status: ('A' for Active; 'I' for Inactive)
REMARK    1  A    between atoms: C_1  and  O_2
REMARK    2  A    between atoms: O_2  and  C_3
REMARK    3  A    between atoms: C_3  and  C_5
REMARK    4  A    between atoms: C_5  and  S_6
REMARK    5  A    between atoms: S_6  and  C_7
REMARK    6  A    between atoms: C_7  and  C_8
REMARK    7  A    between atoms: C_7  and  C_9
REMARK    8  A    between atoms: C_15  and  C_16
REMARK    9  A    between atoms: C_16  and  C_17
REMARK   10  A    between atoms: C_16  and  C_18
REMARK                            x       y       z     vdW  Elec       q    Type
REMARK                         _______ _______ _______ _____ _____    ______ ____
ROOT
ATOM      1  C   UNL     1       6.223   4.986  16.897  0.00  0.00    +0.000 C 
ATOM      2  O   UNL     1       5.493   4.002  16.832  0.00  0.00    +0.000 OA
ATOM      3  N   UNL     1       6.945   5.543  15.859  0.00  0.00    +0.000 N 
ATOM      4  C   UNL     1       7.004   5.072  14.570  0.00  0.00    +0.000 A 
ATOM      5  N   UNL     1       7.885   5.502  13.690  0.00  0.00    +0.000 NA
ATOM      6  N   UNL     1       7.768   4.855  12.473  0.00  0.00    +0.000 NA
ATOM      7  C   UNL     1       6.776   3.986  12.470  0.00  0.00    +0.000 A 
ATOM      8  S   UNL     1       5.909   3.924  13.951  0.00  0.00    +0.000 S 
ATOM      9  H   UNL     1       7.655   6.228  16.084  0.00  0.00    +0.000 HD
ENDROOT
BRANCH   7  10
ATOM     10  C   UNL     1       6.382   3.100  11.321  0.00  0.00    +0.000 C 
ATOM     11  C   UNL     1       7.298   1.880  11.234  0.00  0.00    +0.000 C 
ATOM     12  C   UNL     1       4.920   2.673  11.437  0.00  0.00    +0.000 C 
ENDBRANCH   7  10
BRANCH   1  13
ATOM     13  C   UNL     1       6.345   5.751  18.228  0.00  0.00    +0.000 C 
ATOM     14  C   UNL     1       7.797   5.770  18.685  0.00  0.00    +0.000 C 
BRANCH  13  15
ATOM     15  S   UNL     1       5.234   4.982  19.470  0.00  0.00    +0.000 S 
BRANCH  15  16
ATOM     16  C   UNL     1       3.653   5.826  19.099  0.00  0.00    +0.000 C 
BRANCH  16  17
ATOM     17  C   UNL     1       2.605   4.805  18.684  0.00  0.00    +0.000 C 
ATOM     18  O   UNL     1       1.816   4.930  17.755  0.00  0.00    +0.000 OA
BRANCH  17  20
ATOM     19  C   UNL     1       2.483   2.475  18.734  0.00  0.00    +0.000 C 
ATOM     20  O   UNL     1       2.697   3.686  19.465  0.00  0.00    +0.000 OA
ENDBRANCH  17  20
ENDBRANCH  16  17
ENDBRANCH  15  16
ENDBRANCH  13  15
ENDBRANCH   1  13
TORSDOF 6
ENDMDL
MODEL 6
REMARK VINA RESULT:      -6.2      4.085      4.952
REMARK  Name = 
REMARK  10 active torsions:
REMARK  status: ('A' for Active; 'I' for Inactive)
REMARK    1  A    between atoms: C_1  and  O_2
REMARK    2  A    between atoms: O_2  and  C_3
REMARK    3  A    between atoms: C_3  and  C_5
REMARK    4  A    between atoms: C_5  and  S_6
REMARK    5  A    between atoms: S_6  and  C_7
REMARK    6  A    between atoms: C_7  and  C_8
REMARK    7  A    between atoms: C_7  and  C_9
REMARK    8  A    between atoms: C_15  and  C_16
REMARK    9  A    between atoms: C_16  and  C_17
REMARK   10  A    between atoms: C_16  and  C_18
REMARK                            x       y       z     vdW  Elec       q    Type
REMARK                         _______ _______ _______ _____ _____    ______ ____
ROOT
ATOM      1  C   UNL     1       3.182   5.781  18.457  0.00  0.00    +0.000 C 
ATOM      2  O   UNL     1       2.594   5.456  19.483  0.00  0.00    +0.000 OA
ATOM      3  N   UNL     1       3.140   7.019  17.843  0.00  0.00    +0.000 N 
ATOM      4  C   UNL     1       2.400   8.101  18.254  0.00  0.00    +0.000 A 
ATOM      5  N   UNL     1       2.218   9.170  17.506  0.00  0.00    +0.000 NA
ATOM      6  N   UNL     1       1.411  10.110  18.122  0.00  0.00    +0.000 NA
ATOM      7  C   UNL     1       1.046   9.729  19.332  0.00  0.00    +0.000 A 
ATOM      8  S   UNL     1       1.688   8.206  19.797  0.00  0.00    +0.000 S 
ATOM      9  H   UNL     1       3.508   7.100  16.904  0.00  0.00    +0.000 HD
ENDROOT
BRANCH   7  10
ATOM     10  C   UNL     1       0.157  10.498  20.268  0.00  0.00    +0.000 C 
ATOM     11  C   UNL     1       0.886  11.717  20.833  0.00  0.00    +0.000 C 
ATOM     12  C   UNL     1      -1.137  10.915  19.573  0.00  0.00    +0.000 C 
ENDBRANCH   7  10
BRANCH   1  13
ATOM     13  C   UNL     1       4.116   4.771  17.767  0.00  0.00    +0.000 C 
ATOM     14  C   UNL     1       3.303   3.622  17.187  0.00  0.00    +0.000 C 
BRANCH  13  15
ATOM     15  S   UNL     1       5.374   4.193  18.972  0.00  0.00    +0.000 S 
BRANCH  15  16
ATOM     16  C   UNL     1       6.637   5.510  18.820  0.00  0.00    +0.000 C 
BRANCH  16  17
ATOM     17  C   UNL     1       7.472   5.285  17.568  0.00  0.00    +0.000 C 
ATOM     18  O   UNL     1       8.067   4.252  17.283  0.00  0.00    +0.000 OA
BRANCH  17  20
ATOM     19  C   UNL     1       7.612   7.612  17.480  0.00  0.00    +0.000 C 
ATOM     20  O   UNL     1       7.426   6.389  16.762  0.00  0.00    +0.000 OA
ENDBRANCH  17  20
ENDBRANCH  16  17
ENDBRANCH  15  16
ENDBRANCH  13  15
ENDBRANCH   1  13
TORSDOF 6
ENDMDL
MODEL 7
REMARK VINA RESULT:      -6.2      4.087      5.811
REMARK  Name = 
REMARK  10 active torsions:
REMARK  status: ('A' for Active; 'I' for Inactive)
REMARK    1  A    between atoms: C_1  and  O_2
REMARK    2  A    between atoms: O_2  and  C_3
REMARK    3  A    between atoms: C_3  and  C_5
REMARK    4  A    between atoms: C_5  and  S_6
REMARK    5  A    between atoms: S_6  and  C_7
REMARK    6  A    between atoms: C_7  and  C_8
REMARK    7  A    between atoms: C_7  and  C_9
REMARK    8  A    between atoms: C_15  and  C_16
REMARK    9  A    between atoms: C_16  and  C_17
REMARK   10  A    between atoms: C_16  and  C_18
REMARK                            x       y       z     vdW  Elec       q    Type
REMARK                         _______ _______ _______ _____ _____    ______ ____
ROOT
ATOM      1  C   UNL     1       4.195   6.080  17.757  0.00  0.00    +0.000 C 
ATOM      2  O   UNL     1       4.329   6.866  16.824  0.00  0.00    +0.000 OA
ATOM      3  N   UNL     1       3.355   6.229  18.843  0.00  0.00    +0.000 N 
ATOM      4  C   UNL     1       2.541   7.307  19.094  0.00  0.00    +0.000 A 
ATOM      5  N   UNL     1       1.943   7.499  20.252  0.00  0.00    +0.000 NA
ATOM      6  N   UNL     1       1.205   8.669  20.273  0.00  0.00    +0.000 NA
ATOM      7  C   UNL     1       1.243   9.297  19.113  0.00  0.00    +0.000 A 
ATOM      8  S   UNL     1       2.167   8.480  17.918  0.00  0.00    +0.000 S 
ATOM      9  H   UNL     1       3.480   5.611  19.635  0.00  0.00    +0.000 HD
ENDROOT
BRANCH   7  10
ATOM     10  C   UNL     1       0.569  10.602  18.794  0.00  0.00    +0.000 C 
ATOM     11  C   UNL     1      -0.869  10.374  18.331  0.00  0.00    +0.000 C 
ATOM     12  C   UNL     1       0.608  11.545  19.996  0.00  0.00    +0.000 C 
ENDBRANCH   7  10
BRANCH   1  13
ATOM     13  C   UNL     1       4.974   4.752  17.745  0.00  0.00    +0.000 C 
ATOM     14  C   UNL     1       4.645   3.967  16.482  0.00  0.00    +0.000 C 
BRANCH  13  15
ATOM     15  S   UNL     1       4.585   3.810  19.271  0.00  0.00    +0.000 S 
BRANCH  15  16
ATOM     16  C   UNL     1       3.342   2.621  18.644  0.00  0.00    +0.000 C 
BRANCH  16  17
ATOM     17  C   UNL     1       1.944   3.197  18.813  0.00  0.00    +0.000 C 
ATOM     18  O   UNL     1       1.029   3.097  18.004  0.00  0.00    +0.000 OA
BRANCH  17  20
ATOM     19  C   UNL     1       1.338   2.925  21.050  0.00  0.00    +0.000 C 
ATOM     20  O   UNL     1       1.825   3.805  20.032  0.00  0.00    +0.000 OA
ENDBRANCH  17  20
ENDBRANCH  16  17
ENDBRANCH  15  16
ENDBRANCH  13  15
ENDBRANCH   1  13
TORSDOF 6
ENDMDL
MODEL 8
REMARK VINA RESULT:      -6.2      3.926      4.985
REMARK  Name = 
REMARK  10 active torsions:
REMARK  status: ('A' for Active; 'I' for Inactive)
REMARK    1  A    between atoms: C_1  and  O_2
REMARK    2  A    between atoms: O_2  and  C_3
REMARK    3  A    between atoms: C_3  and  C_5
REMARK    4  A    between atoms: C_5  and  S_6
REMARK    5  A    between atoms: S_6  and  C_7
REMARK    6  A    between atoms: C_7  and  C_8
REMARK    7  A    between atoms: C_7  and  C_9
REMARK    8  A    between atoms: C_15  and  C_16
REMARK    9  A    between atoms: C_16  and  C_17
REMARK   10  A    between atoms: C_16  and  C_18
REMARK                            x       y       z     vdW  Elec       q    Type
REMARK                         _______ _______ _______ _____ _____    ______ ____
ROOT
ATOM      1  C   UNL     1       3.056   5.304  18.744  0.00  0.00    +0.000 C 
ATOM      2  O   UNL     1       2.360   5.193  19.749  0.00  0.00    +0.000 OA
ATOM      3  N   UNL     1       3.209   6.441  17.973  0.00  0.00    +0.000 N 
ATOM      4  C   UNL     1       2.579   7.645  18.172  0.00  0.00    +0.000 A 
ATOM      5  N   UNL     1       2.583   8.612  17.277  0.00  0.00    +0.000 NA
ATOM      6  N   UNL     1       1.854   9.712  17.692  0.00  0.00    +0.000 NA
ATOM      7  C   UNL     1       1.359   9.547  18.904  0.00  0.00    +0.000 A 
ATOM      8  S   UNL     1       1.775   8.043  19.619  0.00  0.00    +0.000 S 
ATOM      9  H   UNL     1       3.652   6.349  17.067  0.00  0.00    +0.000 HD
ENDROOT
BRANCH   7  10
ATOM     10  C   UNL     1       0.505  10.534  19.650  0.00  0.00    +0.000 C 
ATOM     11  C   UNL     1       0.979  11.964  19.400  0.00  0.00    +0.000 C 
ATOM     12  C   UNL     1      -0.967  10.378  19.271  0.00  0.00    +0.000 C 
ENDBRANCH   7  10
BRANCH   1  13
ATOM     13  C   UNL     1       3.908   4.110  18.278  0.00  0.00    +0.000 C 
ATOM     14  C   UNL     1       3.470   2.844  19.002  0.00  0.00    +0.000 C 
BRANCH  13  15
ATOM     15  S   UNL     1       5.683   4.491  18.554  0.00  0.00    +0.000 S 
BRANCH  15  16
ATOM     16  C   UNL     1       6.302   4.549  16.832  0.00  0.00    +0.000 C 
BRANCH  16  17
ATOM     17  C   UNL     1       6.371   5.993  16.356  0.00  0.00    +0.000 C 
ATOM     18  O   UNL     1       5.447   6.624  15.858  0.00  0.00    +0.000 OA
BRANCH  17  20
ATOM     19  C   UNL     1       7.566   7.650  17.483  0.00  0.00    +0.000 C 
ATOM     20  O   UNL     1       7.608   6.517  16.610  0.00  0.00    +0.000 OA
ENDBRANCH  17  20
ENDBRANCH  16  17
ENDBRANCH  15  16
ENDBRANCH  13  15
ENDBRANCH   1  13
TORSDOF 6
ENDMDL
MODEL 9
REMARK VINA RESULT:      -6.2      4.024      5.089
REMARK  Name = 
REMARK  10 active torsions:
REMARK  status: ('A' for Active; 'I' for Inactive)
REMARK    1  A    between atoms: C_1  and  O_2
REMARK    2  A    between atoms: O_2  and  C_3
REMARK    3  A    between atoms: C_3  and  C_5
REMARK    4  A    between atoms: C_5  and  S_6
REMARK    5  A    between atoms: S_6  and  C_7
REMARK    6  A    between atoms: C_7  and  C_8
REMARK    7  A    between atoms: C_7  and  C_9
REMARK    8  A    between atoms: C_15  and  C_16
REMARK    9  A    between atoms: C_16  and  C_17
REMARK   10  A    between atoms: C_16  and  C_18
REMARK                            x       y       z     vdW  Elec       q    Type
REMARK                         _______ _______ _______ _____ _____    ______ ____
ROOT
ATOM      1  C   UNL     1       3.446   5.556  19.214  0.00  0.00    +0.000 C 
ATOM      2  O   UNL     1       2.815   5.412  20.256  0.00  0.00    +0.000 OA
ATOM      3  N   UNL     1       3.370   6.631  18.349  0.00  0.00    +0.000 N 
ATOM      4  C   UNL     1       2.543   7.720  18.483  0.00  0.00    +0.000 A 
ATOM      5  N   UNL     1       2.346   8.593  17.516  0.00  0.00    +0.000 NA
ATOM      6  N   UNL     1       1.448   9.581  17.877  0.00  0.00    +0.000 NA
ATOM      7  C   UNL     1       1.030   9.437  19.120  0.00  0.00    +0.000 A 
ATOM      8  S   UNL     1       1.729   8.095  19.931  0.00  0.00    +0.000 S 
ATOM      9  H   UNL     1       3.791   6.540  17.433  0.00  0.00    +0.000 HD
ENDROOT
BRANCH   7  10
ATOM     10  C   UNL     1       0.040  10.320  19.826  0.00  0.00    +0.000 C 
ATOM     11  C   UNL     1       0.711  11.596  20.332  0.00  0.00    +0.000 C 
ATOM     12  C   UNL     1      -1.141  10.654  18.915  0.00  0.00    +0.000 C 
ENDBRANCH   7  10
BRANCH   1  13
ATOM     13  C   UNL     1       4.480   4.493  18.803  0.00  0.00    +0.000 C 
ATOM     14  C   UNL     1       4.265   3.219  19.608  0.00  0.00    +0.000 C 
BRANCH  13  15
ATOM     15  S   UNL     1       6.169   5.177  19.022  0.00  0.00    +0.000 S 
BRANCH  15  16
ATOM     16  C   UNL     1       6.935   4.745  17.416  0.00  0.00    +0.000 C 
BRANCH  16  17
ATOM     17  C   UNL     1       7.097   5.997  16.566  0.00  0.00    +0.000 C 
ATOM     18  O   UNL     1       6.884   7.144  16.940  0.00  0.00    +0.000 OA
BRANCH  17  20
ATOM     19  C   UNL     1       6.838   4.607  14.711  0.00  0.00    +0.000 C 
ATOM     20  O   UNL     1       7.570   5.671  15.326  0.00  0.00    +0.000 OA
ENDBRANCH  17  20
ENDBRANCH  16  17
ENDBRANCH  15  16
ENDBRANCH  13  15
ENDBRANCH   1  13
TORSDOF 6
ENDMDL
