MODEL 1
REMARK VINA RESULT:      -7.9      0.000      0.000
REMARK  Name = 
REMARK  12 active torsions:
REMARK  status: ('A' for Active; 'I' for Inactive)
REMARK    1  A    between atoms: C_1  and  O_2
REMARK    2  A    between atoms: O_2  and  C_3
REMARK    3  A    between atoms: C_5  and  C_6
REMARK    4  A    between atoms: C_7  and  C_8
REMARK    5  A    between atoms: N_10  and  C_11
REMARK    6  A    between atoms: N_10  and  C_12
REMARK    7  A    between atoms: C_17  and  C_18
REMARK    8  A    between atoms: C_18  and  O_20
REMARK    9  A    between atoms: C_22  and  O_23
REMARK   10  A    between atoms: O_23  and  C_24
REMARK   11  A    between atoms: C_25  and  O_26
REMARK   12  A    between atoms: O_26  and  C_27
REMARK                            x       y       z     vdW  Elec       q    Type
REMARK                         _______ _______ _______ _____ _____    ______ ____
ROOT
ATOM      1  C   UNL     1       8.338   9.546  18.181  0.00  0.00    +0.000 C 
ATOM      2  C   UNL     1       8.425   8.212  18.260  0.00  0.00    +0.000 C 
ENDROOT
BRANCH   1   5
ATOM      3  C   UNL     1      11.085  12.108  18.154  0.00  0.00    +0.000 A 
ATOM      4  C   UNL     1      10.276  11.028  17.766  0.00  0.00    +0.000 A 
ATOM      5  C   UNL     1       9.356  10.479  18.652  0.00  0.00    +0.000 A 
ATOM      6  C   UNL     1       9.327  10.933  19.966  0.00  0.00    +0.000 A 
ATOM      7  C   UNL     1      10.180  11.958  20.403  0.00  0.00    +0.000 A 
ATOM      8  C   UNL     1      11.065  12.574  19.490  0.00  0.00    +0.000 A 
BRANCH   3  10
ATOM      9  C   UNL     1      11.374  13.771  16.487  0.00  0.00    +0.000 C 
ATOM     10  O   UNL     1      11.928  12.692  17.241  0.00  0.00    +0.000 OA
ENDBRANCH   3  10
BRANCH   7  11
ATOM     11  O   UNL     1       9.977  12.233  21.732  0.00  0.00    +0.000 OA
ATOM     12  C   UNL     1       8.704  12.005  22.313  0.00  0.00    +0.000 C 
ENDBRANCH   7  11
BRANCH   8  13
ATOM     13  O   UNL     1      11.859  13.572  19.994  0.00  0.00    +0.000 OA
ATOM     14  C   UNL     1      11.393  14.912  20.017  0.00  0.00    +0.000 C 
ENDBRANCH   8  13
ENDBRANCH   1   5
BRANCH   2  15
ATOM     15  C   UNL     1       7.245   7.458  17.776  0.00  0.00    +0.000 C 
ATOM     16  O   UNL     1       6.395   8.021  17.085  0.00  0.00    +0.000 OA
ATOM     17  N   UNL     1       7.082   6.167  18.251  0.00  0.00    +0.000 N 
ATOM     18  C   UNL     1       7.818   5.591  19.375  0.00  0.00    +0.000 C 
BRANCH  17  19
ATOM     19  C   UNL     1       5.918   5.443  17.848  0.00  0.00    +0.000 A 
ATOM     20  C   UNL     1       4.839   5.444  18.744  0.00  0.00    +0.000 A 
ATOM     21  C   UNL     1       3.644   4.804  18.418  0.00  0.00    +0.000 A 
ATOM     22  C   UNL     1       3.507   4.156  17.191  0.00  0.00    +0.000 A 
ATOM     23  C   UNL     1       4.572   4.146  16.292  0.00  0.00    +0.000 A 
ATOM     24  C   UNL     1       5.785   4.768  16.616  0.00  0.00    +0.000 A 
BRANCH  24  25
ATOM     25  C   UNL     1       6.847   4.703  15.583  0.00  0.00    +0.000 C 
ATOM     26  O   UNL     1       7.680   5.579  15.440  0.00  0.00    +0.000 OA
BRANCH  25  27
ATOM     27  O   UNL     1       6.750   3.632  14.772  0.00  0.00    +0.000 OA
ATOM     28  H   UNL     1       6.627   3.859  13.821  0.00  0.00    +0.000 HD
ENDBRANCH  25  27
ENDBRANCH  24  25
ENDBRANCH  17  19
ENDBRANCH   2  15
TORSDOF 8
ENDMDL
MODEL 2
REMARK VINA RESULT:      -7.7      0.524      2.486
REMARK  Name = 
REMARK  12 active torsions:
REMARK  status: ('A' for Active; 'I' for Inactive)
REMARK    1  A    between atoms: C_1  and  O_2
REMARK    2  A    between atoms: O_2  and  C_3
REMARK    3  A    between atoms: C_5  and  C_6
REMARK    4  A    between atoms: C_7  and  C_8
REMARK    5  A    between atoms: N_10  and  C_11
REMARK    6  A    between atoms: N_10  and  C_12
REMARK    7  A    between atoms: C_17  and  C_18
REMARK    8  A    between atoms: C_18  and  O_20
REMARK    9  A    between atoms: C_22  and  O_23
REMARK   10  A    between atoms: O_23  and  C_24
REMARK   11  A    between atoms: C_25  and  O_26
REMARK   12  A    between atoms: O_26  and  C_27
REMARK                            x       y       z     vdW  Elec       q    Type
REMARK                         _______ _______ _______ _____ _____    ______ ____
ROOT
ATOM      1  C   UNL     1       8.137   9.641  18.126  0.00  0.00    +0.000 C 
ATOM      2  C   UNL     1       8.353   8.320  18.141  0.00  0.00    +0.000 C 
ENDROOT
BRANCH   1   5
ATOM      3  C   UNL     1      10.212  11.813  20.384  0.00  0.00    +0.000 A 
ATOM      4  C   UNL     1       9.139  11.044  19.902  0.00  0.00    +0.000 A 
ATOM      5  C   UNL     1       9.094  10.649  18.570  0.00  0.00    +0.000 A 
ATOM      6  C   UNL     1      10.062  11.123  17.689  0.00  0.00    +0.000 A 
ATOM      7  C   UNL     1      11.100  11.959  18.128  0.00  0.00    +0.000 A 
ATOM      8  C   UNL     1      11.198  12.302  19.495  0.00  0.00    +0.000 A 
BRANCH   3  10
ATOM      9  C   UNL     1       9.059  12.543  22.325  0.00  0.00    +0.000 C 
ATOM     10  O   UNL     1      10.282  12.121  21.719  0.00  0.00    +0.000 OA
ENDBRANCH   3  10
BRANCH   7  11
ATOM     11  O   UNL     1      11.927  12.302  17.088  0.00  0.00    +0.000 OA
ATOM     12  C   UNL     1      11.628  13.439  16.296  0.00  0.00    +0.000 C 
ENDBRANCH   7  11
BRANCH   8  13
ATOM     13  O   UNL     1      12.245  13.115  19.843  0.00  0.00    +0.000 OA
ATOM     14  C   UNL     1      12.124  14.524  19.726  0.00  0.00    +0.000 C 
ENDBRANCH   8  13
ENDBRANCH   1   5
BRANCH   2  15
ATOM     15  C   UNL     1       7.217   7.475  17.704  0.00  0.00    +0.000 C 
ATOM     16  O   UNL     1       6.373   7.929  16.930  0.00  0.00    +0.000 OA
ATOM     17  N   UNL     1       7.081   6.236  18.309  0.00  0.00    +0.000 N 
ATOM     18  C   UNL     1       7.796   5.811  19.511  0.00  0.00    +0.000 C 
BRANCH  17  19
ATOM     19  C   UNL     1       5.957   5.430  17.949  0.00  0.00    +0.000 A 
ATOM     20  C   UNL     1       4.933   5.325  18.901  0.00  0.00    +0.000 A 
ATOM     21  C   UNL     1       3.775   4.598  18.622  0.00  0.00    +0.000 A 
ATOM     22  C   UNL     1       3.623   3.970  17.387  0.00  0.00    +0.000 A 
ATOM     23  C   UNL     1       4.634   4.066  16.433  0.00  0.00    +0.000 A 
ATOM     24  C   UNL     1       5.810   4.776  16.708  0.00  0.00    +0.000 A 
BRANCH  24  25
ATOM     25  C   UNL     1       6.816   4.820  15.619  0.00  0.00    +0.000 C 
ATOM     26  O   UNL     1       7.933   4.351  15.735  0.00  0.00    +0.000 OA
BRANCH  25  27
ATOM     27  O   UNL     1       6.405   5.497  14.529  0.00  0.00    +0.000 OA
ATOM     28  H   UNL     1       5.465   5.791  14.570  0.00  0.00    +0.000 HD
ENDBRANCH  25  27
ENDBRANCH  24  25
ENDBRANCH  17  19
ENDBRANCH   2  15
TORSDOF 8
ENDMDL
MODEL 3
REMARK VINA RESULT:      -7.7      1.324      2.134
REMARK  Name = 
REMARK  12 active torsions:
REMARK  status: ('A' for Active; 'I' for Inactive)
REMARK    1  A    between atoms: C_1  and  O_2
REMARK    2  A    between atoms: O_2  and  C_3
REMARK    3  A    between atoms: C_5  and  C_6
REMARK    4  A    between atoms: C_7  and  C_8
REMARK    5  A    between atoms: N_10  and  C_11
REMARK    6  A    between atoms: N_10  and  C_12
REMARK    7  A    between atoms: C_17  and  C_18
REMARK    8  A    between atoms: C_18  and  O_20
REMARK    9  A    between atoms: C_22  and  O_23
REMARK   10  A    between atoms: O_23  and  C_24
REMARK   11  A    between atoms: C_25  and  O_26
REMARK   12  A    between atoms: O_26  and  C_27
REMARK                            x       y       z     vdW  Elec       q    Type
REMARK                         _______ _______ _______ _____ _____    ______ ____
ROOT
ATOM      1  C   UNL     1       8.710   9.651  18.070  0.00  0.00    +0.000 C 
ATOM      2  C   UNL     1       8.388   8.451  18.567  0.00  0.00    +0.000 C 
ENDROOT
BRANCH   1   5
ATOM      3  C   UNL     1      10.931  12.610  18.726  0.00  0.00    +0.000 A 
ATOM      4  C   UNL     1      10.394  11.465  18.115  0.00  0.00    +0.000 A 
ATOM      5  C   UNL     1       9.465  10.676  18.784  0.00  0.00    +0.000 A 
ATOM      6  C   UNL     1       9.162  10.964  20.110  0.00  0.00    +0.000 A 
ATOM      7  C   UNL     1       9.745  12.056  20.772  0.00  0.00    +0.000 A 
ATOM      8  C   UNL     1      10.632  12.909  20.076  0.00  0.00    +0.000 A 
BRANCH   3  10
ATOM      9  C   UNL     1      11.407  13.690  16.667  0.00  0.00    +0.000 C 
ATOM     10  O   UNL     1      11.782  13.423  18.020  0.00  0.00    +0.000 OA
ENDBRANCH   3  10
BRANCH   7  11
ATOM     11  O   UNL     1       9.302  12.139  22.068  0.00  0.00    +0.000 OA
ATOM     12  C   UNL     1       8.097  12.828  22.359  0.00  0.00    +0.000 C 
ENDBRANCH   7  11
BRANCH   8  13
ATOM     13  O   UNL     1      11.152  13.956  20.791  0.00  0.00    +0.000 OA
ATOM     14  C   UNL     1      10.528  15.229  20.748  0.00  0.00    +0.000 C 
ENDBRANCH   8  13
ENDBRANCH   1   5
BRANCH   2  15
ATOM     15  C   UNL     1       7.561   7.590  17.689  0.00  0.00    +0.000 C 
ATOM     16  O   UNL     1       6.907   8.090  16.773  0.00  0.00    +0.000 OA
ATOM     17  N   UNL     1       7.452   6.253  18.036  0.00  0.00    +0.000 N 
ATOM     18  C   UNL     1       7.860   5.688  19.321  0.00  0.00    +0.000 C 
BRANCH  17  19
ATOM     19  C   UNL     1       6.609   5.417  17.241  0.00  0.00    +0.000 A 
ATOM     20  C   UNL     1       7.230   4.715  16.198  0.00  0.00    +0.000 A 
ATOM     21  C   UNL     1       6.498   3.838  15.396  0.00  0.00    +0.000 A 
ATOM     22  C   UNL     1       5.136   3.649  15.627  0.00  0.00    +0.000 A 
ATOM     23  C   UNL     1       4.507   4.342  16.659  0.00  0.00    +0.000 A 
ATOM     24  C   UNL     1       5.227   5.240  17.458  0.00  0.00    +0.000 A 
BRANCH  24  25
ATOM     25  C   UNL     1       4.459   5.917  18.532  0.00  0.00    +0.000 C 
ATOM     26  O   UNL     1       4.410   5.494  19.673  0.00  0.00    +0.000 OA
BRANCH  25  27
ATOM     27  O   UNL     1       3.760   6.988  18.107  0.00  0.00    +0.000 OA
ATOM     28  H   UNL     1       4.084   7.366  17.257  0.00  0.00    +0.000 HD
ENDBRANCH  25  27
ENDBRANCH  24  25
ENDBRANCH  17  19
ENDBRANCH   2  15
TORSDOF 8
ENDMDL
MODEL 4
REMARK VINA RESULT:      -7.7      6.299     10.071
REMARK  Name = 
REMARK  12 active torsions:
REMARK  status: ('A' for Active; 'I' for Inactive)
REMARK    1  A    between atoms: C_1  and  O_2
REMARK    2  A    between atoms: O_2  and  C_3
REMARK    3  A    between atoms: C_5  and  C_6
REMARK    4  A    between atoms: C_7  and  C_8
REMARK    5  A    between atoms: N_10  and  C_11
REMARK    6  A    between atoms: N_10  and  C_12
REMARK    7  A    between atoms: C_17  and  C_18
REMARK    8  A    between atoms: C_18  and  O_20
REMARK    9  A    between atoms: C_22  and  O_23
REMARK   10  A    between atoms: O_23  and  C_24
REMARK   11  A    between atoms: C_25  and  O_26
REMARK   12  A    between atoms: O_26  and  C_27
REMARK                            x       y       z     vdW  Elec       q    Type
REMARK                         _______ _______ _______ _____ _____    ______ ____
ROOT
ATOM      1  C   UNL     1       2.802   7.788  18.070  0.00  0.00    +0.000 C 
ATOM      2  C   UNL     1       1.790   8.389  18.706  0.00  0.00    +0.000 C 
ENDROOT
BRANCH   1   5
ATOM      3  C   UNL     1       4.872   4.699  18.610  0.00  0.00    +0.000 A 
ATOM      4  C   UNL     1       4.503   5.995  18.214  0.00  0.00    +0.000 A 
ATOM      5  C   UNL     1       3.167   6.383  18.220  0.00  0.00    +0.000 A 
ATOM      6  C   UNL     1       2.189   5.438  18.509  0.00  0.00    +0.000 A 
ATOM      7  C   UNL     1       2.525   4.114  18.830  0.00  0.00    +0.000 A 
ATOM      8  C   UNL     1       3.883   3.730  18.901  0.00  0.00    +0.000 A 
BRANCH   3  10
ATOM      9  C   UNL     1       6.987   4.697  17.534  0.00  0.00    +0.000 C 
ATOM     10  O   UNL     1       6.200   4.360  18.678  0.00  0.00    +0.000 OA
ENDBRANCH   3  10
BRANCH   7  11
ATOM     11  O   UNL     1       1.400   3.366  19.070  0.00  0.00    +0.000 OA
ATOM     12  C   UNL     1       0.920   3.219  20.396  0.00  0.00    +0.000 C 
ENDBRANCH   7  11
BRANCH   8  13
ATOM     13  O   UNL     1       4.127   2.422  19.229  0.00  0.00    +0.000 OA
ATOM     14  C   UNL     1       3.784   1.384  18.324  0.00  0.00    +0.000 C 
ENDBRANCH   8  13
ENDBRANCH   1   5
BRANCH   2  15
ATOM     15  C   UNL     1       1.638   9.841  18.453  0.00  0.00    +0.000 C 
ATOM     16  O   UNL     1       2.176  10.354  17.470  0.00  0.00    +0.000 OA
ATOM     17  N   UNL     1       1.002  10.591  19.428  0.00  0.00    +0.000 N 
ATOM     18  C   UNL     1       0.710  10.124  20.782  0.00  0.00    +0.000 C 
BRANCH  17  19
ATOM     19  C   UNL     1       0.900  12.003  19.233  0.00  0.00    +0.000 A 
ATOM     20  C   UNL     1       2.011  12.768  19.616  0.00  0.00    +0.000 A 
ATOM     21  C   UNL     1       2.024  14.149  19.421  0.00  0.00    +0.000 A 
ATOM     22  C   UNL     1       0.928  14.785  18.839  0.00  0.00    +0.000 A 
ATOM     23  C   UNL     1      -0.183  14.036  18.456  0.00  0.00    +0.000 A 
ATOM     24  C   UNL     1      -0.216  12.651  18.664  0.00  0.00    +0.000 A 
BRANCH  24  25
ATOM     25  C   UNL     1      -1.444  11.953  18.212  0.00  0.00    +0.000 C 
ATOM     26  O   UNL     1      -2.185  11.363  18.976  0.00  0.00    +0.000 OA
BRANCH  25  27
ATOM     27  O   UNL     1      -1.612  11.963  16.875  0.00  0.00    +0.000 OA
ATOM     28  H   UNL     1      -1.092  11.275  16.400  0.00  0.00    +0.000 HD
ENDBRANCH  25  27
ENDBRANCH  24  25
ENDBRANCH  17  19
ENDBRANCH   2  15
TORSDOF 8
ENDMDL
MODEL 5
REMARK VINA RESULT:      -7.5      6.371     10.431
REMARK  Name = 
REMARK  12 active torsions:
REMARK  status: ('A' for Active; 'I' for Inactive)
REMARK    1  A    between atoms: C_1  and  O_2
REMARK    2  A    between atoms: O_2  and  C_3
REMARK    3  A    between atoms: C_5  and  C_6
REMARK    4  A    between atoms: C_7  and  C_8
REMARK    5  A    between atoms: N_10  and  C_11
REMARK    6  A    between atoms: N_10  and  C_12
REMARK    7  A    between atoms: C_17  and  C_18
REMARK    8  A    between atoms: C_18  and  O_20
REMARK    9  A    between atoms: C_22  and  O_23
REMARK   10  A    between atoms: O_23  and  C_24
REMARK   11  A    between atoms: C_25  and  O_26
REMARK   12  A    between atoms: O_26  and  C_27
REMARK                            x       y       z     vdW  Elec       q    Type
REMARK                         _______ _______ _______ _____ _____    ______ ____
ROOT
ATOM      1  C   UNL     1       2.796   7.869  18.168  0.00  0.00    +0.000 C 
ATOM      2  C   UNL     1       1.595   8.438  18.013  0.00  0.00    +0.000 C 
ENDROOT
BRANCH   1   5
ATOM      3  C   UNL     1       2.214   4.169  17.871  0.00  0.00    +0.000 A 
ATOM      4  C   UNL     1       1.996   5.527  18.156  0.00  0.00    +0.000 A 
ATOM      5  C   UNL     1       3.051   6.432  18.138  0.00  0.00    +0.000 A 
ATOM      6  C   UNL     1       4.346   5.960  17.952  0.00  0.00    +0.000 A 
ATOM      7  C   UNL     1       4.602   4.596  17.745  0.00  0.00    +0.000 A 
ATOM      8  C   UNL     1       3.528   3.679  17.685  0.00  0.00    +0.000 A 
BRANCH   3  10
ATOM      9  C   UNL     1       0.691   2.795  19.064  0.00  0.00    +0.000 C 
ATOM     10  O   UNL     1       1.149   3.306  17.811  0.00  0.00    +0.000 OA
ENDBRANCH   3  10
BRANCH   7  11
ATOM     11  O   UNL     1       5.947   4.367  17.593  0.00  0.00    +0.000 OA
ATOM     12  C   UNL     1       6.522   4.380  16.297  0.00  0.00    +0.000 C 
ENDBRANCH   7  11
BRANCH   8  13
ATOM     13  O   UNL     1       3.863   2.367  17.472  0.00  0.00    +0.000 OA
ATOM     14  C   UNL     1       3.881   1.450  18.555  0.00  0.00    +0.000 C 
ENDBRANCH   8  13
ENDBRANCH   1   5
BRANCH   2  15
ATOM     15  C   UNL     1       1.557   9.913  18.144  0.00  0.00    +0.000 C 
ATOM     16  O   UNL     1       2.289  10.613  17.442  0.00  0.00    +0.000 OA
ATOM     17  N   UNL     1       0.785  10.439  19.167  0.00  0.00    +0.000 N 
ATOM     18  C   UNL     1       0.228   9.664  20.275  0.00  0.00    +0.000 C 
BRANCH  17  19
ATOM     19  C   UNL     1       0.784  11.856  19.351  0.00  0.00    +0.000 A 
ATOM     20  C   UNL     1       1.910  12.405  19.982  0.00  0.00    +0.000 A 
ATOM     21  C   UNL     1       2.020  13.784  20.164  0.00  0.00    +0.000 A 
ATOM     22  C   UNL     1       1.010  14.633  19.715  0.00  0.00    +0.000 A 
ATOM     23  C   UNL     1      -0.114  14.100  19.087  0.00  0.00    +0.000 A 
ATOM     24  C   UNL     1      -0.246  12.716  18.917  0.00  0.00    +0.000 A 
BRANCH  24  25
ATOM     25  C   UNL     1      -1.479  12.258  18.230  0.00  0.00    +0.000 C 
ATOM     26  O   UNL     1      -2.405  11.732  18.820  0.00  0.00    +0.000 OA
BRANCH  25  27
ATOM     27  O   UNL     1      -1.440  12.404  16.891  0.00  0.00    +0.000 OA
ATOM     28  H   UNL     1      -1.938  13.185  16.558  0.00  0.00    +0.000 HD
ENDBRANCH  25  27
ENDBRANCH  24  25
ENDBRANCH  17  19
ENDBRANCH   2  15
TORSDOF 8
ENDMDL
MODEL 6
REMARK VINA RESULT:      -7.5      1.187      3.172
REMARK  Name = 
REMARK  12 active torsions:
REMARK  status: ('A' for Active; 'I' for Inactive)
REMARK    1  A    between atoms: C_1  and  O_2
REMARK    2  A    between atoms: O_2  and  C_3
REMARK    3  A    between atoms: C_5  and  C_6
REMARK    4  A    between atoms: C_7  and  C_8
REMARK    5  A    between atoms: N_10  and  C_11
REMARK    6  A    between atoms: N_10  and  C_12
REMARK    7  A    between atoms: C_17  and  C_18
REMARK    8  A    between atoms: C_18  and  O_20
REMARK    9  A    between atoms: C_22  and  O_23
REMARK   10  A    between atoms: O_23  and  C_24
REMARK   11  A    between atoms: C_25  and  O_26
REMARK   12  A    between atoms: O_26  and  C_27
REMARK                            x       y       z     vdW  Elec       q    Type
REMARK                         _______ _______ _______ _____ _____    ______ ____
ROOT
ATOM      1  C   UNL     1       8.430   9.615  17.813  0.00  0.00    +0.000 C 
ATOM      2  C   UNL     1       8.309   8.375  18.301  0.00  0.00    +0.000 C 
ENDROOT
BRANCH   1   5
ATOM      3  C   UNL     1       9.974  11.810  20.443  0.00  0.00    +0.000 A 
ATOM      4  C   UNL     1       9.061  10.967  19.788  0.00  0.00    +0.000 A 
ATOM      5  C   UNL     1       9.204  10.686  18.434  0.00  0.00    +0.000 A 
ATOM      6  C   UNL     1      10.191  11.342  17.706  0.00  0.00    +0.000 A 
ATOM      7  C   UNL     1      11.067  12.250  18.319  0.00  0.00    +0.000 A 
ATOM      8  C   UNL     1      10.979  12.485  19.710  0.00  0.00    +0.000 A 
BRANCH   3  10
ATOM      9  C   UNL     1       8.812  12.876  22.215  0.00  0.00    +0.000 C 
ATOM     10  O   UNL     1       9.867  12.009  21.797  0.00  0.00    +0.000 OA
ENDBRANCH   3  10
BRANCH   7  11
ATOM     11  O   UNL     1      11.948  12.775  17.406  0.00  0.00    +0.000 OA
ATOM     12  C   UNL     1      11.556  13.872  16.598  0.00  0.00    +0.000 C 
ENDBRANCH   7  11
BRANCH   8  13
ATOM     13  O   UNL     1      11.876  13.380  20.232  0.00  0.00    +0.000 OA
ATOM     14  C   UNL     1      11.574  14.767  20.245  0.00  0.00    +0.000 C 
ENDBRANCH   8  13
ENDBRANCH   1   5
BRANCH   2  15
ATOM     15  C   UNL     1       7.422   7.465  17.539  0.00  0.00    +0.000 C 
ATOM     16  O   UNL     1       6.654   7.921  16.690  0.00  0.00    +0.000 OA
ATOM     17  N   UNL     1       7.397   6.135  17.925  0.00  0.00    +0.000 N 
ATOM     18  C   UNL     1       7.962   5.616  19.170  0.00  0.00    +0.000 C 
BRANCH  17  19
ATOM     19  C   UNL     1       6.502   5.252  17.246  0.00  0.00    +0.000 A 
ATOM     20  C   UNL     1       7.031   4.536  16.164  0.00  0.00    +0.000 A 
ATOM     21  C   UNL     1       6.247   3.616  15.468  0.00  0.00    +0.000 A 
ATOM     22  C   UNL     1       4.922   3.396  15.847  0.00  0.00    +0.000 A 
ATOM     23  C   UNL     1       4.384   4.103  16.919  0.00  0.00    +0.000 A 
ATOM     24  C   UNL     1       5.155   5.045  17.613  0.00  0.00    +0.000 A 
BRANCH  24  25
ATOM     25  C   UNL     1       4.484   5.733  18.743  0.00  0.00    +0.000 C 
ATOM     26  O   UNL     1       4.594   5.364  19.897  0.00  0.00    +0.000 OA
BRANCH  25  27
ATOM     27  O   UNL     1       3.681   6.745  18.361  0.00  0.00    +0.000 OA
ATOM     28  H   UNL     1       2.826   6.453  17.969  0.00  0.00    +0.000 HD
ENDBRANCH  25  27
ENDBRANCH  24  25
ENDBRANCH  17  19
ENDBRANCH   2  15
TORSDOF 8
ENDMDL
MODEL 7
REMARK VINA RESULT:      -7.5      5.655      8.438
REMARK  Name = 
REMARK  12 active torsions:
REMARK  status: ('A' for Active; 'I' for Inactive)
REMARK    1  A    between atoms: C_1  and  O_2
REMARK    2  A    between atoms: O_2  and  C_3
REMARK    3  A    between atoms: C_5  and  C_6
REMARK    4  A    between atoms: C_7  and  C_8
REMARK    5  A    between atoms: N_10  and  C_11
REMARK    6  A    between atoms: N_10  and  C_12
REMARK    7  A    between atoms: C_17  and  C_18
REMARK    8  A    between atoms: C_18  and  O_20
REMARK    9  A    between atoms: C_22  and  O_23
REMARK   10  A    between atoms: O_23  and  C_24
REMARK   11  A    between atoms: C_25  and  O_26
REMARK   12  A    between atoms: O_26  and  C_27
REMARK                            x       y       z     vdW  Elec       q    Type
REMARK                         _______ _______ _______ _____ _____    ______ ____
ROOT
ATOM      1  C   UNL     1       1.856   8.876  18.094  0.00  0.00    +0.000 C 
ATOM      2  C   UNL     1       2.665   7.931  18.587  0.00  0.00    +0.000 C 
ENDROOT
BRANCH   1   5
ATOM      3  C   UNL     1       0.095  10.595  20.933  0.00  0.00    +0.000 A 
ATOM      4  C   UNL     1       0.938   9.716  20.234  0.00  0.00    +0.000 A 
ATOM      5  C   UNL     1       0.824   9.574  18.856  0.00  0.00    +0.000 A 
ATOM      6  C   UNL     1      -0.211  10.222  18.190  0.00  0.00    +0.000 A 
ATOM      7  C   UNL     1      -1.117  11.045  18.877  0.00  0.00    +0.000 A 
ATOM      8  C   UNL     1      -0.963  11.256  20.266  0.00  0.00    +0.000 A 
BRANCH   3  10
ATOM      9  C   UNL     1      -0.410   9.870  23.135  0.00  0.00    +0.000 C 
ATOM     10  O   UNL     1       0.276  10.786  22.281  0.00  0.00    +0.000 OA
ENDBRANCH   3  10
BRANCH   7  11
ATOM     11  O   UNL     1      -2.050  11.570  18.019  0.00  0.00    +0.000 OA
ATOM     12  C   UNL     1      -2.358  10.894  16.811  0.00  0.00    +0.000 C 
ENDBRANCH   7  11
BRANCH   8  13
ATOM     13  O   UNL     1      -1.885  12.078  20.860  0.00  0.00    +0.000 OA
ATOM     14  C   UNL     1      -1.637  13.471  20.963  0.00  0.00    +0.000 C 
ENDBRANCH   8  13
ENDBRANCH   1   5
BRANCH   2  15
ATOM     15  C   UNL     1       3.598   7.309  17.619  0.00  0.00    +0.000 C 
ATOM     16  O   UNL     1       3.598   7.675  16.442  0.00  0.00    +0.000 OA
ATOM     17  N   UNL     1       4.342   6.228  18.061  0.00  0.00    +0.000 N 
ATOM     18  C   UNL     1       4.093   5.495  19.301  0.00  0.00    +0.000 C 
BRANCH  17  19
ATOM     19  C   UNL     1       5.202   5.574  17.126  0.00  0.00    +0.000 A 
ATOM     20  C   UNL     1       4.628   4.547  16.362  0.00  0.00    +0.000 A 
ATOM     21  C   UNL     1       5.376   3.882  15.390  0.00  0.00    +0.000 A 
ATOM     22  C   UNL     1       6.706   4.235  15.167  0.00  0.00    +0.000 A 
ATOM     23  C   UNL     1       7.288   5.251  15.920  0.00  0.00    +0.000 A 
ATOM     24  C   UNL     1       6.554   5.914  16.913  0.00  0.00    +0.000 A 
BRANCH  24  25
ATOM     25  C   UNL     1       7.270   6.984  17.649  0.00  0.00    +0.000 C 
ATOM     26  O   UNL     1       7.301   8.139  17.265  0.00  0.00    +0.000 OA
BRANCH  25  27
ATOM     27  O   UNL     1       7.947   6.543  18.726  0.00  0.00    +0.000 OA
ATOM     28  H   UNL     1       7.824   5.583  18.911  0.00  0.00    +0.000 HD
ENDBRANCH  25  27
ENDBRANCH  24  25
ENDBRANCH  17  19
ENDBRANCH   2  15
TORSDOF 8
ENDMDL
MODEL 8
REMARK VINA RESULT:      -7.4      2.121      9.081
REMARK  Name = 
REMARK  12 active torsions:
REMARK  status: ('A' for Active; 'I' for Inactive)
REMARK    1  A    between atoms: C_1  and  O_2
REMARK    2  A    between atoms: O_2  and  C_3
REMARK    3  A    between atoms: C_5  and  C_6
REMARK    4  A    between atoms: C_7  and  C_8
REMARK    5  A    between atoms: N_10  and  C_11
REMARK    6  A    between atoms: N_10  and  C_12
REMARK    7  A    between atoms: C_17  and  C_18
REMARK    8  A    between atoms: C_18  and  O_20
REMARK    9  A    between atoms: C_22  and  O_23
REMARK   10  A    between atoms: O_23  and  C_24
REMARK   11  A    between atoms: C_25  and  O_26
REMARK   12  A    between atoms: O_26  and  C_27
REMARK                            x       y       z     vdW  Elec       q    Type
REMARK                         _______ _______ _______ _____ _____    ______ ____
ROOT
ATOM      1  C   UNL     1       7.819   7.990  17.734  0.00  0.00    +0.000 C 
ATOM      2  C   UNL     1       7.691   9.321  17.797  0.00  0.00    +0.000 C 
ENDROOT
BRANCH   1   5
ATOM      3  C   UNL     1       6.133   4.939  16.332  0.00  0.00    +0.000 A 
ATOM      4  C   UNL     1       7.079   5.957  16.530  0.00  0.00    +0.000 A 
ATOM      5  C   UNL     1       6.770   7.069  17.307  0.00  0.00    +0.000 A 
ATOM      6  C   UNL     1       5.474   7.220  17.788  0.00  0.00    +0.000 A 
ATOM      7  C   UNL     1       4.486   6.256  17.537  0.00  0.00    +0.000 A 
ATOM      8  C   UNL     1       4.811   5.086  16.814  0.00  0.00    +0.000 A 
BRANCH   3  10
ATOM      9  C   UNL     1       6.356   3.895  14.213  0.00  0.00    +0.000 C 
ATOM     10  O   UNL     1       6.483   3.810  15.633  0.00  0.00    +0.000 OA
ENDBRANCH   3  10
BRANCH   7  11
ATOM     11  O   UNL     1       3.290   6.620  18.103  0.00  0.00    +0.000 OA
ATOM     12  C   UNL     1       2.994   6.235  19.435  0.00  0.00    +0.000 C 
ENDBRANCH   7  11
BRANCH   8  13
ATOM     13  O   UNL     1       3.791   4.191  16.619  0.00  0.00    +0.000 OA
ATOM     14  C   UNL     1       3.610   3.109  17.519  0.00  0.00    +0.000 C 
ENDBRANCH   8  13
ENDBRANCH   1   5
BRANCH   2  15
ATOM     15  C   UNL     1       8.864  10.058  18.321  0.00  0.00    +0.000 C 
ATOM     16  O   UNL     1       9.619   9.520  19.132  0.00  0.00    +0.000 OA
ATOM     17  N   UNL     1       8.979  11.394  17.972  0.00  0.00    +0.000 N 
ATOM     18  C   UNL     1       7.917  12.192  17.360  0.00  0.00    +0.000 C 
BRANCH  17  19
ATOM     19  C   UNL     1      10.068  12.142  18.516  0.00  0.00    +0.000 A 
ATOM     20  C   UNL     1      11.139  12.406  17.651  0.00  0.00    +0.000 A 
ATOM     21  C   UNL     1      12.226  13.169  18.078  0.00  0.00    +0.000 A 
ATOM     22  C   UNL     1      12.258  13.679  19.375  0.00  0.00    +0.000 A 
ATOM     23  C   UNL     1      11.201  13.422  20.245  0.00  0.00    +0.000 A 
ATOM     24  C   UNL     1      10.112  12.641  19.835  0.00  0.00    +0.000 A 
BRANCH  24  25
ATOM     25  C   UNL     1       9.040  12.438  20.839  0.00  0.00    +0.000 C 
ATOM     26  O   UNL     1       8.181  13.271  21.063  0.00  0.00    +0.000 OA
BRANCH  25  27
ATOM     27  O   UNL     1       9.157  11.289  21.533  0.00  0.00    +0.000 OA
ATOM     28  H   UNL     1       8.420  11.125  22.165  0.00  0.00    +0.000 HD
ENDBRANCH  25  27
ENDBRANCH  24  25
ENDBRANCH  17  19
ENDBRANCH   2  15
TORSDOF 8
ENDMDL
MODEL 9
REMARK VINA RESULT:      -7.3      6.544     10.311
REMARK  Name = 
REMARK  12 active torsions:
REMARK  status: ('A' for Active; 'I' for Inactive)
REMARK    1  A    between atoms: C_1  and  O_2
REMARK    2  A    between atoms: O_2  and  C_3
REMARK    3  A    between atoms: C_5  and  C_6
REMARK    4  A    between atoms: C_7  and  C_8
REMARK    5  A    between atoms: N_10  and  C_11
REMARK    6  A    between atoms: N_10  and  C_12
REMARK    7  A    between atoms: C_17  and  C_18
REMARK    8  A    between atoms: C_18  and  O_20
REMARK    9  A    between atoms: C_22  and  O_23
REMARK   10  A    between atoms: O_23  and  C_24
REMARK   11  A    between atoms: C_25  and  O_26
REMARK   12  A    between atoms: O_26  and  C_27
REMARK                            x       y       z     vdW  Elec       q    Type
REMARK                         _______ _______ _______ _____ _____    ______ ____
ROOT
ATOM      1  C   UNL     1       2.787   7.711  18.373  0.00  0.00    +0.000 C 
ATOM      2  C   UNL     1       1.792   8.302  19.046  0.00  0.00    +0.000 C 
ENDROOT
BRANCH   1   5
ATOM      3  C   UNL     1       3.130   4.282  19.869  0.00  0.00    +0.000 A 
ATOM      4  C   UNL     1       2.881   5.659  19.754  0.00  0.00    +0.000 A 
ATOM      5  C   UNL     1       3.272   6.356  18.616  0.00  0.00    +0.000 A 
ATOM      6  C   UNL     1       4.019   5.701  17.643  0.00  0.00    +0.000 A 
ATOM      7  C   UNL     1       4.351   4.343  17.770  0.00  0.00    +0.000 A 
ATOM      8  C   UNL     1       3.893   3.608  18.886  0.00  0.00    +0.000 A 
BRANCH   3  10
ATOM      9  C   UNL     1       1.282   3.230  20.920  0.00  0.00    +0.000 C 
ATOM     10  O   UNL     1       2.663   3.594  20.961  0.00  0.00    +0.000 OA
ENDBRANCH   3  10
BRANCH   7  11
ATOM     11  O   UNL     1       5.093   3.917  16.697  0.00  0.00    +0.000 OA
ATOM     12  C   UNL     1       6.299   4.585  16.363  0.00  0.00    +0.000 C 
ENDBRANCH   7  11
BRANCH   8  13
ATOM     13  O   UNL     1       4.254   2.286  18.931  0.00  0.00    +0.000 OA
ATOM     14  C   UNL     1       3.428   1.300  18.333  0.00  0.00    +0.000 C 
ENDBRANCH   8  13
ENDBRANCH   1   5
BRANCH   2  15
ATOM     15  C   UNL     1       1.507   9.707  18.675  0.00  0.00    +0.000 C 
ATOM     16  O   UNL     1       1.870  10.142  17.581  0.00  0.00    +0.000 OA
ATOM     17  N   UNL     1       0.957  10.521  19.653  0.00  0.00    +0.000 N 
ATOM     18  C   UNL     1       0.883  10.185  21.074  0.00  0.00    +0.000 C 
BRANCH  17  19
ATOM     19  C   UNL     1       0.732  11.896  19.338  0.00  0.00    +0.000 A 
ATOM     20  C   UNL     1       1.747  12.794  19.697  0.00  0.00    +0.000 A 
ATOM     21  C   UNL     1       1.639  14.150  19.389  0.00  0.00    +0.000 A 
ATOM     22  C   UNL     1       0.516  14.627  18.714  0.00  0.00    +0.000 A 
ATOM     23  C   UNL     1      -0.500  13.746  18.352  0.00  0.00    +0.000 A 
ATOM     24  C   UNL     1      -0.413  12.385  18.674  0.00  0.00    +0.000 A 
BRANCH  24  25
ATOM     25  C   UNL     1      -1.547  11.536  18.234  0.00  0.00    +0.000 C 
ATOM     26  O   UNL     1      -2.585  11.447  18.863  0.00  0.00    +0.000 OA
BRANCH  25  27
ATOM     27  O   UNL     1      -1.287  10.816  17.126  0.00  0.00    +0.000 OA
ATOM     28  H   UNL     1      -1.024   9.884  17.306  0.00  0.00    +0.000 HD
ENDBRANCH  25  27
ENDBRANCH  24  25
ENDBRANCH  17  19
ENDBRANCH   2  15
TORSDOF 8
ENDMDL
