MODEL 1
REMARK VINA RESULT:      -7.1      0.000      0.000
REMARK  Name = 
REMARK  3 active torsions:
REMARK  status: ('A' for Active; 'I' for Inactive)
REMARK    1  A    between atoms: N_3  and  C_4
REMARK    2  A    between atoms: C_4  and  C_5
REMARK    3  A    between atoms: C_12  and  C_13
REMARK                            x       y       z     vdW  Elec       q    Type
REMARK                         _______ _______ _______ _____ _____    ______ ____
ROOT
ATOM      1  C   UNL     1       4.385   3.667  17.894  0.00  0.00    +0.000 C 
ATOM      2  C   UNL     1       4.063   2.303  17.263  0.00  0.00    +0.000 C 
ATOM      3  C   UNL     1       3.693   1.446  18.461  0.00  0.00    +0.000 C 
ATOM      4  C   UNL     1       2.954   2.413  19.378  0.00  0.00    +0.000 C 
ATOM      5  N   UNL     1       3.506   3.734  19.071  0.00  0.00    +0.000 N 
ATOM      6  C   UNL     1       2.910   4.867  19.546  0.00  0.00    +0.000 A 
ATOM      7  N   UNL     1       3.079   6.095  19.098  0.00  0.00    +0.000 NA
ATOM      8  C   UNL     1       2.223   6.966  19.775  0.00  0.00    +0.000 A 
ATOM      9  N   UNL     1       1.493   6.507  20.790  0.00  0.00    +0.000 NA
ATOM     10  S   UNL     1       1.804   4.881  20.899  0.00  0.00    +0.000 S 
ENDROOT
BRANCH   8  11
ATOM     11  C   UNL     1       2.107   8.407  19.394  0.00  0.00    +0.000 C 
ATOM     12  C   UNL     1       1.818   8.653  17.917  0.00  0.00    +0.000 C 
ATOM     13  C   UNL     1       1.353  10.101  17.879  0.00  0.00    +0.000 C 
ATOM     14  C   UNL     1       0.652  10.347  19.212  0.00  0.00    +0.000 C 
ATOM     15  C   UNL     1       0.965   9.141  20.098  0.00  0.00    +0.000 C 
ENDBRANCH   8  11
BRANCH   1  16
ATOM     16  C   UNL     1       4.417   4.819  16.883  0.00  0.00    +0.000 C 
BRANCH  16  19
ATOM     17  C   UNL     1       6.843   4.770  14.268  0.00  0.00    +0.000 A 
ATOM     18  C   UNL     1       5.620   4.355  14.733  0.00  0.00    +0.000 A 
ATOM     19  N   UNL     1       5.524   4.950  15.968  0.00  0.00    +0.000 N 
ATOM     20  N   UNL     1       6.587   5.740  16.201  0.00  0.00    +0.000 NA
ATOM     21  N   UNL     1       7.414   5.618  15.172  0.00  0.00    +0.000 NA
ENDBRANCH  16  19
ENDBRANCH   1  16
TORSDOF 3
ENDMDL
MODEL 2
REMARK VINA RESULT:      -7.0      2.925      5.638
REMARK  Name = 
REMARK  3 active torsions:
REMARK  status: ('A' for Active; 'I' for Inactive)
REMARK    1  A    between atoms: N_3  and  C_4
REMARK    2  A    between atoms: C_4  and  C_5
REMARK    3  A    between atoms: C_12  and  C_13
REMARK                            x       y       z     vdW  Elec       q    Type
REMARK                         _______ _______ _______ _____ _____    ______ ____
ROOT
ATOM      1  C   UNL     1       2.197   5.111  18.463  0.00  0.00    +0.000 C 
ATOM      2  C   UNL     1       1.375   4.137  19.324  0.00  0.00    +0.000 C 
ATOM      3  C   UNL     1       1.217   2.926  18.422  0.00  0.00    +0.000 C 
ATOM      4  C   UNL     1       2.548   2.854  17.682  0.00  0.00    +0.000 C 
ATOM      5  N   UNL     1       3.037   4.234  17.634  0.00  0.00    +0.000 N 
ATOM      6  C   UNL     1       4.316   4.508  17.244  0.00  0.00    +0.000 A 
ATOM      7  N   UNL     1       4.988   5.621  17.463  0.00  0.00    +0.000 NA
ATOM      8  C   UNL     1       6.297   5.481  16.998  0.00  0.00    +0.000 A 
ATOM      9  N   UNL     1       6.641   4.377  16.336  0.00  0.00    +0.000 NA
ATOM     10  S   UNL     1       5.305   3.394  16.329  0.00  0.00    +0.000 S 
ENDROOT
BRANCH   8  11
ATOM     11  C   UNL     1       7.326   6.542  17.221  0.00  0.00    +0.000 C 
ATOM     12  C   UNL     1       6.801   7.969  17.120  0.00  0.00    +0.000 C 
ATOM     13  C   UNL     1       7.896   8.802  17.770  0.00  0.00    +0.000 C 
ATOM     14  C   UNL     1       8.512   7.910  18.844  0.00  0.00    +0.000 C 
ATOM     15  C   UNL     1       7.962   6.503  18.611  0.00  0.00    +0.000 C 
ENDBRANCH   8  11
BRANCH   1  16
ATOM     16  C   UNL     1       2.826   6.257  19.264  0.00  0.00    +0.000 C 
BRANCH  16  19
ATOM     17  C   UNL     1       1.492   9.512  18.665  0.00  0.00    +0.000 A 
ATOM     18  C   UNL     1       2.133   8.403  18.169  0.00  0.00    +0.000 A 
ATOM     19  N   UNL     1       2.219   7.566  19.254  0.00  0.00    +0.000 N 
ATOM     20  N   UNL     1       1.599   8.101  20.321  0.00  0.00    +0.000 NA
ATOM     21  N   UNL     1       1.169   9.305  19.975  0.00  0.00    +0.000 NA
ENDBRANCH  16  19
ENDBRANCH   1  16
TORSDOF 3
ENDMDL
MODEL 3
REMARK VINA RESULT:      -7.0      2.672      5.667
REMARK  Name = 
REMARK  3 active torsions:
REMARK  status: ('A' for Active; 'I' for Inactive)
REMARK    1  A    between atoms: N_3  and  C_4
REMARK    2  A    between atoms: C_4  and  C_5
REMARK    3  A    between atoms: C_12  and  C_13
REMARK                            x       y       z     vdW  Elec       q    Type
REMARK                         _______ _______ _______ _____ _____    ______ ____
ROOT
ATOM      1  C   UNL     1       1.776   4.958  19.224  0.00  0.00    +0.000 C 
ATOM      2  C   UNL     1       1.040   4.094  20.261  0.00  0.00    +0.000 C 
ATOM      3  C   UNL     1       0.706   2.832  19.484  0.00  0.00    +0.000 C 
ATOM      4  C   UNL     1       1.917   2.637  18.580  0.00  0.00    +0.000 C 
ATOM      5  N   UNL     1       2.455   3.981  18.359  0.00  0.00    +0.000 N 
ATOM      6  C   UNL     1       3.678   4.158  17.781  0.00  0.00    +0.000 A 
ATOM      7  N   UNL     1       4.421   5.246  17.819  0.00  0.00    +0.000 NA
ATOM      8  C   UNL     1       5.646   5.003  17.195  0.00  0.00    +0.000 A 
ATOM      9  N   UNL     1       5.847   3.839  16.580  0.00  0.00    +0.000 NA
ATOM     10  S   UNL     1       4.482   2.931  16.829  0.00  0.00    +0.000 S 
ENDROOT
BRANCH   8  11
ATOM     11  C   UNL     1       6.741   6.021  17.194  0.00  0.00    +0.000 C 
ATOM     12  C   UNL     1       6.265   7.468  17.154  0.00  0.00    +0.000 C 
ATOM     13  C   UNL     1       7.495   8.263  17.566  0.00  0.00    +0.000 C 
ATOM     14  C   UNL     1       8.264   7.365  18.531  0.00  0.00    +0.000 C 
ATOM     15  C   UNL     1       7.623   5.980  18.443  0.00  0.00    +0.000 C 
ENDBRANCH   8  11
BRANCH   1  16
ATOM     16  C   UNL     1       2.559   6.123  19.841  0.00  0.00    +0.000 C 
BRANCH  16  19
ATOM     17  C   UNL     1       1.057   9.317  20.364  0.00  0.00    +0.000 A 
ATOM     18  C   UNL     1       1.420   8.098  20.883  0.00  0.00    +0.000 A 
ATOM     19  N   UNL     1       2.010   7.457  19.821  0.00  0.00    +0.000 N 
ATOM     20  N   UNL     1       2.071   8.266  18.749  0.00  0.00    +0.000 NA
ATOM     21  N   UNL     1       1.469   9.402  19.065  0.00  0.00    +0.000 NA
ENDBRANCH  16  19
ENDBRANCH   1  16
TORSDOF 3
ENDMDL
MODEL 4
REMARK VINA RESULT:      -6.9      1.157      1.413
REMARK  Name = 
REMARK  3 active torsions:
REMARK  status: ('A' for Active; 'I' for Inactive)
REMARK    1  A    between atoms: N_3  and  C_4
REMARK    2  A    between atoms: C_4  and  C_5
REMARK    3  A    between atoms: C_12  and  C_13
REMARK                            x       y       z     vdW  Elec       q    Type
REMARK                         _______ _______ _______ _____ _____    ______ ____
ROOT
ATOM      1  C   UNL     1       4.414   3.645  18.050  0.00  0.00    +0.000 C 
ATOM      2  C   UNL     1       4.126   2.321  17.322  0.00  0.00    +0.000 C 
ATOM      3  C   UNL     1       3.619   1.419  18.433  0.00  0.00    +0.000 C 
ATOM      4  C   UNL     1       2.813   2.361  19.320  0.00  0.00    +0.000 C 
ATOM      5  N   UNL     1       3.422   3.681  19.135  0.00  0.00    +0.000 N 
ATOM      6  C   UNL     1       2.807   4.805  19.604  0.00  0.00    +0.000 A 
ATOM      7  N   UNL     1       3.047   6.048  19.236  0.00  0.00    +0.000 NA
ATOM      8  C   UNL     1       2.146   6.909  19.867  0.00  0.00    +0.000 A 
ATOM      9  N   UNL     1       1.307   6.422  20.781  0.00  0.00    +0.000 NA
ATOM     10  S   UNL     1       1.570   4.785  20.839  0.00  0.00    +0.000 S 
ENDROOT
BRANCH   8  11
ATOM     11  C   UNL     1       2.101   8.368  19.548  0.00  0.00    +0.000 C 
ATOM     12  C   UNL     1       1.897   8.692  18.072  0.00  0.00    +0.000 C 
ATOM     13  C   UNL     1       1.486  10.156  18.078  0.00  0.00    +0.000 C 
ATOM     14  C   UNL     1       0.727  10.368  19.385  0.00  0.00    +0.000 C 
ATOM     15  C   UNL     1       0.951   9.113  20.228  0.00  0.00    +0.000 C 
ENDBRANCH   8  11
BRANCH   1  16
ATOM     16  C   UNL     1       4.572   4.842  17.105  0.00  0.00    +0.000 C 
BRANCH  16  19
ATOM     17  C   UNL     1       7.492   6.720  17.931  0.00  0.00    +0.000 A 
ATOM     18  C   UNL     1       6.624   5.708  18.258  0.00  0.00    +0.000 A 
ATOM     19  N   UNL     1       5.711   5.719  17.231  0.00  0.00    +0.000 N 
ATOM     20  N   UNL     1       6.051   6.629  16.301  0.00  0.00    +0.000 NA
ATOM     21  N   UNL     1       7.130   7.264  16.732  0.00  0.00    +0.000 NA
ENDBRANCH  16  19
ENDBRANCH   1  16
TORSDOF 3
ENDMDL
MODEL 5
REMARK VINA RESULT:      -6.9      2.748      4.924
REMARK  Name = 
REMARK  3 active torsions:
REMARK  status: ('A' for Active; 'I' for Inactive)
REMARK    1  A    between atoms: N_3  and  C_4
REMARK    2  A    between atoms: C_4  and  C_5
REMARK    3  A    between atoms: C_12  and  C_13
REMARK                            x       y       z     vdW  Elec       q    Type
REMARK                         _______ _______ _______ _____ _____    ______ ____
ROOT
ATOM      1  C   UNL     1       3.758   5.570  18.410  0.00  0.00    +0.000 C 
ATOM      2  C   UNL     1       5.229   5.392  17.999  0.00  0.00    +0.000 C 
ATOM      3  C   UNL     1       5.312   6.137  16.678  0.00  0.00    +0.000 C 
ATOM      4  C   UNL     1       4.384   7.330  16.882  0.00  0.00    +0.000 C 
ATOM      5  N   UNL     1       3.387   6.881  17.857  0.00  0.00    +0.000 N 
ATOM      6  C   UNL     1       2.536   7.772  18.444  0.00  0.00    +0.000 A 
ATOM      7  N   UNL     1       1.838   7.588  19.547  0.00  0.00    +0.000 NA
ATOM      8  C   UNL     1       1.163   8.765  19.880  0.00  0.00    +0.000 A 
ATOM      9  N   UNL     1       1.206   9.801  19.044  0.00  0.00    +0.000 NA
ATOM     10  S   UNL     1       2.194   9.356  17.788  0.00  0.00    +0.000 S 
ENDROOT
BRANCH   8  11
ATOM     11  C   UNL     1       0.387   8.891  21.151  0.00  0.00    +0.000 C 
ATOM     12  C   UNL     1       1.239   9.000  22.410  0.00  0.00    +0.000 C 
ATOM     13  C   UNL     1       0.267   9.516  23.459  0.00  0.00    +0.000 C 
ATOM     14  C   UNL     1      -0.731  10.390  22.705  0.00  0.00    +0.000 C 
ATOM     15  C   UNL     1      -0.490  10.142  21.216  0.00  0.00    +0.000 C 
ENDBRANCH   8  11
BRANCH   1  16
ATOM     16  C   UNL     1       3.490   5.247  19.884  0.00  0.00    +0.000 C 
BRANCH  16  19
ATOM     17  C   UNL     1       1.418   2.710  21.300  0.00  0.00    +0.000 A 
ATOM     18  C   UNL     1       2.058   3.915  21.454  0.00  0.00    +0.000 A 
ATOM     19  N   UNL     1       2.670   4.114  20.240  0.00  0.00    +0.000 N 
ATOM     20  N   UNL     1       2.355   3.130  19.380  0.00  0.00    +0.000 NA
ATOM     21  N   UNL     1       1.605   2.251  20.028  0.00  0.00    +0.000 NA
ENDBRANCH  16  19
ENDBRANCH   1  16
TORSDOF 3
ENDMDL
MODEL 6
REMARK VINA RESULT:      -6.8      3.132      5.382
REMARK  Name = 
REMARK  3 active torsions:
REMARK  status: ('A' for Active; 'I' for Inactive)
REMARK    1  A    between atoms: N_3  and  C_4
REMARK    2  A    between atoms: C_4  and  C_5
REMARK    3  A    between atoms: C_12  and  C_13
REMARK                            x       y       z     vdW  Elec       q    Type
REMARK                         _______ _______ _______ _____ _____    ______ ____
ROOT
ATOM      1  C   UNL     1       2.600   6.139  18.797  0.00  0.00    +0.000 C 
ATOM      2  C   UNL     1       4.043   5.625  18.659  0.00  0.00    +0.000 C 
ATOM      3  C   UNL     1       4.525   6.285  17.379  0.00  0.00    +0.000 C 
ATOM      4  C   UNL     1       3.866   7.660  17.415  0.00  0.00    +0.000 C 
ATOM      5  N   UNL     1       2.637   7.478  18.191  0.00  0.00    +0.000 N 
ATOM      6  C   UNL     1       1.915   8.556  18.617  0.00  0.00    +0.000 A 
ATOM      7  N   UNL     1       1.009   8.571  19.574  0.00  0.00    +0.000 NA
ATOM      8  C   UNL     1       0.566   9.879  19.783  0.00  0.00    +0.000 A 
ATOM      9  N   UNL     1       0.987  10.849  18.973  0.00  0.00    +0.000 NA
ATOM     10  S   UNL     1       2.059  10.151  17.916  0.00  0.00    +0.000 S 
ENDROOT
BRANCH   8  11
ATOM     11  C   UNL     1      -0.376  10.220  20.892  0.00  0.00    +0.000 C 
ATOM     12  C   UNL     1      -0.102   9.497  22.206  0.00  0.00    +0.000 C 
ATOM     13  C   UNL     1      -0.896  10.296  23.229  0.00  0.00    +0.000 C 
ATOM     14  C   UNL     1      -0.893  11.736  22.722  0.00  0.00    +0.000 C 
ATOM     15  C   UNL     1      -0.347  11.695  21.295  0.00  0.00    +0.000 C 
ENDBRANCH   8  11
BRANCH   1  16
ATOM     16  C   UNL     1       2.008   5.937  20.196  0.00  0.00    +0.000 C 
BRANCH  16  19
ATOM     17  C   UNL     1       1.202   2.570  21.057  0.00  0.00    +0.000 A 
ATOM     18  C   UNL     1       1.027   3.630  20.202  0.00  0.00    +0.000 A 
ATOM     19  N   UNL     1       1.838   4.606  20.727  0.00  0.00    +0.000 N 
ATOM     20  N   UNL     1       2.523   4.140  21.787  0.00  0.00    +0.000 NA
ATOM     21  N   UNL     1       2.122   2.897  22.011  0.00  0.00    +0.000 NA
ENDBRANCH  16  19
ENDBRANCH   1  16
TORSDOF 3
ENDMDL
MODEL 7
REMARK VINA RESULT:      -6.4      2.740      5.662
REMARK  Name = 
REMARK  3 active torsions:
REMARK  status: ('A' for Active; 'I' for Inactive)
REMARK    1  A    between atoms: N_3  and  C_4
REMARK    2  A    between atoms: C_4  and  C_5
REMARK    3  A    between atoms: C_12  and  C_13
REMARK                            x       y       z     vdW  Elec       q    Type
REMARK                         _______ _______ _______ _____ _____    ______ ____
ROOT
ATOM      1  C   UNL     1       1.491   4.387  19.410  0.00  0.00    +0.000 C 
ATOM      2  C   UNL     1       0.838   3.152  20.052  0.00  0.00    +0.000 C 
ATOM      3  C   UNL     1       0.735   2.174  18.896  0.00  0.00    +0.000 C 
ATOM      4  C   UNL     1       2.007   2.430  18.095  0.00  0.00    +0.000 C 
ATOM      5  N   UNL     1       2.350   3.831  18.354  0.00  0.00    +0.000 N 
ATOM      6  C   UNL     1       3.562   4.334  17.978  0.00  0.00    +0.000 A 
ATOM      7  N   UNL     1       4.132   5.436  18.423  0.00  0.00    +0.000 NA
ATOM      8  C   UNL     1       5.410   5.560  17.874  0.00  0.00    +0.000 A 
ATOM      9  N   UNL     1       5.812   4.688  16.950  0.00  0.00    +0.000 NA
ATOM     10  S   UNL     1       4.586   3.585  16.775  0.00  0.00    +0.000 S 
ENDROOT
BRANCH   8  11
ATOM     11  C   UNL     1       6.341   6.652  18.292  0.00  0.00    +0.000 C 
ATOM     12  C   UNL     1       7.706   6.176  18.773  0.00  0.00    +0.000 C 
ATOM     13  C   UNL     1       8.560   7.435  18.738  0.00  0.00    +0.000 C 
ATOM     14  C   UNL     1       8.009   8.276  17.590  0.00  0.00    +0.000 C 
ATOM     15  C   UNL     1       6.690   7.629  17.168  0.00  0.00    +0.000 C 
ENDBRANCH   8  11
BRANCH   1  16
ATOM     16  C   UNL     1       2.060   5.381  20.429  0.00  0.00    +0.000 C 
BRANCH  16  19
ATOM     17  C   UNL     1       1.023   8.780  20.752  0.00  0.00    +0.000 A 
ATOM     18  C   UNL     1       1.129   7.533  21.317  0.00  0.00    +0.000 A 
ATOM     19  N   UNL     1       1.731   6.782  20.336  0.00  0.00    +0.000 N 
ATOM     20  N   UNL     1       2.042   7.546  19.274  0.00  0.00    +0.000 NA
ATOM     21  N   UNL     1       1.591   8.769  19.510  0.00  0.00    +0.000 NA
ENDBRANCH  16  19
ENDBRANCH   1  16
TORSDOF 3
ENDMDL
MODEL 8
REMARK VINA RESULT:      -6.1      7.742     11.328
REMARK  Name = 
REMARK  3 active torsions:
REMARK  status: ('A' for Active; 'I' for Inactive)
REMARK    1  A    between atoms: N_3  and  C_4
REMARK    2  A    between atoms: C_4  and  C_5
REMARK    3  A    between atoms: C_12  and  C_13
REMARK                            x       y       z     vdW  Elec       q    Type
REMARK                         _______ _______ _______ _____ _____    ______ ____
ROOT
ATOM      1  C   UNL     1      -3.253  13.158  22.317  0.00  0.00    +0.000 C 
ATOM      2  C   UNL     1      -3.076  14.372  23.244  0.00  0.00    +0.000 C 
ATOM      3  C   UNL     1      -1.761  14.082  23.946  0.00  0.00    +0.000 C 
ATOM      4  C   UNL     1      -0.917  13.416  22.866  0.00  0.00    +0.000 C 
ATOM      5  N   UNL     1      -1.878  12.768  21.970  0.00  0.00    +0.000 N 
ATOM      6  C   UNL     1      -1.481  12.270  20.763  0.00  0.00    +0.000 A 
ATOM      7  N   UNL     1      -2.255  11.973  19.738  0.00  0.00    +0.000 NA
ATOM      8  C   UNL     1      -1.469  11.585  18.651  0.00  0.00    +0.000 A 
ATOM      9  N   UNL     1      -0.153  11.454  18.809  0.00  0.00    +0.000 NA
ATOM     10  S   UNL     1       0.182  11.901  20.371  0.00  0.00    +0.000 S 
ENDROOT
BRANCH   8  11
ATOM     11  C   UNL     1      -2.068  11.306  17.310  0.00  0.00    +0.000 C 
ATOM     12  C   UNL     1      -1.921   9.866  16.834  0.00  0.00    +0.000 C 
ATOM     13  C   UNL     1      -2.929   9.756  15.700  0.00  0.00    +0.000 C 
ATOM     14  C   UNL     1      -4.070  10.702  16.068  0.00  0.00    +0.000 C 
ATOM     15  C   UNL     1      -3.578  11.539  17.249  0.00  0.00    +0.000 C 
ENDBRANCH   8  11
BRANCH   1  16
ATOM     16  C   UNL     1      -4.299  13.374  21.217  0.00  0.00    +0.000 C 
BRANCH  16  19
ATOM     17  C   UNL     1      -7.156  11.345  20.547  0.00  0.00    +0.000 A 
ATOM     18  C   UNL     1      -6.041  11.986  20.066  0.00  0.00    +0.000 A 
ATOM     19  N   UNL     1      -5.494  12.566  21.184  0.00  0.00    +0.000 N 
ATOM     20  N   UNL     1      -6.189  12.230  22.286  0.00  0.00    +0.000 NA
ATOM     21  N   UNL     1      -7.225  11.499  21.901  0.00  0.00    +0.000 NA
ENDBRANCH  16  19
ENDBRANCH   1  16
TORSDOF 3
ENDMDL
MODEL 9
REMARK VINA RESULT:      -6.0      3.214      6.110
REMARK  Name = 
REMARK  3 active torsions:
REMARK  status: ('A' for Active; 'I' for Inactive)
REMARK    1  A    between atoms: N_3  and  C_4
REMARK    2  A    between atoms: C_4  and  C_5
REMARK    3  A    between atoms: C_12  and  C_13
REMARK                            x       y       z     vdW  Elec       q    Type
REMARK                         _______ _______ _______ _____ _____    ______ ____
ROOT
ATOM      1  C   UNL     1       3.600   2.756  20.843  0.00  0.00    +0.000 C 
ATOM      2  C   UNL     1       2.311   2.151  21.424  0.00  0.00    +0.000 C 
ATOM      3  C   UNL     1       1.462   3.372  21.729  0.00  0.00    +0.000 C 
ATOM      4  C   UNL     1       1.787   4.329  20.587  0.00  0.00    +0.000 C 
ATOM      5  N   UNL     1       3.148   3.983  20.170  0.00  0.00    +0.000 N 
ATOM      6  C   UNL     1       3.673   4.487  19.016  0.00  0.00    +0.000 A 
ATOM      7  N   UNL     1       4.715   4.024  18.354  0.00  0.00    +0.000 NA
ATOM      8  C   UNL     1       4.881   4.748  17.171  0.00  0.00    +0.000 A 
ATOM      9  N   UNL     1       4.108   5.807  16.939  0.00  0.00    +0.000 NA
ATOM     10  S   UNL     1       3.045   5.904  18.208  0.00  0.00    +0.000 S 
ENDROOT
BRANCH   8  11
ATOM     11  C   UNL     1       5.912   4.367  16.157  0.00  0.00    +0.000 C 
ATOM     12  C   UNL     1       5.349   3.933  14.809  0.00  0.00    +0.000 C 
ATOM     13  C   UNL     1       6.550   4.004  13.878  0.00  0.00    +0.000 C 
ATOM     14  C   UNL     1       7.423   5.135  14.413  0.00  0.00    +0.000 C 
ATOM     15  C   UNL     1       6.862   5.507  15.786  0.00  0.00    +0.000 C 
ENDBRANCH   8  11
BRANCH   1  16
ATOM     16  C   UNL     1       4.473   1.739  20.098  0.00  0.00    +0.000 C 
BRANCH  16  19
ATOM     17  C   UNL     1       6.470  -0.882  21.465  0.00  0.00    +0.000 A 
ATOM     18  C   UNL     1       5.688  -0.428  20.432  0.00  0.00    +0.000 A 
ATOM     19  N   UNL     1       5.318   0.832  20.835  0.00  0.00    +0.000 N 
ATOM     20  N   UNL     1       5.905   1.151  22.003  0.00  0.00    +0.000 NA
ATOM     21  N   UNL     1       6.596   0.097  22.408  0.00  0.00    +0.000 NA
ENDBRANCH  16  19
ENDBRANCH   1  16
TORSDOF 3
ENDMDL
