MODEL 1
REMARK VINA RESULT:      -7.8      0.000      0.000
REMARK  Name = 
REMARK  6 active torsions:
REMARK  status: ('A' for Active; 'I' for Inactive)
REMARK    1  A    between atoms: C_1  and  C_2
REMARK    2  A    between atoms: C_2  and  O_3
REMARK    3  A    between atoms: O_3  and  C_4
REMARK    4  A    between atoms: C_9  and  C_10
REMARK    5  A    between atoms: C_14  and  C_16
REMARK    6  A    between atoms: N_19  and  C_20
REMARK                            x       y       z     vdW  Elec       q    Type
REMARK                         _______ _______ _______ _____ _____    ______ ____
ROOT
ATOM      1  C   UNL     1       1.162   9.721  19.213  0.00  0.00    +0.000 C 
ATOM      2  C   UNL     1       1.077   9.199  20.451  0.00  0.00    +0.000 C 
ATOM      3  C   UNL     1       1.564   7.820  20.835  0.00  0.00    +0.000 C 
ATOM      4  N   UNL     1       1.966   7.039  19.659  0.00  0.00    +0.000 N 
ATOM      5  C   UNL     1       1.868   5.649  19.721  0.00  0.00    +0.000 C 
ATOM      6  O   UNL     1       1.471   5.075  20.741  0.00  0.00    +0.000 OA
ATOM      7  C   UNL     1       2.668   7.798  18.624  0.00  0.00    +0.000 C 
ATOM      8  C   UNL     1       1.815   8.958  18.095  0.00  0.00    +0.000 C 
ENDROOT
BRANCH   5   9
ATOM      9  C   UNL     1       2.215   4.834  18.462  0.00  0.00    +0.000 C 
ATOM     10  C   UNL     1       1.659   3.412  18.467  0.00  0.00    +0.000 C 
ATOM     11  C   UNL     1       2.427   2.483  19.389  0.00  0.00    +0.000 C 
ATOM     12  N   UNL     1       3.870   2.600  19.292  0.00  0.00    +0.000 N 
ATOM     13  C   UNL     1       4.658   1.697  20.117  0.00  0.00    +0.000 C 
ATOM     14  C   UNL     1       4.521   3.714  18.804  0.00  0.00    +0.000 C 
ATOM     15  O   UNL     1       5.750   3.815  18.824  0.00  0.00    +0.000 OA
ATOM     16  C   UNL     1       3.705   4.810  18.153  0.00  0.00    +0.000 C 
ENDBRANCH   5   9
BRANCH   1  22
ATOM     17  C   UNL     1      -0.843  11.151  18.539  0.00  0.00    +0.000 A 
ATOM     18  C   UNL     1      -1.363  12.436  18.304  0.00  0.00    +0.000 A 
ATOM     19  C   UNL     1      -0.528  13.553  18.288  0.00  0.00    +0.000 A 
ATOM     20  C   UNL     1       0.831  13.403  18.539  0.00  0.00    +0.000 A 
ATOM     21  C   UNL     1       1.346  12.141  18.838  0.00  0.00    +0.000 A 
ATOM     22  C   UNL     1       0.521  11.003  18.858  0.00  0.00    +0.000 A 
BRANCH  17  23
ATOM     23  O   UNL     1      -1.624  10.021  18.485  0.00  0.00    +0.000 OA
BRANCH  23  25
ATOM     24  C   UNL     1      -2.544   9.823  16.277  0.00  0.00    +0.000 C 
ATOM     25  C   UNL     1      -2.829  10.171  17.725  0.00  0.00    +0.000 C 
ENDBRANCH  23  25
ENDBRANCH  17  23
ENDBRANCH   1  22
TORSDOF 4
ENDMDL
MODEL 2
REMARK VINA RESULT:      -7.7      2.788      8.171
REMARK  Name = 
REMARK  6 active torsions:
REMARK  status: ('A' for Active; 'I' for Inactive)
REMARK    1  A    between atoms: C_1  and  C_2
REMARK    2  A    between atoms: C_2  and  O_3
REMARK    3  A    between atoms: O_3  and  C_4
REMARK    4  A    between atoms: C_9  and  C_10
REMARK    5  A    between atoms: C_14  and  C_16
REMARK    6  A    between atoms: N_19  and  C_20
REMARK                            x       y       z     vdW  Elec       q    Type
REMARK                         _______ _______ _______ _____ _____    ______ ____
ROOT
ATOM      1  C   UNL     1       2.389   7.499  18.554  0.00  0.00    +0.000 C 
ATOM      2  C   UNL     1       2.100   7.458  19.868  0.00  0.00    +0.000 C 
ATOM      3  C   UNL     1       1.317   8.519  20.608  0.00  0.00    +0.000 C 
ATOM      4  N   UNL     1       1.074   9.699  19.769  0.00  0.00    +0.000 N 
ATOM      5  C   UNL     1       0.926  10.938  20.392  0.00  0.00    +0.000 C 
ATOM      6  O   UNL     1       0.978  11.051  21.623  0.00  0.00    +0.000 OA
ATOM      7  C   UNL     1       0.765   9.407  18.369  0.00  0.00    +0.000 C 
ATOM      8  C   UNL     1       1.894   8.625  17.689  0.00  0.00    +0.000 C 
ENDROOT
BRANCH   5   9
ATOM      9  C   UNL     1       0.749  12.186  19.508  0.00  0.00    +0.000 C 
ATOM     10  C   UNL     1       2.062  12.829  19.068  0.00  0.00    +0.000 C 
ATOM     11  C   UNL     1       2.740  13.605  20.182  0.00  0.00    +0.000 C 
ATOM     12  N   UNL     1       1.848  14.449  20.956  0.00  0.00    +0.000 N 
ATOM     13  C   UNL     1       2.452  15.254  22.005  0.00  0.00    +0.000 C 
ATOM     14  C   UNL     1       0.484  14.257  21.034  0.00  0.00    +0.000 C 
ATOM     15  O   UNL     1      -0.231  14.936  21.776  0.00  0.00    +0.000 OA
ATOM     16  C   UNL     1      -0.165  13.235  20.125  0.00  0.00    +0.000 C 
ENDBRANCH   5   9
BRANCH   1  22
ATOM     17  C   UNL     1       3.030   5.143  17.807  0.00  0.00    +0.000 A 
ATOM     18  C   UNL     1       3.926   4.321  17.104  0.00  0.00    +0.000 A 
ATOM     19  C   UNL     1       5.121   4.834  16.599  0.00  0.00    +0.000 A 
ATOM     20  C   UNL     1       5.418   6.181  16.764  0.00  0.00    +0.000 A 
ATOM     21  C   UNL     1       4.504   7.021  17.404  0.00  0.00    +0.000 A 
ATOM     22  C   UNL     1       3.296   6.522  17.920  0.00  0.00    +0.000 A 
BRANCH  17  23
ATOM     23  O   UNL     1       1.882   4.653  18.384  0.00  0.00    +0.000 OA
BRANCH  23  25
ATOM     24  C   UNL     1       0.924   3.826  20.424  0.00  0.00    +0.000 C 
ATOM     25  C   UNL     1       2.106   3.755  19.478  0.00  0.00    +0.000 C 
ENDBRANCH  23  25
ENDBRANCH  17  23
ENDBRANCH   1  22
TORSDOF 4
ENDMDL
MODEL 3
REMARK VINA RESULT:      -7.7      2.219      3.160
REMARK  Name = 
REMARK  6 active torsions:
REMARK  status: ('A' for Active; 'I' for Inactive)
REMARK    1  A    between atoms: C_1  and  C_2
REMARK    2  A    between atoms: C_2  and  O_3
REMARK    3  A    between atoms: O_3  and  C_4
REMARK    4  A    between atoms: C_9  and  C_10
REMARK    5  A    between atoms: C_14  and  C_16
REMARK    6  A    between atoms: N_19  and  C_20
REMARK                            x       y       z     vdW  Elec       q    Type
REMARK                         _______ _______ _______ _____ _____    ______ ____
ROOT
ATOM      1  C   UNL     1       0.348   9.612  19.207  0.00  0.00    +0.000 C 
ATOM      2  C   UNL     1       0.753   9.000  20.335  0.00  0.00    +0.000 C 
ATOM      3  C   UNL     1       1.894   8.011  20.413  0.00  0.00    +0.000 C 
ATOM      4  N   UNL     1       2.387   7.645  19.080  0.00  0.00    +0.000 N 
ATOM      5  C   UNL     1       2.967   6.388  18.909  0.00  0.00    +0.000 C 
ATOM      6  O   UNL     1       3.087   5.599  19.853  0.00  0.00    +0.000 OA
ATOM      7  C   UNL     1       2.440   8.746  18.118  0.00  0.00    +0.000 C 
ATOM      8  C   UNL     1       1.060   9.379  17.903  0.00  0.00    +0.000 C 
ENDROOT
BRANCH   5   9
ATOM      9  C   UNL     1       3.414   5.974  17.495  0.00  0.00    +0.000 C 
ATOM     10  C   UNL     1       3.826   4.509  17.376  0.00  0.00    +0.000 C 
ATOM     11  C   UNL     1       5.188   4.229  17.984  0.00  0.00    +0.000 C 
ATOM     12  N   UNL     1       6.208   5.205  17.647  0.00  0.00    +0.000 N 
ATOM     13  C   UNL     1       7.546   4.959  18.162  0.00  0.00    +0.000 C 
ATOM     14  C   UNL     1       5.934   6.491  17.231  0.00  0.00    +0.000 C 
ATOM     15  O   UNL     1       6.826   7.322  17.043  0.00  0.00    +0.000 OA
ATOM     16  C   UNL     1       4.502   6.870  16.920  0.00  0.00    +0.000 C 
ENDBRANCH   5   9
BRANCH   1  22
ATOM     17  C   UNL     1      -1.143  11.516  20.025  0.00  0.00    +0.000 A 
ATOM     18  C   UNL     1      -2.300  12.290  19.829  0.00  0.00    +0.000 A 
ATOM     19  C   UNL     1      -3.231  11.946  18.850  0.00  0.00    +0.000 A 
ATOM     20  C   UNL     1      -3.002  10.844  18.035  0.00  0.00    +0.000 A 
ATOM     21  C   UNL     1      -1.825  10.108  18.177  0.00  0.00    +0.000 A 
ATOM     22  C   UNL     1      -0.875  10.439  19.159  0.00  0.00    +0.000 A 
BRANCH  17  23
ATOM     23  O   UNL     1      -0.243  11.782  21.031  0.00  0.00    +0.000 OA
BRANCH  23  25
ATOM     24  C   UNL     1      -1.057  10.749  23.039  0.00  0.00    +0.000 C 
ATOM     25  C   UNL     1      -0.843  12.056  22.303  0.00  0.00    +0.000 C 
ENDBRANCH  23  25
ENDBRANCH  17  23
ENDBRANCH   1  22
TORSDOF 4
ENDMDL
MODEL 4
REMARK VINA RESULT:      -7.7      2.158      8.517
REMARK  Name = 
REMARK  6 active torsions:
REMARK  status: ('A' for Active; 'I' for Inactive)
REMARK    1  A    between atoms: C_1  and  C_2
REMARK    2  A    between atoms: C_2  and  O_3
REMARK    3  A    between atoms: O_3  and  C_4
REMARK    4  A    between atoms: C_9  and  C_10
REMARK    5  A    between atoms: C_14  and  C_16
REMARK    6  A    between atoms: N_19  and  C_20
REMARK                            x       y       z     vdW  Elec       q    Type
REMARK                         _______ _______ _______ _____ _____    ______ ____
ROOT
ATOM      1  C   UNL     1       2.795   5.793  18.869  0.00  0.00    +0.000 C 
ATOM      2  C   UNL     1       3.233   6.679  17.956  0.00  0.00    +0.000 C 
ATOM      3  C   UNL     1       2.909   8.155  17.969  0.00  0.00    +0.000 C 
ATOM      4  N   UNL     1       1.900   8.482  18.984  0.00  0.00    +0.000 N 
ATOM      5  C   UNL     1       1.072   9.583  18.768  0.00  0.00    +0.000 C 
ATOM      6  O   UNL     1       1.187  10.288  17.758  0.00  0.00    +0.000 OA
ATOM      7  C   UNL     1       2.037   7.754  20.246  0.00  0.00    +0.000 C 
ATOM      8  C   UNL     1       1.958   6.237  20.037  0.00  0.00    +0.000 C 
ENDROOT
BRANCH   5   9
ATOM      9  C   UNL     1      -0.036   9.879  19.794  0.00  0.00    +0.000 C 
ATOM     10  C   UNL     1      -1.310  10.459  19.186  0.00  0.00    +0.000 C 
ATOM     11  C   UNL     1      -1.164  11.917  18.791  0.00  0.00    +0.000 C 
ATOM     12  N   UNL     1      -0.501  12.743  19.783  0.00  0.00    +0.000 N 
ATOM     13  C   UNL     1      -0.377  14.160  19.479  0.00  0.00    +0.000 C 
ATOM     14  C   UNL     1       0.334  12.248  20.763  0.00  0.00    +0.000 C 
ATOM     15  O   UNL     1       0.955  12.989  21.530  0.00  0.00    +0.000 OA
ATOM     16  C   UNL     1       0.432  10.749  20.952  0.00  0.00    +0.000 C 
ENDBRANCH   5   9
BRANCH   1  22
ATOM     17  C   UNL     1       4.200   3.668  19.030  0.00  0.00    +0.000 A 
ATOM     18  C   UNL     1       4.256   2.267  18.927  0.00  0.00    +0.000 A 
ATOM     19  C   UNL     1       3.173   1.545  18.426  0.00  0.00    +0.000 A 
ATOM     20  C   UNL     1       2.012   2.210  18.052  0.00  0.00    +0.000 A 
ATOM     21  C   UNL     1       1.923   3.594  18.212  0.00  0.00    +0.000 A 
ATOM     22  C   UNL     1       3.004   4.339  18.715  0.00  0.00    +0.000 A 
BRANCH  17  23
ATOM     23  O   UNL     1       5.276   4.417  19.447  0.00  0.00    +0.000 OA
BRANCH  23  25
ATOM     24  C   UNL     1       7.191   5.750  18.884  0.00  0.00    +0.000 C 
ATOM     25  C   UNL     1       6.274   4.628  18.441  0.00  0.00    +0.000 C 
ENDBRANCH  23  25
ENDBRANCH  17  23
ENDBRANCH   1  22
TORSDOF 4
ENDMDL
MODEL 5
REMARK VINA RESULT:      -7.7      1.702      2.552
REMARK  Name = 
REMARK  6 active torsions:
REMARK  status: ('A' for Active; 'I' for Inactive)
REMARK    1  A    between atoms: C_1  and  C_2
REMARK    2  A    between atoms: C_2  and  O_3
REMARK    3  A    between atoms: O_3  and  C_4
REMARK    4  A    between atoms: C_9  and  C_10
REMARK    5  A    between atoms: C_14  and  C_16
REMARK    6  A    between atoms: N_19  and  C_20
REMARK                            x       y       z     vdW  Elec       q    Type
REMARK                         _______ _______ _______ _____ _____    ______ ____
ROOT
ATOM      1  C   UNL     1       0.064   9.782  19.508  0.00  0.00    +0.000 C 
ATOM      2  C   UNL     1       0.380   9.244  20.701  0.00  0.00    +0.000 C 
ATOM      3  C   UNL     1       1.447   8.194  20.912  0.00  0.00    +0.000 C 
ATOM      4  N   UNL     1       1.968   7.684  19.638  0.00  0.00    +0.000 N 
ATOM      5  C   UNL     1       2.467   6.382  19.598  0.00  0.00    +0.000 C 
ATOM      6  O   UNL     1       2.495   5.671  20.609  0.00  0.00    +0.000 OA
ATOM      7  C   UNL     1       2.134   8.692  18.591  0.00  0.00    +0.000 C 
ATOM      8  C   UNL     1       0.810   9.392  18.262  0.00  0.00    +0.000 C 
ENDROOT
BRANCH   5   9
ATOM      9  C   UNL     1       2.940   5.820  18.245  0.00  0.00    +0.000 C 
ATOM     10  C   UNL     1       2.150   4.607  17.764  0.00  0.00    +0.000 C 
ATOM     11  C   UNL     1       2.504   3.337  18.515  0.00  0.00    +0.000 C 
ATOM     12  N   UNL     1       3.928   3.131  18.709  0.00  0.00    +0.000 N 
ATOM     13  C   UNL     1       4.328   1.905  19.380  0.00  0.00    +0.000 C 
ATOM     14  C   UNL     1       4.863   4.144  18.666  0.00  0.00    +0.000 C 
ATOM     15  O   UNL     1       6.053   3.947  18.928  0.00  0.00    +0.000 OA
ATOM     16  C   UNL     1       4.432   5.520  18.207  0.00  0.00    +0.000 C 
ENDBRANCH   5   9
BRANCH   1  22
ATOM     17  C   UNL     1      -1.314  11.854  20.081  0.00  0.00    +0.000 A 
ATOM     18  C   UNL     1      -2.409  12.678  19.769  0.00  0.00    +0.000 A 
ATOM     19  C   UNL     1      -3.334  12.300  18.797  0.00  0.00    +0.000 A 
ATOM     20  C   UNL     1      -3.159  11.108  18.103  0.00  0.00    +0.000 A 
ATOM     21  C   UNL     1      -2.040  10.314  18.359  0.00  0.00    +0.000 A 
ATOM     22  C   UNL     1      -1.097  10.678  19.336  0.00  0.00    +0.000 A 
BRANCH  17  23
ATOM     23  O   UNL     1      -0.427  12.159  21.086  0.00  0.00    +0.000 OA
BRANCH  23  25
ATOM     24  C   UNL     1      -1.477  11.310  23.071  0.00  0.00    +0.000 C 
ATOM     25  C   UNL     1      -1.043  12.552  22.319  0.00  0.00    +0.000 C 
ENDBRANCH  23  25
ENDBRANCH  17  23
ENDBRANCH   1  22
TORSDOF 4
ENDMDL
MODEL 6
REMARK VINA RESULT:      -7.6      1.372      1.532
REMARK  Name = 
REMARK  6 active torsions:
REMARK  status: ('A' for Active; 'I' for Inactive)
REMARK    1  A    between atoms: C_1  and  C_2
REMARK    2  A    between atoms: C_2  and  O_3
REMARK    3  A    between atoms: O_3  and  C_4
REMARK    4  A    between atoms: C_9  and  C_10
REMARK    5  A    between atoms: C_14  and  C_16
REMARK    6  A    between atoms: N_19  and  C_20
REMARK                            x       y       z     vdW  Elec       q    Type
REMARK                         _______ _______ _______ _____ _____    ______ ____
ROOT
ATOM      1  C   UNL     1       0.086   9.921  19.832  0.00  0.00    +0.000 C 
ATOM      2  C   UNL     1       0.387   9.298  20.986  0.00  0.00    +0.000 C 
ATOM      3  C   UNL     1       1.387   8.172  21.117  0.00  0.00    +0.000 C 
ATOM      4  N   UNL     1       1.851   7.702  19.806  0.00  0.00    +0.000 N 
ATOM      5  C   UNL     1       2.264   6.375  19.684  0.00  0.00    +0.000 C 
ATOM      6  O   UNL     1       2.264   5.608  20.654  0.00  0.00    +0.000 OA
ATOM      7  C   UNL     1       2.064   8.755  18.813  0.00  0.00    +0.000 C 
ATOM      8  C   UNL     1       0.783   9.556  18.551  0.00  0.00    +0.000 C 
ENDROOT
BRANCH   5   9
ATOM      9  C   UNL     1       2.677   5.861  18.293  0.00  0.00    +0.000 C 
ATOM     10  C   UNL     1       1.857   4.672  17.800  0.00  0.00    +0.000 C 
ATOM     11  C   UNL     1       2.232   3.372  18.489  0.00  0.00    +0.000 C 
ATOM     12  N   UNL     1       3.661   3.151  18.615  0.00  0.00    +0.000 N 
ATOM     13  C   UNL     1       4.079   1.897  19.223  0.00  0.00    +0.000 C 
ATOM     14  C   UNL     1       4.602   4.158  18.570  0.00  0.00    +0.000 C 
ATOM     15  O   UNL     1       5.800   3.944  18.775  0.00  0.00    +0.000 OA
ATOM     16  C   UNL     1       4.163   5.553  18.182  0.00  0.00    +0.000 C 
ENDBRANCH   5   9
BRANCH   1  22
ATOM     17  C   UNL     1      -1.980  10.914  18.706  0.00  0.00    +0.000 A 
ATOM     18  C   UNL     1      -3.038  11.837  18.763  0.00  0.00    +0.000 A 
ATOM     19  C   UNL     1      -3.095  12.797  19.772  0.00  0.00    +0.000 A 
ATOM     20  C   UNL     1      -2.111  12.827  20.753  0.00  0.00    +0.000 A 
ATOM     21  C   UNL     1      -1.091  11.873  20.743  0.00  0.00    +0.000 A 
ATOM     22  C   UNL     1      -1.017  10.898  19.734  0.00  0.00    +0.000 A 
BRANCH  17  23
ATOM     23  O   UNL     1      -1.852  10.005  17.682  0.00  0.00    +0.000 OA
BRANCH  23  25
ATOM     24  C   UNL     1      -2.815   9.989  15.483  0.00  0.00    +0.000 C 
ATOM     25  C   UNL     1      -3.064   9.754  16.960  0.00  0.00    +0.000 C 
ENDBRANCH  23  25
ENDBRANCH  17  23
ENDBRANCH   1  22
TORSDOF 4
ENDMDL
MODEL 7
REMARK VINA RESULT:      -7.5      2.641      8.239
REMARK  Name = 
REMARK  6 active torsions:
REMARK  status: ('A' for Active; 'I' for Inactive)
REMARK    1  A    between atoms: C_1  and  C_2
REMARK    2  A    between atoms: C_2  and  O_3
REMARK    3  A    between atoms: O_3  and  C_4
REMARK    4  A    between atoms: C_9  and  C_10
REMARK    5  A    between atoms: C_14  and  C_16
REMARK    6  A    between atoms: N_19  and  C_20
REMARK                            x       y       z     vdW  Elec       q    Type
REMARK                         _______ _______ _______ _____ _____    ______ ____
ROOT
ATOM      1  C   UNL     1       2.393   7.391  18.581  0.00  0.00    +0.000 C 
ATOM      2  C   UNL     1       2.088   7.310  19.889  0.00  0.00    +0.000 C 
ATOM      3  C   UNL     1       1.329   8.366  20.660  0.00  0.00    +0.000 C 
ATOM      4  N   UNL     1       1.130   9.583  19.863  0.00  0.00    +0.000 N 
ATOM      5  C   UNL     1       1.012  10.801  20.531  0.00  0.00    +0.000 C 
ATOM      6  O   UNL     1       1.052  10.867  21.766  0.00  0.00    +0.000 OA
ATOM      7  C   UNL     1       0.829   9.353  18.450  0.00  0.00    +0.000 C 
ATOM      8  C   UNL     1       1.943   8.563  17.753  0.00  0.00    +0.000 C 
ENDROOT
BRANCH   5   9
ATOM      9  C   UNL     1       0.883  12.086  19.693  0.00  0.00    +0.000 C 
ATOM     10  C   UNL     1       1.548  13.309  20.321  0.00  0.00    +0.000 C 
ATOM     11  C   UNL     1       0.754  13.880  21.482  0.00  0.00    +0.000 C 
ATOM     12  N   UNL     1      -0.672  13.988  21.238  0.00  0.00    +0.000 N 
ATOM     13  C   UNL     1      -1.475  14.576  22.298  0.00  0.00    +0.000 C 
ATOM     14  C   UNL     1      -1.348  13.250  20.290  0.00  0.00    +0.000 C 
ATOM     15  O   UNL     1      -2.576  13.299  20.175  0.00  0.00    +0.000 OA
ATOM     16  C   UNL     1      -0.554  12.413  19.310  0.00  0.00    +0.000 C 
ENDBRANCH   5   9
BRANCH   1  22
ATOM     17  C   UNL     1       2.971   5.048  17.747  0.00  0.00    +0.000 A 
ATOM     18  C   UNL     1       3.851   4.226  17.023  0.00  0.00    +0.000 A 
ATOM     19  C   UNL     1       5.069   4.721  16.557  0.00  0.00    +0.000 A 
ATOM     20  C   UNL     1       5.407   6.049  16.782  0.00  0.00    +0.000 A 
ATOM     21  C   UNL     1       4.510   6.891  17.442  0.00  0.00    +0.000 A 
ATOM     22  C   UNL     1       3.279   6.411  17.920  0.00  0.00    +0.000 A 
BRANCH  17  23
ATOM     23  O   UNL     1       1.799   4.573  18.286  0.00  0.00    +0.000 OA
BRANCH  23  25
ATOM     24  C   UNL     1       1.013   3.765  20.406  0.00  0.00    +0.000 C 
ATOM     25  C   UNL     1       1.973   3.533  19.257  0.00  0.00    +0.000 C 
ENDBRANCH  23  25
ENDBRANCH  17  23
ENDBRANCH   1  22
TORSDOF 4
ENDMDL
MODEL 8
REMARK VINA RESULT:      -7.5      1.283      2.526
REMARK  Name = 
REMARK  6 active torsions:
REMARK  status: ('A' for Active; 'I' for Inactive)
REMARK    1  A    between atoms: C_1  and  C_2
REMARK    2  A    between atoms: C_2  and  O_3
REMARK    3  A    between atoms: O_3  and  C_4
REMARK    4  A    between atoms: C_9  and  C_10
REMARK    5  A    between atoms: C_14  and  C_16
REMARK    6  A    between atoms: N_19  and  C_20
REMARK                            x       y       z     vdW  Elec       q    Type
REMARK                         _______ _______ _______ _____ _____    ______ ____
ROOT
ATOM      1  C   UNL     1      -0.284   9.796  19.017  0.00  0.00    +0.000 C 
ATOM      2  C   UNL     1       0.086   9.453  20.265  0.00  0.00    +0.000 C 
ATOM      3  C   UNL     1       1.280   8.588  20.598  0.00  0.00    +0.000 C 
ATOM      4  N   UNL     1       1.879   8.001  19.394  0.00  0.00    +0.000 N 
ATOM      5  C   UNL     1       2.547   6.782  19.511  0.00  0.00    +0.000 C 
ATOM      6  O   UNL     1       2.656   6.208  20.601  0.00  0.00    +0.000 OA
ATOM      7  C   UNL     1       1.923   8.888  18.232  0.00  0.00    +0.000 C 
ATOM      8  C   UNL     1       0.523   9.362  17.825  0.00  0.00    +0.000 C 
ENDROOT
BRANCH   5   9
ATOM      9  C   UNL     1       3.107   6.128  18.235  0.00  0.00    +0.000 C 
ATOM     10  C   UNL     1       2.321   4.908  17.763  0.00  0.00    +0.000 C 
ATOM     11  C   UNL     1       2.578   3.677  18.612  0.00  0.00    +0.000 C 
ATOM     12  N   UNL     1       3.975   3.448  18.930  0.00  0.00    +0.000 N 
ATOM     13  C   UNL     1       4.286   2.254  19.700  0.00  0.00    +0.000 C 
ATOM     14  C   UNL     1       4.941   4.432  18.902  0.00  0.00    +0.000 C 
ATOM     15  O   UNL     1       6.100   4.222  19.269  0.00  0.00    +0.000 OA
ATOM     16  C   UNL     1       4.588   5.789  18.332  0.00  0.00    +0.000 C 
ENDBRANCH   5   9
BRANCH   1  22
ATOM     17  C   UNL     1      -1.900  11.755  19.286  0.00  0.00    +0.000 A 
ATOM     18  C   UNL     1      -3.095  12.375  18.882  0.00  0.00    +0.000 A 
ATOM     19  C   UNL     1      -3.982  11.726  18.025  0.00  0.00    +0.000 A 
ATOM     20  C   UNL     1      -3.672  10.463  17.536  0.00  0.00    +0.000 A 
ATOM     21  C   UNL     1      -2.458   9.865  17.879  0.00  0.00    +0.000 A 
ATOM     22  C   UNL     1      -1.551  10.503  18.742  0.00  0.00    +0.000 A 
BRANCH  17  23
ATOM     23  O   UNL     1      -1.040  12.334  20.189  0.00  0.00    +0.000 OA
BRANCH  23  25
ATOM     24  C   UNL     1       0.423  13.509  18.693  0.00  0.00    +0.000 C 
ATOM     25  C   UNL     1      -0.584  13.640  19.818  0.00  0.00    +0.000 C 
ENDBRANCH  23  25
ENDBRANCH  17  23
ENDBRANCH   1  22
TORSDOF 4
ENDMDL
MODEL 9
REMARK VINA RESULT:      -7.4      2.267      8.397
REMARK  Name = 
REMARK  6 active torsions:
REMARK  status: ('A' for Active; 'I' for Inactive)
REMARK    1  A    between atoms: C_1  and  C_2
REMARK    2  A    between atoms: C_2  and  O_3
REMARK    3  A    between atoms: O_3  and  C_4
REMARK    4  A    between atoms: C_9  and  C_10
REMARK    5  A    between atoms: C_14  and  C_16
REMARK    6  A    between atoms: N_19  and  C_20
REMARK                            x       y       z     vdW  Elec       q    Type
REMARK                         _______ _______ _______ _____ _____    ______ ____
ROOT
ATOM      1  C   UNL     1       2.440   5.851  18.828  0.00  0.00    +0.000 C 
ATOM      2  C   UNL     1       2.909   6.737  17.931  0.00  0.00    +0.000 C 
ATOM      3  C   UNL     1       2.726   8.235  18.029  0.00  0.00    +0.000 C 
ATOM      4  N   UNL     1       1.809   8.601  19.116  0.00  0.00    +0.000 N 
ATOM      5  C   UNL     1       1.077   9.782  18.998  0.00  0.00    +0.000 C 
ATOM      6  O   UNL     1       1.203  10.523  18.015  0.00  0.00    +0.000 OA
ATOM      7  C   UNL     1       1.945   7.801  20.333  0.00  0.00    +0.000 C 
ATOM      8  C   UNL     1       1.712   6.310  20.062  0.00  0.00    +0.000 C 
ENDROOT
BRANCH   5   9
ATOM      9  C   UNL     1       0.058  10.126  20.099  0.00  0.00    +0.000 C 
ATOM     10  C   UNL     1      -1.269  10.666  19.573  0.00  0.00    +0.000 C 
ATOM     11  C   UNL     1      -1.171  12.102  19.092  0.00  0.00    +0.000 C 
ATOM     12  N   UNL     1      -0.433  12.983  19.978  0.00  0.00    +0.000 N 
ATOM     13  C   UNL     1      -0.350  14.383  19.592  0.00  0.00    +0.000 C 
ATOM     14  C   UNL     1       0.488  12.544  20.907  0.00  0.00    +0.000 C 
ATOM     15  O   UNL     1       1.165  13.328  21.578  0.00  0.00    +0.000 OA
ATOM     16  C   UNL     1       0.616  11.059  21.165  0.00  0.00    +0.000 C 
ENDBRANCH   5   9
BRANCH   1  22
ATOM     17  C   UNL     1       3.620   3.717  18.070  0.00  0.00    +0.000 A 
ATOM     18  C   UNL     1       3.600   2.315  17.976  0.00  0.00    +0.000 A 
ATOM     19  C   UNL     1       2.453   1.594  18.309  0.00  0.00    +0.000 A 
ATOM     20  C   UNL     1       1.325   2.263  18.768  0.00  0.00    +0.000 A 
ATOM     21  C   UNL     1       1.357   3.649  18.927  0.00  0.00    +0.000 A 
ATOM     22  C   UNL     1       2.503   4.393  18.597  0.00  0.00    +0.000 A 
BRANCH  17  23
ATOM     23  O   UNL     1       4.706   4.464  17.677  0.00  0.00    +0.000 OA
BRANCH  23  25
ATOM     24  C   UNL     1       5.499   5.471  15.648  0.00  0.00    +0.000 C 
ATOM     25  C   UNL     1       5.180   4.170  16.357  0.00  0.00    +0.000 C 
ENDBRANCH  23  25
ENDBRANCH  17  23
ENDBRANCH   1  22
TORSDOF 4
ENDMDL
