MODEL 1
REMARK VINA RESULT:      -7.3      0.000      0.000
REMARK  Name = 
REMARK  14 active torsions:
REMARK  status: ('A' for Active; 'I' for Inactive)
REMARK    1  A    between atoms: C_1  and  O_2
REMARK    2  A    between atoms: O_2  and  C_3
REMARK    3  A    between atoms: C_5  and  C_6
REMARK    4  A    between atoms: C_6  and  N_7
REMARK    5  A    between atoms: N_7  and  C_8
REMARK    6  A    between atoms: C_8  and  C_9
REMARK    7  A    between atoms: C_9  and  C_10
REMARK    8  A    between atoms: C_10  and  N_11
REMARK    9  A    between atoms: C_14  and  C_15
REMARK   10  A    between atoms: C_15  and  C_16
REMARK   11  A    between atoms: C_25  and  O_26
REMARK   12  A    between atoms: O_26  and  C_27
REMARK   13  A    between atoms: C_28  and  O_29
REMARK   14  A    between atoms: O_29  and  C_30
REMARK                            x       y       z     vdW  Elec       q    Type
REMARK                         _______ _______ _______ _____ _____    ______ ____
ROOT
ATOM      1  C   UNL     1       1.661   8.419  19.343  0.00  0.00    +0.000 C 
ENDROOT
BRANCH   1   2
ATOM      2  N   UNL     1       1.384   9.538  18.431  0.00  0.00    +0.000 NA
ATOM      3  H   UNL     1       2.255   9.840  17.996  0.00  0.00    +0.000 HD
BRANCH   2   4
ATOM      4  C   UNL     1       0.797  10.678  19.128  0.00  0.00    +0.000 C 
BRANCH   4   7
ATOM      5  C   UNL     1      -2.777  11.985  19.293  0.00  0.00    +0.000 A 
ATOM      6  C   UNL     1      -1.458  11.664  19.659  0.00  0.00    +0.000 A 
ATOM      7  C   UNL     1      -0.681  10.820  18.870  0.00  0.00    +0.000 A 
ATOM      8  C   UNL     1      -1.290  10.179  17.792  0.00  0.00    +0.000 A 
ATOM      9  C   UNL     1      -2.628  10.436  17.442  0.00  0.00    +0.000 A 
ATOM     10  C   UNL     1      -3.383  11.377  18.175  0.00  0.00    +0.000 A 
BRANCH   5  12
ATOM     11  C   UNL     1      -3.059  12.920  21.415  0.00  0.00    +0.000 C 
ATOM     12  O   UNL     1      -3.490  12.868  20.062  0.00  0.00    +0.000 OA
ENDBRANCH   5  12
BRANCH   9  13
ATOM     13  O   UNL     1      -2.999   9.702  16.343  0.00  0.00    +0.000 OA
ATOM     14  C   UNL     1      -2.947  10.302  15.059  0.00  0.00    +0.000 C 
ENDBRANCH   9  13
BRANCH  10  15
ATOM     15  O   UNL     1      -4.663  11.619  17.749  0.00  0.00    +0.000 OA
ATOM     16  C   UNL     1      -5.745  10.883  18.300  0.00  0.00    +0.000 C 
ENDBRANCH  10  15
ENDBRANCH   4   7
ENDBRANCH   2   4
ENDBRANCH   1   2
BRANCH   1  17
ATOM     17  C   UNL     1       2.590   7.344  18.759  0.00  0.00    +0.000 C 
BRANCH  17  18
ATOM     18  C   UNL     1       2.605   6.066  19.610  0.00  0.00    +0.000 C 
BRANCH  18  19
ATOM     19  N   UNL     1       3.410   4.967  19.030  0.00  0.00    +0.000 NA
ATOM     20  C   UNL     1       2.852   4.528  17.740  0.00  0.00    +0.000 C 
ATOM     21  C   UNL     1       3.717   3.461  17.070  0.00  0.00    +0.000 C 
ATOM     22  C   UNL     1       5.152   3.941  16.841  0.00  0.00    +0.000 C 
ATOM     23  C   UNL     1       5.711   4.399  18.198  0.00  0.00    +0.000 C 
ATOM     24  C   UNL     1       4.807   5.423  18.894  0.00  0.00    +0.000 C 
BRANCH  22  25
ATOM     25  C   UNL     1       5.268   5.068  15.791  0.00  0.00    +0.000 C 
BRANCH  25  26
ATOM     26  C   UNL     1       5.983   4.684  14.514  0.00  0.00    +0.000 A 
ATOM     27  C   UNL     1       5.404   3.735  13.669  0.00  0.00    +0.000 A 
ATOM     28  C   UNL     1       5.966   3.424  12.431  0.00  0.00    +0.000 A 
ATOM     29  C   UNL     1       7.153   4.034  12.045  0.00  0.00    +0.000 A 
ATOM     30  C   UNL     1       7.775   4.941  12.902  0.00  0.00    +0.000 A 
ATOM     31  C   UNL     1       7.189   5.272  14.128  0.00  0.00    +0.000 A 
ENDBRANCH  25  26
ENDBRANCH  22  25
ENDBRANCH  18  19
ENDBRANCH  17  18
ENDBRANCH   1  17
TORSDOF 11
ENDMDL
MODEL 2
REMARK VINA RESULT:      -7.0      7.891     10.549
REMARK  Name = 
REMARK  14 active torsions:
REMARK  status: ('A' for Active; 'I' for Inactive)
REMARK    1  A    between atoms: C_1  and  O_2
REMARK    2  A    between atoms: O_2  and  C_3
REMARK    3  A    between atoms: C_5  and  C_6
REMARK    4  A    between atoms: C_6  and  N_7
REMARK    5  A    between atoms: N_7  and  C_8
REMARK    6  A    between atoms: C_8  and  C_9
REMARK    7  A    between atoms: C_9  and  C_10
REMARK    8  A    between atoms: C_10  and  N_11
REMARK    9  A    between atoms: C_14  and  C_15
REMARK   10  A    between atoms: C_15  and  C_16
REMARK   11  A    between atoms: C_25  and  O_26
REMARK   12  A    between atoms: O_26  and  C_27
REMARK   13  A    between atoms: C_28  and  O_29
REMARK   14  A    between atoms: O_29  and  C_30
REMARK                            x       y       z     vdW  Elec       q    Type
REMARK                         _______ _______ _______ _____ _____    ______ ____
ROOT
ATOM      1  C   UNL     1       7.725   8.262  17.480  0.00  0.00    +0.000 C 
ENDROOT
BRANCH   1   2
ATOM      2  N   UNL     1       7.617   6.798  17.532  0.00  0.00    +0.000 NA
ATOM      3  H   UNL     1       8.462   6.385  17.138  0.00  0.00    +0.000 HD
BRANCH   2   4
ATOM      4  C   UNL     1       6.468   6.308  16.775  0.00  0.00    +0.000 C 
BRANCH   4   7
ATOM      5  C   UNL     1       4.544   4.202  19.298  0.00  0.00    +0.000 A 
ATOM      6  C   UNL     1       5.454   4.575  18.294  0.00  0.00    +0.000 A 
ATOM      7  C   UNL     1       5.356   5.814  17.664  0.00  0.00    +0.000 A 
ATOM      8  C   UNL     1       4.246   6.609  17.942  0.00  0.00    +0.000 A 
ATOM      9  C   UNL     1       3.287   6.229  18.898  0.00  0.00    +0.000 A 
ATOM     10  C   UNL     1       3.446   5.025  19.618  0.00  0.00    +0.000 A 
BRANCH   5  12
ATOM     11  C   UNL     1       4.054   1.918  19.294  0.00  0.00    +0.000 C 
ATOM     12  O   UNL     1       4.709   3.001  19.940  0.00  0.00    +0.000 OA
ENDBRANCH   5  12
BRANCH   9  13
ATOM     13  O   UNL     1       2.299   7.174  19.008  0.00  0.00    +0.000 OA
ATOM     14  C   UNL     1       2.213   8.202  18.034  0.00  0.00    +0.000 C 
ENDBRANCH   9  13
BRANCH  10  15
ATOM     15  O   UNL     1       2.504   4.740  20.573  0.00  0.00    +0.000 OA
ATOM     16  C   UNL     1       1.249   4.196  20.191  0.00  0.00    +0.000 C 
ENDBRANCH  10  15
ENDBRANCH   4   7
ENDBRANCH   2   4
ENDBRANCH   1   2
BRANCH   1  17
ATOM     17  C   UNL     1       8.627   8.868  18.567  0.00  0.00    +0.000 C 
BRANCH  17  18
ATOM     18  C   UNL     1       8.654  10.402  18.511  0.00  0.00    +0.000 C 
BRANCH  18  19
ATOM     19  N   UNL     1      10.018  10.980  18.511  0.00  0.00    +0.000 NA
ATOM     20  C   UNL     1      10.082  12.183  17.665  0.00  0.00    +0.000 C 
ATOM     21  C   UNL     1      11.452  12.857  17.722  0.00  0.00    +0.000 C 
ATOM     22  C   UNL     1      11.845  13.245  19.149  0.00  0.00    +0.000 C 
ATOM     23  C   UNL     1      11.765  11.977  20.015  0.00  0.00    +0.000 C 
ATOM     24  C   UNL     1      10.408  11.271  19.905  0.00  0.00    +0.000 C 
BRANCH  22  25
ATOM     25  C   UNL     1      10.974  14.373  19.746  0.00  0.00    +0.000 C 
BRANCH  25  26
ATOM     26  C   UNL     1      10.997  15.676  18.977  0.00  0.00    +0.000 A 
ATOM     27  C   UNL     1      12.219  16.314  18.756  0.00  0.00    +0.000 A 
ATOM     28  C   UNL     1      12.311  17.458  17.964  0.00  0.00    +0.000 A 
ATOM     29  C   UNL     1      11.156  18.006  17.419  0.00  0.00    +0.000 A 
ATOM     30  C   UNL     1       9.920  17.416  17.677  0.00  0.00    +0.000 A 
ATOM     31  C   UNL     1       9.841  16.250  18.447  0.00  0.00    +0.000 A 
ENDBRANCH  25  26
ENDBRANCH  22  25
ENDBRANCH  18  19
ENDBRANCH  17  18
ENDBRANCH   1  17
TORSDOF 11
ENDMDL
MODEL 3
REMARK VINA RESULT:      -7.0      7.444      9.844
REMARK  Name = 
REMARK  14 active torsions:
REMARK  status: ('A' for Active; 'I' for Inactive)
REMARK    1  A    between atoms: C_1  and  O_2
REMARK    2  A    between atoms: O_2  and  C_3
REMARK    3  A    between atoms: C_5  and  C_6
REMARK    4  A    between atoms: C_6  and  N_7
REMARK    5  A    between atoms: N_7  and  C_8
REMARK    6  A    between atoms: C_8  and  C_9
REMARK    7  A    between atoms: C_9  and  C_10
REMARK    8  A    between atoms: C_10  and  N_11
REMARK    9  A    between atoms: C_14  and  C_15
REMARK   10  A    between atoms: C_15  and  C_16
REMARK   11  A    between atoms: C_25  and  O_26
REMARK   12  A    between atoms: O_26  and  C_27
REMARK   13  A    between atoms: C_28  and  O_29
REMARK   14  A    between atoms: O_29  and  C_30
REMARK                            x       y       z     vdW  Elec       q    Type
REMARK                         _______ _______ _______ _____ _____    ______ ____
ROOT
ATOM      1  C   UNL     1       8.508   9.467  17.648  0.00  0.00    +0.000 C 
ENDROOT
BRANCH   1   2
ATOM      2  N   UNL     1       8.694  10.074  18.974  0.00  0.00    +0.000 NA
ATOM      3  H   UNL     1       7.961  10.765  19.132  0.00  0.00    +0.000 HD
BRANCH   2   4
ATOM      4  C   UNL     1       9.988  10.738  19.093  0.00  0.00    +0.000 C 
BRANCH   4   7
ATOM      5  C   UNL     1       8.626  14.132  18.031  0.00  0.00    +0.000 A 
ATOM      6  C   UNL     1       8.756  12.742  18.198  0.00  0.00    +0.000 A 
ATOM      7  C   UNL     1       9.938  12.187  18.683  0.00  0.00    +0.000 A 
ATOM      8  C   UNL     1      11.038  13.025  18.855  0.00  0.00    +0.000 A 
ATOM      9  C   UNL     1      10.950  14.412  18.635  0.00  0.00    +0.000 A 
ATOM     10  C   UNL     1       9.722  14.990  18.250  0.00  0.00    +0.000 A 
BRANCH   5  12
ATOM     11  C   UNL     1       6.670  15.251  18.651  0.00  0.00    +0.000 C 
ATOM     12  O   UNL     1       7.427  14.648  17.610  0.00  0.00    +0.000 OA
ENDBRANCH   5  12
BRANCH   9  13
ATOM     13  O   UNL     1      12.153  15.026  18.881  0.00  0.00    +0.000 OA
ATOM     14  C   UNL     1      12.324  15.755  20.086  0.00  0.00    +0.000 C 
ENDBRANCH   9  13
BRANCH  10  15
ATOM     15  O   UNL     1       9.692  16.353  18.104  0.00  0.00    +0.000 OA
ATOM     16  C   UNL     1      10.330  16.961  16.990  0.00  0.00    +0.000 C 
ENDBRANCH  10  15
ENDBRANCH   4   7
ENDBRANCH   2   4
ENDBRANCH   1   2
BRANCH   1  17
ATOM     17  C   UNL     1       7.472   8.332  17.613  0.00  0.00    +0.000 C 
BRANCH  17  18
ATOM     18  C   UNL     1       7.928   7.105  18.416  0.00  0.00    +0.000 C 
BRANCH  18  19
ATOM     19  N   UNL     1       7.318   5.833  17.966  0.00  0.00    +0.000 NA
ATOM     20  C   UNL     1       6.377   5.313  18.972  0.00  0.00    +0.000 C 
ATOM     21  C   UNL     1       5.659   4.052  18.495  0.00  0.00    +0.000 C 
ATOM     22  C   UNL     1       4.896   4.281  17.188  0.00  0.00    +0.000 C 
ATOM     23  C   UNL     1       5.896   4.828  16.156  0.00  0.00    +0.000 C 
ATOM     24  C   UNL     1       6.658   6.057  16.665  0.00  0.00    +0.000 C 
BRANCH  22  25
ATOM     25  C   UNL     1       3.686   5.230  17.336  0.00  0.00    +0.000 C 
BRANCH  25  26
ATOM     26  C   UNL     1       2.668   4.814  18.376  0.00  0.00    +0.000 A 
ATOM     27  C   UNL     1       1.920   3.653  18.170  0.00  0.00    +0.000 A 
ATOM     28  C   UNL     1       1.048   3.166  19.142  0.00  0.00    +0.000 A 
ATOM     29  C   UNL     1       0.880   3.874  20.326  0.00  0.00    +0.000 A 
ATOM     30  C   UNL     1       1.575   5.067  20.525  0.00  0.00    +0.000 A 
ATOM     31  C   UNL     1       2.472   5.531  19.557  0.00  0.00    +0.000 A 
ENDBRANCH  25  26
ENDBRANCH  22  25
ENDBRANCH  18  19
ENDBRANCH  17  18
ENDBRANCH   1  17
TORSDOF 11
ENDMDL
MODEL 4
REMARK VINA RESULT:      -7.0      6.799      9.323
REMARK  Name = 
REMARK  14 active torsions:
REMARK  status: ('A' for Active; 'I' for Inactive)
REMARK    1  A    between atoms: C_1  and  O_2
REMARK    2  A    between atoms: O_2  and  C_3
REMARK    3  A    between atoms: C_5  and  C_6
REMARK    4  A    between atoms: C_6  and  N_7
REMARK    5  A    between atoms: N_7  and  C_8
REMARK    6  A    between atoms: C_8  and  C_9
REMARK    7  A    between atoms: C_9  and  C_10
REMARK    8  A    between atoms: C_10  and  N_11
REMARK    9  A    between atoms: C_14  and  C_15
REMARK   10  A    between atoms: C_15  and  C_16
REMARK   11  A    between atoms: C_25  and  O_26
REMARK   12  A    between atoms: O_26  and  C_27
REMARK   13  A    between atoms: C_28  and  O_29
REMARK   14  A    between atoms: O_29  and  C_30
REMARK                            x       y       z     vdW  Elec       q    Type
REMARK                         _______ _______ _______ _____ _____    ______ ____
ROOT
ATOM      1  C   UNL     1       8.542   9.439  18.315  0.00  0.00    +0.000 C 
ENDROOT
BRANCH   1   2
ATOM      2  N   UNL     1       9.333   9.832  19.490  0.00  0.00    +0.000 NA
ATOM      3  H   UNL     1       8.712   9.943  20.291  0.00  0.00    +0.000 HD
BRANCH   2   4
ATOM      4  C   UNL     1      10.039  11.092  19.276  0.00  0.00    +0.000 C 
BRANCH   4   7
ATOM      5  C   UNL     1       8.715  14.456  20.474  0.00  0.00    +0.000 A 
ATOM      6  C   UNL     1       9.377  13.483  19.705  0.00  0.00    +0.000 A 
ATOM      7  C   UNL     1       9.558  12.190  20.190  0.00  0.00    +0.000 A 
ATOM      8  C   UNL     1       9.206  11.926  21.513  0.00  0.00    +0.000 A 
ATOM      9  C   UNL     1       8.600  12.902  22.323  0.00  0.00    +0.000 A 
ATOM     10  C   UNL     1       8.313  14.180  21.797  0.00  0.00    +0.000 A 
BRANCH   5  12
ATOM     11  C   UNL     1       8.632  15.742  18.525  0.00  0.00    +0.000 C 
ATOM     12  O   UNL     1       8.500  15.701  19.940  0.00  0.00    +0.000 OA
ENDBRANCH   5  12
BRANCH   9  13
ATOM     13  O   UNL     1       8.334  12.407  23.575  0.00  0.00    +0.000 OA
ATOM     14  C   UNL     1       7.112  11.725  23.805  0.00  0.00    +0.000 C 
ENDBRANCH   9  13
BRANCH  10  15
ATOM     15  O   UNL     1       7.674  15.067  22.623  0.00  0.00    +0.000 OA
ATOM     16  C   UNL     1       6.262  15.211  22.553  0.00  0.00    +0.000 C 
ENDBRANCH  10  15
ENDBRANCH   4   7
ENDBRANCH   2   4
ENDBRANCH   1   2
BRANCH   1  17
ATOM     17  C   UNL     1       8.198   7.943  18.257  0.00  0.00    +0.000 C 
BRANCH  17  18
ATOM     18  C   UNL     1       7.231   7.613  17.111  0.00  0.00    +0.000 C 
BRANCH  18  19
ATOM     19  N   UNL     1       6.826   6.190  17.057  0.00  0.00    +0.000 NA
ATOM     20  C   UNL     1       6.316   5.736  18.361  0.00  0.00    +0.000 C 
ATOM     21  C   UNL     1       5.799   4.299  18.312  0.00  0.00    +0.000 C 
ATOM     22  C   UNL     1       4.694   4.119  17.268  0.00  0.00    +0.000 C 
ATOM     23  C   UNL     1       5.246   4.604  15.918  0.00  0.00    +0.000 C 
ATOM     24  C   UNL     1       5.820   6.024  15.990  0.00  0.00    +0.000 C 
BRANCH  22  25
ATOM     25  C   UNL     1       3.383   4.856  17.622  0.00  0.00    +0.000 C 
BRANCH  25  26
ATOM     26  C   UNL     1       2.552   4.202  18.704  0.00  0.00    +0.000 A 
ATOM     27  C   UNL     1       2.713   4.614  20.029  0.00  0.00    +0.000 A 
ATOM     28  C   UNL     1       1.899   4.122  21.048  0.00  0.00    +0.000 A 
ATOM     29  C   UNL     1       0.935   3.166  20.753  0.00  0.00    +0.000 A 
ATOM     30  C   UNL     1       0.799   2.701  19.446  0.00  0.00    +0.000 A 
ATOM     31  C   UNL     1       1.598   3.222  18.423  0.00  0.00    +0.000 A 
ENDBRANCH  25  26
ENDBRANCH  22  25
ENDBRANCH  18  19
ENDBRANCH  17  18
ENDBRANCH   1  17
TORSDOF 11
ENDMDL
MODEL 5
REMARK VINA RESULT:      -6.9      1.669      3.390
REMARK  Name = 
REMARK  14 active torsions:
REMARK  status: ('A' for Active; 'I' for Inactive)
REMARK    1  A    between atoms: C_1  and  O_2
REMARK    2  A    between atoms: O_2  and  C_3
REMARK    3  A    between atoms: C_5  and  C_6
REMARK    4  A    between atoms: C_6  and  N_7
REMARK    5  A    between atoms: N_7  and  C_8
REMARK    6  A    between atoms: C_8  and  C_9
REMARK    7  A    between atoms: C_9  and  C_10
REMARK    8  A    between atoms: C_10  and  N_11
REMARK    9  A    between atoms: C_14  and  C_15
REMARK   10  A    between atoms: C_15  and  C_16
REMARK   11  A    between atoms: C_25  and  O_26
REMARK   12  A    between atoms: O_26  and  C_27
REMARK   13  A    between atoms: C_28  and  O_29
REMARK   14  A    between atoms: O_29  and  C_30
REMARK                            x       y       z     vdW  Elec       q    Type
REMARK                         _______ _______ _______ _____ _____    ______ ____
ROOT
ATOM      1  C   UNL     1       1.660   6.245  20.342  0.00  0.00    +0.000 C 
ENDROOT
BRANCH   1   2
ATOM      2  N   UNL     1       2.220   7.597  20.214  0.00  0.00    +0.000 NA
ATOM      3  H   UNL     1       1.812   8.198  20.930  0.00  0.00    +0.000 HD
BRANCH   2   4
ATOM      4  C   UNL     1       1.941   8.183  18.907  0.00  0.00    +0.000 C 
BRANCH   4   7
ATOM      5  C   UNL     1      -0.847  10.703  18.293  0.00  0.00    +0.000 A 
ATOM      6  C   UNL     1       0.079   9.666  18.088  0.00  0.00    +0.000 A 
ATOM      7  C   UNL     1       1.109   9.436  18.997  0.00  0.00    +0.000 A 
ATOM      8  C   UNL     1       1.292  10.351  20.032  0.00  0.00    +0.000 A 
ATOM      9  C   UNL     1       0.414  11.434  20.223  0.00  0.00    +0.000 A 
ATOM     10  C   UNL     1      -0.696  11.603  19.367  0.00  0.00    +0.000 A 
BRANCH   5  12
ATOM     11  C   UNL     1      -2.835   9.805  17.456  0.00  0.00    +0.000 C 
ATOM     12  O   UNL     1      -1.884  10.861  17.410  0.00  0.00    +0.000 OA
ENDBRANCH   5  12
BRANCH   9  13
ATOM     13  O   UNL     1       0.787  12.185  21.309  0.00  0.00    +0.000 OA
ATOM     14  C   UNL     1       1.290  13.496  21.106  0.00  0.00    +0.000 C 
ENDBRANCH   9  13
BRANCH  10  15
ATOM     15  O   UNL     1      -1.540  12.647  19.640  0.00  0.00    +0.000 OA
ATOM     16  C   UNL     1      -2.633  12.463  20.529  0.00  0.00    +0.000 C 
ENDBRANCH  10  15
ENDBRANCH   4   7
ENDBRANCH   2   4
ENDBRANCH   1   2
BRANCH   1  17
ATOM     17  C   UNL     1       2.709   5.145  20.570  0.00  0.00    +0.000 C 
BRANCH  17  18
ATOM     18  C   UNL     1       3.312   4.635  19.253  0.00  0.00    +0.000 C 
BRANCH  18  19
ATOM     19  N   UNL     1       4.288   5.564  18.638  0.00  0.00    +0.000 NA
ATOM     20  C   UNL     1       5.664   5.220  19.031  0.00  0.00    +0.000 C 
ATOM     21  C   UNL     1       6.701   6.101  18.336  0.00  0.00    +0.000 C 
ATOM     22  C   UNL     1       6.596   6.022  16.811  0.00  0.00    +0.000 C 
ATOM     23  C   UNL     1       5.151   6.378  16.425  0.00  0.00    +0.000 C 
ATOM     24  C   UNL     1       4.114   5.532  17.173  0.00  0.00    +0.000 C 
BRANCH  22  25
ATOM     25  C   UNL     1       6.995   4.645  16.235  0.00  0.00    +0.000 C 
BRANCH  25  26
ATOM     26  C   UNL     1       6.888   4.524  14.730  0.00  0.00    +0.000 A 
ATOM     27  C   UNL     1       7.748   5.275  13.925  0.00  0.00    +0.000 A 
ATOM     28  C   UNL     1       7.765   5.122  12.539  0.00  0.00    +0.000 A 
ATOM     29  C   UNL     1       6.878   4.239  11.936  0.00  0.00    +0.000 A 
ATOM     30  C   UNL     1       5.973   3.525  12.720  0.00  0.00    +0.000 A 
ATOM     31  C   UNL     1       5.983   3.660  14.112  0.00  0.00    +0.000 A 
ENDBRANCH  25  26
ENDBRANCH  22  25
ENDBRANCH  18  19
ENDBRANCH  17  18
ENDBRANCH   1  17
TORSDOF 11
ENDMDL
MODEL 6
REMARK VINA RESULT:      -6.9      7.609     10.371
REMARK  Name = 
REMARK  14 active torsions:
REMARK  status: ('A' for Active; 'I' for Inactive)
REMARK    1  A    between atoms: C_1  and  O_2
REMARK    2  A    between atoms: O_2  and  C_3
REMARK    3  A    between atoms: C_5  and  C_6
REMARK    4  A    between atoms: C_6  and  N_7
REMARK    5  A    between atoms: N_7  and  C_8
REMARK    6  A    between atoms: C_8  and  C_9
REMARK    7  A    between atoms: C_9  and  C_10
REMARK    8  A    between atoms: C_10  and  N_11
REMARK    9  A    between atoms: C_14  and  C_15
REMARK   10  A    between atoms: C_15  and  C_16
REMARK   11  A    between atoms: C_25  and  O_26
REMARK   12  A    between atoms: O_26  and  C_27
REMARK   13  A    between atoms: C_28  and  O_29
REMARK   14  A    between atoms: O_29  and  C_30
REMARK                            x       y       z     vdW  Elec       q    Type
REMARK                         _______ _______ _______ _____ _____    ______ ____
ROOT
ATOM      1  C   UNL     1       8.667   8.677  18.149  0.00  0.00    +0.000 C 
ENDROOT
BRANCH   1   2
ATOM      2  N   UNL     1       8.633  10.095  18.534  0.00  0.00    +0.000 NA
ATOM      3  H   UNL     1       9.064  10.652  17.797  0.00  0.00    +0.000 HD
BRANCH   2   4
ATOM      4  C   UNL     1       9.354  10.340  19.779  0.00  0.00    +0.000 C 
BRANCH   4   7
ATOM      5  C   UNL     1      11.152  13.573  18.875  0.00  0.00    +0.000 A 
ATOM      6  C   UNL     1      10.818  12.209  18.943  0.00  0.00    +0.000 A 
ATOM      7  C   UNL     1       9.891  11.745  19.873  0.00  0.00    +0.000 A 
ATOM      8  C   UNL     1       9.417  12.637  20.834  0.00  0.00    +0.000 A 
ATOM      9  C   UNL     1       9.785  13.994  20.825  0.00  0.00    +0.000 A 
ATOM     10  C   UNL     1      10.638  14.489  19.815  0.00  0.00    +0.000 A 
BRANCH   5  12
ATOM     11  C   UNL     1      11.783  13.424  16.631  0.00  0.00    +0.000 C 
ATOM     12  O   UNL     1      12.023  14.003  17.907  0.00  0.00    +0.000 OA
ENDBRANCH   5  12
BRANCH   9  13
ATOM     13  O   UNL     1       9.184  14.674  21.854  0.00  0.00    +0.000 OA
ATOM     14  C   UNL     1       8.755  13.957  23.001  0.00  0.00    +0.000 C 
ENDBRANCH   9  13
BRANCH  10  15
ATOM     15  O   UNL     1      10.914  15.831  19.834  0.00  0.00    +0.000 OA
ATOM     16  C   UNL     1      12.043  16.314  20.547  0.00  0.00    +0.000 C 
ENDBRANCH  10  15
ENDBRANCH   4   7
ENDBRANCH   2   4
ENDBRANCH   1   2
BRANCH   1  17
ATOM     17  C   UNL     1       7.354   8.155  17.545  0.00  0.00    +0.000 C 
BRANCH  17  18
ATOM     18  C   UNL     1       7.169   6.647  17.773  0.00  0.00    +0.000 C 
BRANCH  18  19
ATOM     19  N   UNL     1       5.998   6.073  17.071  0.00  0.00    +0.000 NA
ATOM     20  C   UNL     1       6.311   4.742  16.524  0.00  0.00    +0.000 C 
ATOM     21  C   UNL     1       5.094   4.082  15.878  0.00  0.00    +0.000 C 
ATOM     22  C   UNL     1       3.925   3.943  16.857  0.00  0.00    +0.000 C 
ATOM     23  C   UNL     1       3.621   5.341  17.419  0.00  0.00    +0.000 C 
ATOM     24  C   UNL     1       4.861   6.023  18.010  0.00  0.00    +0.000 C 
BRANCH  22  25
ATOM     25  C   UNL     1       4.192   2.938  17.999  0.00  0.00    +0.000 C 
BRANCH  25  26
ATOM     26  C   UNL     1       3.112   2.868  19.057  0.00  0.00    +0.000 A 
ATOM     27  C   UNL     1       3.477   2.865  20.404  0.00  0.00    +0.000 A 
ATOM     28  C   UNL     1       2.522   2.909  21.418  0.00  0.00    +0.000 A 
ATOM     29  C   UNL     1       1.172   2.910  21.087  0.00  0.00    +0.000 A 
ATOM     30  C   UNL     1       0.788   2.854  19.748  0.00  0.00    +0.000 A 
ATOM     31  C   UNL     1       1.753   2.842  18.735  0.00  0.00    +0.000 A 
ENDBRANCH  25  26
ENDBRANCH  22  25
ENDBRANCH  18  19
ENDBRANCH  17  18
ENDBRANCH   1  17
TORSDOF 11
ENDMDL
MODEL 7
REMARK VINA RESULT:      -6.9      7.066     10.378
REMARK  Name = 
REMARK  14 active torsions:
REMARK  status: ('A' for Active; 'I' for Inactive)
REMARK    1  A    between atoms: C_1  and  O_2
REMARK    2  A    between atoms: O_2  and  C_3
REMARK    3  A    between atoms: C_5  and  C_6
REMARK    4  A    between atoms: C_6  and  N_7
REMARK    5  A    between atoms: N_7  and  C_8
REMARK    6  A    between atoms: C_8  and  C_9
REMARK    7  A    between atoms: C_9  and  C_10
REMARK    8  A    between atoms: C_10  and  N_11
REMARK    9  A    between atoms: C_14  and  C_15
REMARK   10  A    between atoms: C_15  and  C_16
REMARK   11  A    between atoms: C_25  and  O_26
REMARK   12  A    between atoms: O_26  and  C_27
REMARK   13  A    between atoms: C_28  and  O_29
REMARK   14  A    between atoms: O_29  and  C_30
REMARK                            x       y       z     vdW  Elec       q    Type
REMARK                         _______ _______ _______ _____ _____    ______ ____
ROOT
ATOM      1  C   UNL     1       7.195   7.772  17.325  0.00  0.00    +0.000 C 
ENDROOT
BRANCH   1   2
ATOM      2  N   UNL     1       7.336   6.396  16.829  0.00  0.00    +0.000 NA
ATOM      3  H   UNL     1       8.062   6.370  16.114  0.00  0.00    +0.000 HD
BRANCH   2   4
ATOM      4  C   UNL     1       6.095   5.896  16.245  0.00  0.00    +0.000 C 
BRANCH   4   7
ATOM      5  C   UNL     1       4.229   4.076  19.022  0.00  0.00    +0.000 A 
ATOM      6  C   UNL     1       5.036   4.318  17.897  0.00  0.00    +0.000 A 
ATOM      7  C   UNL     1       5.054   5.569  17.285  0.00  0.00    +0.000 A 
ATOM      8  C   UNL     1       4.140   6.529  17.718  0.00  0.00    +0.000 A 
ATOM      9  C   UNL     1       3.278   6.288  18.803  0.00  0.00    +0.000 A 
ATOM     10  C   UNL     1       3.338   5.060  19.495  0.00  0.00    +0.000 A 
BRANCH   5  12
ATOM     11  C   UNL     1       3.675   1.811  18.882  0.00  0.00    +0.000 C 
ATOM     12  O   UNL     1       4.284   2.851  19.636  0.00  0.00    +0.000 OA
ENDBRANCH   5  12
BRANCH   9  13
ATOM     13  O   UNL     1       2.484   7.380  19.052  0.00  0.00    +0.000 OA
ATOM     14  C   UNL     1       2.133   8.240  17.980  0.00  0.00    +0.000 C 
ENDBRANCH   9  13
BRANCH  10  15
ATOM     15  O   UNL     1       2.507   4.911  20.575  0.00  0.00    +0.000 OA
ATOM     16  C   UNL     1       1.220   4.334  20.407  0.00  0.00    +0.000 C 
ENDBRANCH  10  15
ENDBRANCH   4   7
ENDBRANCH   2   4
ENDBRANCH   1   2
BRANCH   1  17
ATOM     17  C   UNL     1       8.424   8.300  18.081  0.00  0.00    +0.000 C 
BRANCH  17  18
ATOM     18  C   UNL     1       8.377   9.823  18.274  0.00  0.00    +0.000 C 
BRANCH  18  19
ATOM     19  N   UNL     1       9.600  10.389  18.887  0.00  0.00    +0.000 NA
ATOM     20  C   UNL     1      10.284  11.301  17.954  0.00  0.00    +0.000 C 
ATOM     21  C   UNL     1      11.497  11.976  18.591  0.00  0.00    +0.000 C 
ATOM     22  C   UNL     1      11.125  12.759  19.852  0.00  0.00    +0.000 C 
ATOM     23  C   UNL     1      10.408  11.791  20.807  0.00  0.00    +0.000 C 
ATOM     24  C   UNL     1       9.230  11.071  20.142  0.00  0.00    +0.000 C 
BRANCH  22  25
ATOM     25  C   UNL     1      10.251  14.002  19.573  0.00  0.00    +0.000 C 
BRANCH  25  26
ATOM     26  C   UNL     1       9.764  14.734  20.804  0.00  0.00    +0.000 A 
ATOM     27  C   UNL     1       8.391  14.829  21.041  0.00  0.00    +0.000 A 
ATOM     28  C   UNL     1       7.891  15.397  22.211  0.00  0.00    +0.000 A 
ATOM     29  C   UNL     1       8.773  15.924  23.147  0.00  0.00    +0.000 A 
ATOM     30  C   UNL     1      10.145  15.890  22.901  0.00  0.00    +0.000 A 
ATOM     31  C   UNL     1      10.640  15.290  21.738  0.00  0.00    +0.000 A 
ENDBRANCH  25  26
ENDBRANCH  22  25
ENDBRANCH  18  19
ENDBRANCH  17  18
ENDBRANCH   1  17
TORSDOF 11
ENDMDL
MODEL 8
REMARK VINA RESULT:      -6.8      1.775      3.565
REMARK  Name = 
REMARK  14 active torsions:
REMARK  status: ('A' for Active; 'I' for Inactive)
REMARK    1  A    between atoms: C_1  and  O_2
REMARK    2  A    between atoms: O_2  and  C_3
REMARK    3  A    between atoms: C_5  and  C_6
REMARK    4  A    between atoms: C_6  and  N_7
REMARK    5  A    between atoms: N_7  and  C_8
REMARK    6  A    between atoms: C_8  and  C_9
REMARK    7  A    between atoms: C_9  and  C_10
REMARK    8  A    between atoms: C_10  and  N_11
REMARK    9  A    between atoms: C_14  and  C_15
REMARK   10  A    between atoms: C_15  and  C_16
REMARK   11  A    between atoms: C_25  and  O_26
REMARK   12  A    between atoms: O_26  and  C_27
REMARK   13  A    between atoms: C_28  and  O_29
REMARK   14  A    between atoms: O_29  and  C_30
REMARK                            x       y       z     vdW  Elec       q    Type
REMARK                         _______ _______ _______ _____ _____    ______ ____
ROOT
ATOM      1  C   UNL     1       0.684   9.674  19.923  0.00  0.00    +0.000 C 
ENDROOT
BRANCH   1   2
ATOM      2  N   UNL     1       0.003  10.969  20.057  0.00  0.00    +0.000 NA
ATOM      3  H   UNL     1      -0.875  10.836  20.559  0.00  0.00    +0.000 HD
BRANCH   2   4
ATOM      4  C   UNL     1      -0.294  11.567  18.759  0.00  0.00    +0.000 C 
BRANCH   4   7
ATOM      5  C   UNL     1      -3.749  11.321  17.176  0.00  0.00    +0.000 A 
ATOM      6  C   UNL     1      -2.352  11.372  17.322  0.00  0.00    +0.000 A 
ATOM      7  C   UNL     1      -1.772  11.753  18.530  0.00  0.00    +0.000 A 
ATOM      8  C   UNL     1      -2.606  12.230  19.540  0.00  0.00    +0.000 A 
ATOM      9  C   UNL     1      -4.005  12.248  19.394  0.00  0.00    +0.000 A 
ATOM     10  C   UNL     1      -4.599  11.757  18.212  0.00  0.00    +0.000 A 
BRANCH   5  12
ATOM     11  C   UNL     1      -3.306  10.488  15.038  0.00  0.00    +0.000 C 
ATOM     12  O   UNL     1      -4.284  10.882  15.991  0.00  0.00    +0.000 OA
ENDBRANCH   5  12
BRANCH   9  13
ATOM     13  O   UNL     1      -4.610  12.745  20.521  0.00  0.00    +0.000 OA
ATOM     14  C   UNL     1      -5.109  14.073  20.511  0.00  0.00    +0.000 C 
ENDBRANCH   9  13
BRANCH  10  15
ATOM     15  O   UNL     1      -5.968  11.754  18.156  0.00  0.00    +0.000 OA
ATOM     16  C   UNL     1      -6.694  10.612  18.588  0.00  0.00    +0.000 C 
ENDBRANCH  10  15
ENDBRANCH   4   7
ENDBRANCH   2   4
ENDBRANCH   1   2
BRANCH   1  17
ATOM     17  C   UNL     1       0.801   8.883  21.235  0.00  0.00    +0.000 C 
BRANCH  17  18
ATOM     18  C   UNL     1       1.878   7.791  21.160  0.00  0.00    +0.000 C 
BRANCH  18  19
ATOM     19  N   UNL     1       1.636   6.778  20.107  0.00  0.00    +0.000 NA
ATOM     20  C   UNL     1       2.625   6.898  19.023  0.00  0.00    +0.000 C 
ATOM     21  C   UNL     1       2.461   5.804  17.968  0.00  0.00    +0.000 C 
ATOM     22  C   UNL     1       2.566   4.401  18.570  0.00  0.00    +0.000 C 
ATOM     23  C   UNL     1       1.531   4.302  19.702  0.00  0.00    +0.000 C 
ATOM     24  C   UNL     1       1.662   5.438  20.724  0.00  0.00    +0.000 C 
BRANCH  22  25
ATOM     25  C   UNL     1       3.980   4.055  19.088  0.00  0.00    +0.000 C 
BRANCH  25  26
ATOM     26  C   UNL     1       5.087   4.180  18.064  0.00  0.00    +0.000 A 
ATOM     27  C   UNL     1       4.865   3.724  16.762  0.00  0.00    +0.000 A 
ATOM     28  C   UNL     1       5.809   3.912  15.754  0.00  0.00    +0.000 A 
ATOM     29  C   UNL     1       7.019   4.525  16.056  0.00  0.00    +0.000 A 
ATOM     30  C   UNL     1       7.281   4.935  17.362  0.00  0.00    +0.000 A 
ATOM     31  C   UNL     1       6.316   4.771  18.361  0.00  0.00    +0.000 A 
ENDBRANCH  25  26
ENDBRANCH  22  25
ENDBRANCH  18  19
ENDBRANCH  17  18
ENDBRANCH   1  17
TORSDOF 11
ENDMDL
MODEL 9
REMARK VINA RESULT:      -6.7      6.635      8.819
REMARK  Name = 
REMARK  14 active torsions:
REMARK  status: ('A' for Active; 'I' for Inactive)
REMARK    1  A    between atoms: C_1  and  O_2
REMARK    2  A    between atoms: O_2  and  C_3
REMARK    3  A    between atoms: C_5  and  C_6
REMARK    4  A    between atoms: C_6  and  N_7
REMARK    5  A    between atoms: N_7  and  C_8
REMARK    6  A    between atoms: C_8  and  C_9
REMARK    7  A    between atoms: C_9  and  C_10
REMARK    8  A    between atoms: C_10  and  N_11
REMARK    9  A    between atoms: C_14  and  C_15
REMARK   10  A    between atoms: C_15  and  C_16
REMARK   11  A    between atoms: C_25  and  O_26
REMARK   12  A    between atoms: O_26  and  C_27
REMARK   13  A    between atoms: C_28  and  O_29
REMARK   14  A    between atoms: O_29  and  C_30
REMARK                            x       y       z     vdW  Elec       q    Type
REMARK                         _______ _______ _______ _____ _____    ______ ____
ROOT
ATOM      1  C   UNL     1       9.256  10.578  18.310  0.00  0.00    +0.000 C 
ENDROOT
BRANCH   1   2
ATOM      2  N   UNL     1      10.275  11.049  19.258  0.00  0.00    +0.000 NA
ATOM      3  H   UNL     1      10.090  10.646  20.176  0.00  0.00    +0.000 HD
BRANCH   2   4
ATOM      4  C   UNL     1      10.274  12.503  19.383  0.00  0.00    +0.000 C 
BRANCH   4   7
ATOM      5  C   UNL     1       8.459  13.146  22.669  0.00  0.00    +0.000 A 
ATOM      6  C   UNL     1       9.248  12.530  21.682  0.00  0.00    +0.000 A 
ATOM      7  C   UNL     1       9.250  13.000  20.371  0.00  0.00    +0.000 A 
ATOM      8  C   UNL     1       8.338  13.996  20.026  0.00  0.00    +0.000 A 
ATOM      9  C   UNL     1       7.493  14.585  20.984  0.00  0.00    +0.000 A 
ATOM     10  C   UNL     1       7.570  14.187  22.335  0.00  0.00    +0.000 A 
BRANCH   5  12
ATOM     11  C   UNL     1       7.709  11.560  24.213  0.00  0.00    +0.000 C 
ATOM     12  O   UNL     1       8.530  12.694  23.962  0.00  0.00    +0.000 OA
ENDBRANCH   5  12
BRANCH   9  13
ATOM     13  O   UNL     1       6.697  15.547  20.413  0.00  0.00    +0.000 OA
ATOM     14  C   UNL     1       6.149  15.317  19.125  0.00  0.00    +0.000 C 
ENDBRANCH   9  13
BRANCH  10  15
ATOM     15  O   UNL     1       6.756  14.838  23.225  0.00  0.00    +0.000 OA
ATOM     16  C   UNL     1       5.427  14.383  23.437  0.00  0.00    +0.000 C 
ENDBRANCH  10  15
ENDBRANCH   4   7
ENDBRANCH   2   4
ENDBRANCH   1   2
BRANCH   1  17
ATOM     17  C   UNL     1       8.686   9.188  18.633  0.00  0.00    +0.000 C 
BRANCH  17  18
ATOM     18  C   UNL     1       7.567   8.780  17.663  0.00  0.00    +0.000 C 
BRANCH  18  19
ATOM     19  N   UNL     1       7.527   7.330  17.367  0.00  0.00    +0.000 NA
ATOM     20  C   UNL     1       7.862   6.538  18.563  0.00  0.00    +0.000 C 
ATOM     21  C   UNL     1       7.736   5.035  18.314  0.00  0.00    +0.000 C 
ATOM     22  C   UNL     1       6.331   4.644  17.849  0.00  0.00    +0.000 C 
ATOM     23  C   UNL     1       6.001   5.486  16.607  0.00  0.00    +0.000 C 
ATOM     24  C   UNL     1       6.190   6.989  16.844  0.00  0.00    +0.000 C 
BRANCH  22  25
ATOM     25  C   UNL     1       5.248   4.821  18.936  0.00  0.00    +0.000 C 
BRANCH  25  26
ATOM     26  C   UNL     1       3.922   4.158  18.635  0.00  0.00    +0.000 A 
ATOM     27  C   UNL     1       3.897   2.798  18.318  0.00  0.00    +0.000 A 
ATOM     28  C   UNL     1       2.696   2.115  18.137  0.00  0.00    +0.000 A 
ATOM     29  C   UNL     1       1.494   2.807  18.226  0.00  0.00    +0.000 A 
ATOM     30  C   UNL     1       1.502   4.177  18.483  0.00  0.00    +0.000 A 
ATOM     31  C   UNL     1       2.710   4.850  18.695  0.00  0.00    +0.000 A 
ENDBRANCH  25  26
ENDBRANCH  22  25
ENDBRANCH  18  19
ENDBRANCH  17  18
ENDBRANCH   1  17
TORSDOF 11
ENDMDL
