MODEL 1
REMARK VINA RESULT:      -8.0      0.000      0.000
REMARK  Name = 
REMARK  6 active torsions:
REMARK  status: ('A' for Active; 'I' for Inactive)
REMARK    1  A    between atoms: C_1  and  C_2
REMARK    2  A    between atoms: C_2  and  C_3
REMARK    3  A    between atoms: C_3  and  C_4
REMARK    4  A    between atoms: C_4  and  O_5
REMARK    5  A    between atoms: O_5  and  C_6
REMARK    6  A    between atoms: C_13  and  C_14
REMARK                            x       y       z     vdW  Elec       q    Type
REMARK                         _______ _______ _______ _____ _____    ______ ____
ROOT
ATOM      1  C   UNL     1       6.482   5.560  16.751  0.00  0.00    +0.000 A 
ATOM      2  N   UNL     1       7.545   5.775  17.607  0.00  0.00    +0.000 N 
ATOM      3  C   UNL     1       7.417   5.542  18.952  0.00  0.00    +0.000 A 
ATOM      4  N   UNL     1       6.367   5.088  19.569  0.00  0.00    +0.000 NA
ATOM      5  C   UNL     1       5.292   4.836  18.748  0.00  0.00    +0.000 A 
ATOM      6  C   UNL     1       4.080   4.383  19.066  0.00  0.00    +0.000 A 
ATOM      7  C   UNL     1       3.392   3.985  20.254  0.00  0.00    +0.000 A 
ATOM      8  C   UNL     1       2.112   3.564  20.161  0.00  0.00    +0.000 A 
ATOM      9  C   UNL     1       1.308   3.118  21.349  0.00  0.00    +0.000 C 
ATOM     10  C   UNL     1       1.437   3.524  18.864  0.00  0.00    +0.000 A 
ATOM     11  C   UNL     1       2.025   3.894  17.712  0.00  0.00    +0.000 A 
ATOM     12  C   UNL     1       3.422   4.363  17.743  0.00  0.00    +0.000 A 
ATOM     13  N   UNL     1       4.138   4.762  16.729  0.00  0.00    +0.000 NA
ATOM     14  C   UNL     1       5.348   5.079  17.302  0.00  0.00    +0.000 A 
ATOM     15  H   UNL     1       8.380   6.205  17.247  0.00  0.00    +0.000 HD
ENDROOT
BRANCH   1  16
ATOM     16  O   UNL     1       6.559   5.834  15.398  0.00  0.00    +0.000 OA
BRANCH  16  17
ATOM     17  C   UNL     1       7.106   4.806  14.572  0.00  0.00    +0.000 C 
BRANCH  17  18
ATOM     18  C   UNL     1       5.968   4.032  13.924  0.00  0.00    +0.000 C 
BRANCH  18  20
ATOM     19  C   UNL     1       5.093   3.113  11.755  0.00  0.00    +0.000 C 
ATOM     20  C   UNL     1       6.322   3.599  12.503  0.00  0.00    +0.000 C 
ENDBRANCH  18  20
ENDBRANCH  17  18
ENDBRANCH  16  17
ENDBRANCH   1  16
TORSDOF 4
ENDMDL
MODEL 2
REMARK VINA RESULT:      -7.6      2.419      4.416
REMARK  Name = 
REMARK  6 active torsions:
REMARK  status: ('A' for Active; 'I' for Inactive)
REMARK    1  A    between atoms: C_1  and  C_2
REMARK    2  A    between atoms: C_2  and  C_3
REMARK    3  A    between atoms: C_3  and  C_4
REMARK    4  A    between atoms: C_4  and  O_5
REMARK    5  A    between atoms: O_5  and  C_6
REMARK    6  A    between atoms: C_13  and  C_14
REMARK                            x       y       z     vdW  Elec       q    Type
REMARK                         _______ _______ _______ _____ _____    ______ ____
ROOT
ATOM      1  C   UNL     1       6.414   6.434  16.539  0.00  0.00    +0.000 A 
ATOM      2  N   UNL     1       7.132   5.591  15.713  0.00  0.00    +0.000 N 
ATOM      3  C   UNL     1       6.729   4.296  15.515  0.00  0.00    +0.000 A 
ATOM      4  N   UNL     1       5.674   3.722  16.012  0.00  0.00    +0.000 NA
ATOM      5  C   UNL     1       4.915   4.536  16.822  0.00  0.00    +0.000 A 
ATOM      6  C   UNL     1       3.796   4.252  17.487  0.00  0.00    +0.000 A 
ATOM      7  C   UNL     1       2.941   3.118  17.658  0.00  0.00    +0.000 A 
ATOM      8  C   UNL     1       1.850   3.232  18.445  0.00  0.00    +0.000 A 
ATOM      9  C   UNL     1       0.889   2.103  18.681  0.00  0.00    +0.000 C 
ATOM     10  C   UNL     1       1.550   4.496  19.118  0.00  0.00    +0.000 A 
ATOM     11  C   UNL     1       2.318   5.595  19.005  0.00  0.00    +0.000 A 
ATOM     12  C   UNL     1       3.524   5.538  18.161  0.00  0.00    +0.000 A 
ATOM     13  N   UNL     1       4.377   6.501  17.946  0.00  0.00    +0.000 NA
ATOM     14  C   UNL     1       5.295   5.927  17.096  0.00  0.00    +0.000 A 
ATOM     15  H   UNL     1       8.012   5.907  15.342  0.00  0.00    +0.000 HD
ENDROOT
BRANCH   1  16
ATOM     16  O   UNL     1       6.821   7.729  16.803  0.00  0.00    +0.000 OA
BRANCH  16  17
ATOM     17  C   UNL     1       7.863   7.882  17.766  0.00  0.00    +0.000 C 
BRANCH  17  18
ATOM     18  C   UNL     1       8.235   9.354  17.865  0.00  0.00    +0.000 C 
BRANCH  18  20
ATOM     19  C   UNL     1       9.769  10.991  18.997  0.00  0.00    +0.000 C 
ATOM     20  C   UNL     1       9.095   9.634  19.096  0.00  0.00    +0.000 C 
ENDBRANCH  18  20
ENDBRANCH  17  18
ENDBRANCH  16  17
ENDBRANCH   1  16
TORSDOF 4
ENDMDL
MODEL 3
REMARK VINA RESULT:      -7.5      0.908      1.011
REMARK  Name = 
REMARK  6 active torsions:
REMARK  status: ('A' for Active; 'I' for Inactive)
REMARK    1  A    between atoms: C_1  and  C_2
REMARK    2  A    between atoms: C_2  and  C_3
REMARK    3  A    between atoms: C_3  and  C_4
REMARK    4  A    between atoms: C_4  and  O_5
REMARK    5  A    between atoms: O_5  and  C_6
REMARK    6  A    between atoms: C_13  and  C_14
REMARK                            x       y       z     vdW  Elec       q    Type
REMARK                         _______ _______ _______ _____ _____    ______ ____
ROOT
ATOM      1  C   UNL     1       7.197   4.730  16.928  0.00  0.00    +0.000 A 
ATOM      2  N   UNL     1       7.985   5.337  17.887  0.00  0.00    +0.000 N 
ATOM      3  C   UNL     1       7.477   5.630  19.126  0.00  0.00    +0.000 A 
ATOM      4  N   UNL     1       6.279   5.371  19.560  0.00  0.00    +0.000 NA
ATOM      5  C   UNL     1       5.468   4.743  18.643  0.00  0.00    +0.000 A 
ATOM      6  C   UNL     1       4.198   4.358  18.769  0.00  0.00    +0.000 A 
ATOM      7  C   UNL     1       3.190   4.397  19.782  0.00  0.00    +0.000 A 
ATOM      8  C   UNL     1       1.973   3.879  19.515  0.00  0.00    +0.000 A 
ATOM      9  C   UNL     1       0.851   3.865  20.515  0.00  0.00    +0.000 C 
ATOM     10  C   UNL     1       1.686   3.292  18.206  0.00  0.00    +0.000 A 
ATOM     11  C   UNL     1       2.587   3.233  17.208  0.00  0.00    +0.000 A 
ATOM     12  C   UNL     1       3.937   3.781  17.434  0.00  0.00    +0.000 A 
ATOM     13  N   UNL     1       4.923   3.812  16.581  0.00  0.00    +0.000 NA
ATOM     14  C   UNL     1       5.936   4.415  17.291  0.00  0.00    +0.000 A 
ATOM     15  H   UNL     1       8.904   5.656  17.630  0.00  0.00    +0.000 HD
ENDROOT
BRANCH   1  16
ATOM     16  O   UNL     1       7.660   4.468  15.652  0.00  0.00    +0.000 OA
BRANCH  16  17
ATOM     17  C   UNL     1       6.880   4.988  14.575  0.00  0.00    +0.000 C 
BRANCH  17  18
ATOM     18  C   UNL     1       7.736   5.033  13.319  0.00  0.00    +0.000 C 
BRANCH  18  20
ATOM     19  C   UNL     1       5.879   3.476  12.653  0.00  0.00    +0.000 C 
ATOM     20  C   UNL     1       7.095   4.251  12.174  0.00  0.00    +0.000 C 
ENDBRANCH  18  20
ENDBRANCH  17  18
ENDBRANCH  16  17
ENDBRANCH   1  16
TORSDOF 4
ENDMDL
MODEL 4
REMARK VINA RESULT:      -7.3      1.492      1.782
REMARK  Name = 
REMARK  6 active torsions:
REMARK  status: ('A' for Active; 'I' for Inactive)
REMARK    1  A    between atoms: C_1  and  C_2
REMARK    2  A    between atoms: C_2  and  C_3
REMARK    3  A    between atoms: C_3  and  C_4
REMARK    4  A    between atoms: C_4  and  O_5
REMARK    5  A    between atoms: O_5  and  C_6
REMARK    6  A    between atoms: C_13  and  C_14
REMARK                            x       y       z     vdW  Elec       q    Type
REMARK                         _______ _______ _______ _____ _____    ______ ____
ROOT
ATOM      1  C   UNL     1       6.356   4.490  15.584  0.00  0.00    +0.000 A 
ATOM      2  N   UNL     1       7.333   5.434  15.835  0.00  0.00    +0.000 N 
ATOM      3  C   UNL     1       7.189   6.334  16.859  0.00  0.00    +0.000 A 
ATOM      4  N   UNL     1       6.202   6.406  17.702  0.00  0.00    +0.000 NA
ATOM      5  C   UNL     1       5.217   5.466  17.503  0.00  0.00    +0.000 A 
ATOM      6  C   UNL     1       4.082   5.283  18.176  0.00  0.00    +0.000 A 
ATOM      7  C   UNL     1       3.419   5.885  19.290  0.00  0.00    +0.000 A 
ATOM      8  C   UNL     1       2.230   5.390  19.692  0.00  0.00    +0.000 A 
ATOM      9  C   UNL     1       1.460   5.948  20.855  0.00  0.00    +0.000 C 
ATOM     10  C   UNL     1       1.624   4.255  18.993  0.00  0.00    +0.000 A 
ATOM     11  C   UNL     1       2.192   3.650  17.934  0.00  0.00    +0.000 A 
ATOM     12  C   UNL     1       3.492   4.143  17.444  0.00  0.00    +0.000 A 
ATOM     13  N   UNL     1       4.175   3.681  16.434  0.00  0.00    +0.000 NA
ATOM     14  C   UNL     1       5.293   4.483  16.416  0.00  0.00    +0.000 A 
ATOM     15  H   UNL     1       8.102   5.521  15.192  0.00  0.00    +0.000 HD
ENDROOT
BRANCH   1  16
ATOM     16  O   UNL     1       6.443   3.602  14.528  0.00  0.00    +0.000 OA
BRANCH  16  17
ATOM     17  C   UNL     1       6.512   4.175  13.223  0.00  0.00    +0.000 C 
BRANCH  17  18
ATOM     18  C   UNL     1       5.860   3.225  12.229  0.00  0.00    +0.000 C 
BRANCH  18  20
ATOM     19  C   UNL     1       6.357   1.051  11.071  0.00  0.00    +0.000 C 
ATOM     20  C   UNL     1       6.902   2.414  11.462  0.00  0.00    +0.000 C 
ENDBRANCH  18  20
ENDBRANCH  17  18
ENDBRANCH  16  17
ENDBRANCH   1  16
TORSDOF 4
ENDMDL
MODEL 5
REMARK VINA RESULT:      -7.2      2.432      6.362
REMARK  Name = 
REMARK  6 active torsions:
REMARK  status: ('A' for Active; 'I' for Inactive)
REMARK    1  A    between atoms: C_1  and  C_2
REMARK    2  A    between atoms: C_2  and  C_3
REMARK    3  A    between atoms: C_3  and  C_4
REMARK    4  A    between atoms: C_4  and  O_5
REMARK    5  A    between atoms: O_5  and  C_6
REMARK    6  A    between atoms: C_13  and  C_14
REMARK                            x       y       z     vdW  Elec       q    Type
REMARK                         _______ _______ _______ _____ _____    ______ ____
ROOT
ATOM      1  C   UNL     1       6.742   5.971  17.622  0.00  0.00    +0.000 A 
ATOM      2  N   UNL     1       5.675   5.637  18.435  0.00  0.00    +0.000 N 
ATOM      3  C   UNL     1       4.632   4.893  17.948  0.00  0.00    +0.000 A 
ATOM      4  N   UNL     1       4.515   4.402  16.750  0.00  0.00    +0.000 NA
ATOM      5  C   UNL     1       5.570   4.690  15.915  0.00  0.00    +0.000 A 
ATOM      6  C   UNL     1       5.748   4.351  14.638  0.00  0.00    +0.000 A 
ATOM      7  C   UNL     1       5.032   3.614  13.643  0.00  0.00    +0.000 A 
ATOM      8  C   UNL     1       5.568   3.485  12.411  0.00  0.00    +0.000 A 
ATOM      9  C   UNL     1       4.899   2.725  11.302  0.00  0.00    +0.000 C 
ATOM     10  C   UNL     1       6.861   4.095  12.096  0.00  0.00    +0.000 A 
ATOM     11  C   UNL     1       7.579   4.807  12.984  0.00  0.00    +0.000 A 
ATOM     12  C   UNL     1       7.050   4.987  14.348  0.00  0.00    +0.000 A 
ATOM     13  N   UNL     1       7.607   5.647  15.325  0.00  0.00    +0.000 NA
ATOM     14  C   UNL     1       6.712   5.497  16.359  0.00  0.00    +0.000 A 
ATOM     15  H   UNL     1       5.624   6.035  19.358  0.00  0.00    +0.000 HD
ENDROOT
BRANCH   1  16
ATOM     16  O   UNL     1       7.784   6.764  18.064  0.00  0.00    +0.000 OA
BRANCH  16  17
ATOM     17  C   UNL     1       7.729   8.144  17.702  0.00  0.00    +0.000 C 
BRANCH  17  18
ATOM     18  C   UNL     1       8.702   8.925  18.572  0.00  0.00    +0.000 C 
BRANCH  18  20
ATOM     19  C   UNL     1       9.767  11.158  19.012  0.00  0.00    +0.000 C 
ATOM     20  C   UNL     1       8.758  10.397  18.170  0.00  0.00    +0.000 C 
ENDBRANCH  18  20
ENDBRANCH  17  18
ENDBRANCH  16  17
ENDBRANCH   1  16
TORSDOF 4
ENDMDL
MODEL 6
REMARK VINA RESULT:      -7.2      1.684      1.837
REMARK  Name = 
REMARK  6 active torsions:
REMARK  status: ('A' for Active; 'I' for Inactive)
REMARK    1  A    between atoms: C_1  and  C_2
REMARK    2  A    between atoms: C_2  and  C_3
REMARK    3  A    between atoms: C_3  and  C_4
REMARK    4  A    between atoms: C_4  and  O_5
REMARK    5  A    between atoms: O_5  and  C_6
REMARK    6  A    between atoms: C_13  and  C_14
REMARK                            x       y       z     vdW  Elec       q    Type
REMARK                         _______ _______ _______ _____ _____    ______ ____
ROOT
ATOM      1  C   UNL     1       6.070   4.991  15.758  0.00  0.00    +0.000 A 
ATOM      2  N   UNL     1       6.096   6.372  15.796  0.00  0.00    +0.000 N 
ATOM      3  C   UNL     1       5.210   7.066  16.580  0.00  0.00    +0.000 A 
ATOM      4  N   UNL     1       4.306   6.564  17.368  0.00  0.00    +0.000 NA
ATOM      5  C   UNL     1       4.264   5.189  17.379  0.00  0.00    +0.000 A 
ATOM      6  C   UNL     1       3.454   4.378  18.059  0.00  0.00    +0.000 A 
ATOM      7  C   UNL     1       2.379   4.517  18.992  0.00  0.00    +0.000 A 
ATOM      8  C   UNL     1       1.788   3.407  19.481  0.00  0.00    +0.000 A 
ATOM      9  C   UNL     1       0.658   3.448  20.470  0.00  0.00    +0.000 C 
ATOM     10  C   UNL     1       2.235   2.080  19.057  0.00  0.00    +0.000 A 
ATOM     11  C   UNL     1       3.233   1.882  18.176  0.00  0.00    +0.000 A 
ATOM     12  C   UNL     1       3.922   3.053  17.604  0.00  0.00    +0.000 A 
ATOM     13  N   UNL     1       4.898   3.043  16.740  0.00  0.00    +0.000 NA
ATOM     14  C   UNL     1       5.167   4.380  16.552  0.00  0.00    +0.000 A 
ATOM     15  H   UNL     1       6.702   6.865  15.162  0.00  0.00    +0.000 HD
ENDROOT
BRANCH   1  16
ATOM     16  O   UNL     1       6.912   4.261  14.939  0.00  0.00    +0.000 OA
BRANCH  16  17
ATOM     17  C   UNL     1       6.676   4.363  13.535  0.00  0.00    +0.000 C 
BRANCH  17  18
ATOM     18  C   UNL     1       5.351   3.692  13.204  0.00  0.00    +0.000 C 
BRANCH  18  20
ATOM     19  C   UNL     1       4.043   3.208  11.114  0.00  0.00    +0.000 C 
ATOM     20  C   UNL     1       5.379   3.049  11.820  0.00  0.00    +0.000 C 
ENDBRANCH  18  20
ENDBRANCH  17  18
ENDBRANCH  16  17
ENDBRANCH   1  16
TORSDOF 4
ENDMDL
MODEL 7
REMARK VINA RESULT:      -7.2      1.122      1.269
REMARK  Name = 
REMARK  6 active torsions:
REMARK  status: ('A' for Active; 'I' for Inactive)
REMARK    1  A    between atoms: C_1  and  C_2
REMARK    2  A    between atoms: C_2  and  C_3
REMARK    3  A    between atoms: C_3  and  C_4
REMARK    4  A    between atoms: C_4  and  O_5
REMARK    5  A    between atoms: O_5  and  C_6
REMARK    6  A    between atoms: C_13  and  C_14
REMARK                            x       y       z     vdW  Elec       q    Type
REMARK                         _______ _______ _______ _____ _____    ______ ____
ROOT
ATOM      1  C   UNL     1       5.551   5.168  15.837  0.00  0.00    +0.000 A 
ATOM      2  N   UNL     1       6.399   6.102  16.401  0.00  0.00    +0.000 N 
ATOM      3  C   UNL     1       6.341   6.379  17.742  0.00  0.00    +0.000 A 
ATOM      4  N   UNL     1       5.561   5.823  18.621  0.00  0.00    +0.000 NA
ATOM      5  C   UNL     1       4.717   4.867  18.105  0.00  0.00    +0.000 A 
ATOM      6  C   UNL     1       3.797   4.132  18.730  0.00  0.00    +0.000 A 
ATOM      7  C   UNL     1       3.306   3.987  20.065  0.00  0.00    +0.000 A 
ATOM      8  C   UNL     1       2.324   3.094  20.309  0.00  0.00    +0.000 A 
ATOM      9  C   UNL     1       1.747   2.863  21.676  0.00  0.00    +0.000 C 
ATOM     10  C   UNL     1       1.767   2.288  19.222  0.00  0.00    +0.000 A 
ATOM     11  C   UNL     1       2.179   2.383  17.944  0.00  0.00    +0.000 A 
ATOM     12  C   UNL     1       3.249   3.341  17.609  0.00  0.00    +0.000 A 
ATOM     13  N   UNL     1       3.760   3.564  16.431  0.00  0.00    +0.000 NA
ATOM     14  C   UNL     1       4.708   4.531  16.676  0.00  0.00    +0.000 A 
ATOM     15  H   UNL     1       6.987   6.652  15.797  0.00  0.00    +0.000 HD
ENDROOT
BRANCH   1  16
ATOM     16  O   UNL     1       5.545   4.902  14.480  0.00  0.00    +0.000 OA
BRANCH  16  17
ATOM     17  C   UNL     1       6.404   3.852  14.037  0.00  0.00    +0.000 C 
BRANCH  17  18
ATOM     18  C   UNL     1       6.462   3.868  12.517  0.00  0.00    +0.000 C 
BRANCH  18  20
ATOM     19  C   UNL     1       5.750   1.751  11.364  0.00  0.00    +0.000 C 
ATOM     20  C   UNL     1       5.296   3.097  11.903  0.00  0.00    +0.000 C 
ENDBRANCH  18  20
ENDBRANCH  17  18
ENDBRANCH  16  17
ENDBRANCH   1  16
TORSDOF 4
ENDMDL
MODEL 8
REMARK VINA RESULT:      -7.0      1.187      1.447
REMARK  Name = 
REMARK  6 active torsions:
REMARK  status: ('A' for Active; 'I' for Inactive)
REMARK    1  A    between atoms: C_1  and  C_2
REMARK    2  A    between atoms: C_2  and  C_3
REMARK    3  A    between atoms: C_3  and  C_4
REMARK    4  A    between atoms: C_4  and  O_5
REMARK    5  A    between atoms: O_5  and  C_6
REMARK    6  A    between atoms: C_13  and  C_14
REMARK                            x       y       z     vdW  Elec       q    Type
REMARK                         _______ _______ _______ _____ _____    ______ ____
ROOT
ATOM      1  C   UNL     1       6.287   4.749  15.916  0.00  0.00    +0.000 A 
ATOM      2  N   UNL     1       7.504   4.863  16.561  0.00  0.00    +0.000 N 
ATOM      3  C   UNL     1       7.595   4.690  17.918  0.00  0.00    +0.000 A 
ATOM      4  N   UNL     1       6.628   4.386  18.732  0.00  0.00    +0.000 NA
ATOM      5  C   UNL     1       5.402   4.238  18.126  0.00  0.00    +0.000 A 
ATOM      6  C   UNL     1       4.223   3.946  18.675  0.00  0.00    +0.000 A 
ATOM      7  C   UNL     1       3.719   3.671  19.984  0.00  0.00    +0.000 A 
ATOM      8  C   UNL     1       2.405   3.405  20.139  0.00  0.00    +0.000 A 
ATOM      9  C   UNL     1       1.782   3.098  21.471  0.00  0.00    +0.000 C 
ATOM     10  C   UNL     1       1.507   3.405  18.984  0.00  0.00    +0.000 A 
ATOM     11  C   UNL     1       1.917   3.664  17.728  0.00  0.00    +0.000 A 
ATOM     12  C   UNL     1       3.340   3.962  17.490  0.00  0.00    +0.000 A 
ATOM     13  N   UNL     1       3.903   4.239  16.346  0.00  0.00    +0.000 NA
ATOM     14  C   UNL     1       5.224   4.426  16.682  0.00  0.00    +0.000 A 
ATOM     15  H   UNL     1       8.304   5.177  16.038  0.00  0.00    +0.000 HD
ENDROOT
BRANCH   1  16
ATOM     16  O   UNL     1       6.150   4.969  14.558  0.00  0.00    +0.000 OA
BRANCH  16  17
ATOM     17  C   UNL     1       6.127   3.808  13.727  0.00  0.00    +0.000 C 
BRANCH  17  18
ATOM     18  C   UNL     1       6.943   4.080  12.472  0.00  0.00    +0.000 C 
BRANCH  18  20
ATOM     19  C   UNL     1       7.879   6.202  11.506  0.00  0.00    +0.000 C 
ATOM     20  C   UNL     1       7.919   5.236  12.677  0.00  0.00    +0.000 C 
ENDBRANCH  18  20
ENDBRANCH  17  18
ENDBRANCH  16  17
ENDBRANCH   1  16
TORSDOF 4
ENDMDL
MODEL 9
REMARK VINA RESULT:      -7.0      2.930      4.105
REMARK  Name = 
REMARK  6 active torsions:
REMARK  status: ('A' for Active; 'I' for Inactive)
REMARK    1  A    between atoms: C_1  and  C_2
REMARK    2  A    between atoms: C_2  and  C_3
REMARK    3  A    between atoms: C_3  and  C_4
REMARK    4  A    between atoms: C_4  and  O_5
REMARK    5  A    between atoms: O_5  and  C_6
REMARK    6  A    between atoms: C_13  and  C_14
REMARK                            x       y       z     vdW  Elec       q    Type
REMARK                         _______ _______ _______ _____ _____    ______ ____
ROOT
ATOM      1  C   UNL     1       4.601   4.141  17.800  0.00  0.00    +0.000 A 
ATOM      2  N   UNL     1       4.592   3.039  18.634  0.00  0.00    +0.000 N 
ATOM      3  C   UNL     1       3.891   3.060  19.811  0.00  0.00    +0.000 A 
ATOM      4  N   UNL     1       3.160   4.033  20.268  0.00  0.00    +0.000 NA
ATOM      5  C   UNL     1       3.122   5.142  19.454  0.00  0.00    +0.000 A 
ATOM      6  C   UNL     1       2.484   6.298  19.639  0.00  0.00    +0.000 A 
ATOM      7  C   UNL     1       1.636   6.876  20.634  0.00  0.00    +0.000 A 
ATOM      8  C   UNL     1       1.167   8.128  20.449  0.00  0.00    +0.000 A 
ATOM      9  C   UNL     1       0.264   8.819  21.431  0.00  0.00    +0.000 C 
ATOM     10  C   UNL     1       1.528   8.886  19.251  0.00  0.00    +0.000 A 
ATOM     11  C   UNL     1       2.328   8.403  18.283  0.00  0.00    +0.000 A 
ATOM     12  C   UNL     1       2.874   7.041  18.423  0.00  0.00    +0.000 A 
ATOM     13  N   UNL     1       3.664   6.424  17.589  0.00  0.00    +0.000 NA
ATOM     14  C   UNL     1       3.862   5.201  18.189  0.00  0.00    +0.000 A 
ATOM     15  H   UNL     1       5.191   2.260  18.417  0.00  0.00    +0.000 HD
ENDROOT
BRANCH   1  16
ATOM     16  O   UNL     1       5.339   4.175  16.631  0.00  0.00    +0.000 OA
BRANCH  16  17
ATOM     17  C   UNL     1       6.728   4.479  16.767  0.00  0.00    +0.000 C 
BRANCH  17  18
ATOM     18  C   UNL     1       6.959   5.929  16.369  0.00  0.00    +0.000 C 
BRANCH  18  20
ATOM     19  C   UNL     1       7.659   5.897  18.783  0.00  0.00    +0.000 C 
ATOM     20  C   UNL     1       7.483   6.755  17.542  0.00  0.00    +0.000 C 
ENDBRANCH  18  20
ENDBRANCH  17  18
ENDBRANCH  16  17
ENDBRANCH   1  16
TORSDOF 4
ENDMDL
