MODEL 1
REMARK VINA RESULT:      -8.6      0.000      0.000
REMARK  Name = 
REMARK  7 active torsions:
REMARK  status: ('A' for Active; 'I' for Inactive)
REMARK    1  A    between atoms: C_1  and  C_2
REMARK    2  A    between atoms: C_6  and  C_7
REMARK    3  A    between atoms: C_7  and  N_8
REMARK    4  A    between atoms: N_8  and  C_9
REMARK    5  A    between atoms: C_9  and  C_10
REMARK    6  A    between atoms: N_13  and  C_14
REMARK    7  A    between atoms: C_14  and  C_15
REMARK                            x       y       z     vdW  Elec       q    Type
REMARK                         _______ _______ _______ _____ _____    ______ ____
ROOT
ATOM      1  C   UNL     1       7.589   6.232  17.810  0.00  0.00    +0.000 C 
ATOM      2  C   UNL     1       7.316   5.375  16.576  0.00  0.00    +0.000 C 
ATOM      3  C   UNL     1       5.934   4.716  16.470  0.00  0.00    +0.000 C 
ATOM      4  N   UNL     1       5.157   4.512  17.682  0.00  0.00    +0.000 NA
ATOM      5  C   UNL     1       5.373   5.457  18.762  0.00  0.00    +0.000 C 
ATOM      6  C   UNL     1       6.849   5.675  19.031  0.00  0.00    +0.000 C 
ENDROOT
BRANCH   1   7
ATOM      7  C   UNL     1       7.349   7.752  17.611  0.00  0.00    +0.000 C 
BRANCH   7   8
ATOM      8  N   UNL     1       8.322   8.588  18.334  0.00  0.00    +0.000 NA
ATOM      9  H   UNL     1       8.038   8.716  19.297  0.00  0.00    +0.000 HD
BRANCH   8  10
ATOM     10  C   UNL     1       8.551   9.910  17.723  0.00  0.00    +0.000 C 
BRANCH  10  16
ATOM     11  C   UNL     1      12.333  13.231  18.067  0.00  0.00    +0.000 C 
ATOM     12  C   UNL     1      11.300  12.375  18.740  0.00  0.00    +0.000 A 
ATOM     13  C   UNL     1      11.186  12.332  20.128  0.00  0.00    +0.000 A 
ATOM     14  C   UNL     1      10.222  11.525  20.744  0.00  0.00    +0.000 A 
ATOM     15  C   UNL     1       9.374  10.737  19.961  0.00  0.00    +0.000 A 
ATOM     16  C   UNL     1       9.483  10.746  18.569  0.00  0.00    +0.000 A 
ATOM     17  C   UNL     1      10.438  11.579  17.967  0.00  0.00    +0.000 A 
ENDBRANCH  10  16
ENDBRANCH   8  10
ENDBRANCH   7   8
ENDBRANCH   1   7
BRANCH   4  18
ATOM     18  C   UNL     1       3.741   4.139  17.481  0.00  0.00    +0.000 C 
BRANCH  18  19
ATOM     19  C   UNL     1       2.884   3.832  18.704  0.00  0.00    +0.000 A 
ATOM     20  C   UNL     1       2.114   4.844  19.329  0.00  0.00    +0.000 A 
ATOM     21 CL   UNL     1       2.076   6.478  18.759  0.00  0.00    +0.000 Cl
ATOM     22  C   UNL     1       1.295   4.569  20.426  0.00  0.00    +0.000 A 
ATOM     23  C   UNL     1       1.181   3.272  20.935  0.00  0.00    +0.000 A 
ATOM     24  C   UNL     1       1.906   2.260  20.324  0.00  0.00    +0.000 A 
ATOM     25  C   UNL     1       2.760   2.525  19.242  0.00  0.00    +0.000 A 
ATOM     26 CL   UNL     1       3.581   1.161  18.562  0.00  0.00    +0.000 Cl
ENDBRANCH  18  19
ENDBRANCH   4  18
TORSDOF 6
ENDMDL
MODEL 2
REMARK VINA RESULT:      -8.5      1.039      1.882
REMARK  Name = 
REMARK  7 active torsions:
REMARK  status: ('A' for Active; 'I' for Inactive)
REMARK    1  A    between atoms: C_1  and  C_2
REMARK    2  A    between atoms: C_6  and  C_7
REMARK    3  A    between atoms: C_7  and  N_8
REMARK    4  A    between atoms: N_8  and  C_9
REMARK    5  A    between atoms: C_9  and  C_10
REMARK    6  A    between atoms: N_13  and  C_14
REMARK    7  A    between atoms: C_14  and  C_15
REMARK                            x       y       z     vdW  Elec       q    Type
REMARK                         _______ _______ _______ _____ _____    ______ ____
ROOT
ATOM      1  C   UNL     1       7.356   6.220  17.813  0.00  0.00    +0.000 C 
ATOM      2  C   UNL     1       7.263   5.207  16.675  0.00  0.00    +0.000 C 
ATOM      3  C   UNL     1       6.053   4.262  16.672  0.00  0.00    +0.000 C 
ATOM      4  N   UNL     1       5.348   4.019  17.920  0.00  0.00    +0.000 NA
ATOM      5  C   UNL     1       5.365   5.091  18.899  0.00  0.00    +0.000 C 
ATOM      6  C   UNL     1       6.763   5.643  19.102  0.00  0.00    +0.000 C 
ENDROOT
BRANCH   1   7
ATOM      7  C   UNL     1       6.795   7.628  17.477  0.00  0.00    +0.000 C 
BRANCH   7   8
ATOM      8  N   UNL     1       7.817   8.685  17.537  0.00  0.00    +0.000 NA
ATOM      9  H   UNL     1       8.462   8.605  16.762  0.00  0.00    +0.000 HD
BRANCH   8  10
ATOM     10  C   UNL     1       8.584   8.708  18.797  0.00  0.00    +0.000 C 
BRANCH  10  16
ATOM     11  C   UNL     1      10.749  12.869  16.939  0.00  0.00    +0.000 C 
ATOM     12  C   UNL     1      10.250  12.090  18.120  0.00  0.00    +0.000 A 
ATOM     13  C   UNL     1      10.367  12.585  19.418  0.00  0.00    +0.000 A 
ATOM     14  C   UNL     1       9.902  11.846  20.512  0.00  0.00    +0.000 A 
ATOM     15  C   UNL     1       9.331  10.587  20.307  0.00  0.00    +0.000 A 
ATOM     16  C   UNL     1       9.223  10.059  19.019  0.00  0.00    +0.000 A 
ATOM     17  C   UNL     1       9.670  10.824  17.931  0.00  0.00    +0.000 A 
ENDBRANCH  10  16
ENDBRANCH   8  10
ENDBRANCH   7   8
ENDBRANCH   1   7
BRANCH   4  18
ATOM     18  C   UNL     1       4.043   3.336  17.797  0.00  0.00    +0.000 C 
BRANCH  18  19
ATOM     19  C   UNL     1       3.104   3.328  18.998  0.00  0.00    +0.000 A 
ATOM     20  C   UNL     1       3.458   2.663  20.197  0.00  0.00    +0.000 A 
ATOM     21 CL   UNL     1       4.963   1.831  20.398  0.00  0.00    +0.000 Cl
ATOM     22  C   UNL     1       2.625   2.679  21.318  0.00  0.00    +0.000 A 
ATOM     23  C   UNL     1       1.415   3.379  21.308  0.00  0.00    +0.000 A 
ATOM     24  C   UNL     1       1.059   4.059  20.153  0.00  0.00    +0.000 A 
ATOM     25  C   UNL     1       1.868   4.024  19.006  0.00  0.00    +0.000 A 
ATOM     26 CL   UNL     1       1.311   4.941  17.647  0.00  0.00    +0.000 Cl
ENDBRANCH  18  19
ENDBRANCH   4  18
TORSDOF 6
ENDMDL
MODEL 3
REMARK VINA RESULT:      -8.4      4.145      5.702
REMARK  Name = 
REMARK  7 active torsions:
REMARK  status: ('A' for Active; 'I' for Inactive)
REMARK    1  A    between atoms: C_1  and  C_2
REMARK    2  A    between atoms: C_6  and  C_7
REMARK    3  A    between atoms: C_7  and  N_8
REMARK    4  A    between atoms: N_8  and  C_9
REMARK    5  A    between atoms: C_9  and  C_10
REMARK    6  A    between atoms: N_13  and  C_14
REMARK    7  A    between atoms: C_14  and  C_15
REMARK                            x       y       z     vdW  Elec       q    Type
REMARK                         _______ _______ _______ _____ _____    ______ ____
ROOT
ATOM      1  C   UNL     1       6.354   5.945  16.637  0.00  0.00    +0.000 C 
ATOM      2  C   UNL     1       5.522   5.246  15.564  0.00  0.00    +0.000 C 
ATOM      3  C   UNL     1       4.610   4.099  16.019  0.00  0.00    +0.000 C 
ATOM      4  N   UNL     1       4.911   3.414  17.267  0.00  0.00    +0.000 NA
ATOM      5  C   UNL     1       5.580   4.191  18.293  0.00  0.00    +0.000 C 
ATOM      6  C   UNL     1       6.764   4.957  17.734  0.00  0.00    +0.000 C 
ENDROOT
BRANCH   1   7
ATOM      7  C   UNL     1       5.721   7.241  17.209  0.00  0.00    +0.000 C 
BRANCH   7   8
ATOM      8  N   UNL     1       4.261   7.298  17.027  0.00  0.00    +0.000 NA
ATOM      9  H   UNL     1       3.963   8.239  16.806  0.00  0.00    +0.000 HD
BRANCH   8  10
ATOM     10  C   UNL     1       3.491   6.812  18.187  0.00  0.00    +0.000 C 
BRANCH  10  16
ATOM     11  C   UNL     1       0.449   8.672  21.756  0.00  0.00    +0.000 C 
ATOM     12  C   UNL     1       1.020   8.759  20.371  0.00  0.00    +0.000 A 
ATOM     13  C   UNL     1       0.631   9.765  19.488  0.00  0.00    +0.000 A 
ATOM     14  C   UNL     1       1.166   9.832  18.197  0.00  0.00    +0.000 A 
ATOM     15  C   UNL     1       2.089   8.869  17.777  0.00  0.00    +0.000 A 
ATOM     16  C   UNL     1       2.478   7.839  18.635  0.00  0.00    +0.000 A 
ATOM     17  C   UNL     1       1.950   7.801  19.934  0.00  0.00    +0.000 A 
ENDBRANCH  10  16
ENDBRANCH   8  10
ENDBRANCH   7   8
ENDBRANCH   1   7
BRANCH   4  18
ATOM     18  C   UNL     1       3.849   2.523  17.781  0.00  0.00    +0.000 C 
BRANCH  18  19
ATOM     19  C   UNL     1       3.071   2.951  19.021  0.00  0.00    +0.000 A 
ATOM     20  C   UNL     1       1.888   3.722  18.910  0.00  0.00    +0.000 A 
ATOM     21 CL   UNL     1       1.234   4.222  17.388  0.00  0.00    +0.000 Cl
ATOM     22  C   UNL     1       1.145   4.089  20.034  0.00  0.00    +0.000 A 
ATOM     23  C   UNL     1       1.527   3.684  21.316  0.00  0.00    +0.000 A 
ATOM     24  C   UNL     1       2.668   2.907  21.447  0.00  0.00    +0.000 A 
ATOM     25  C   UNL     1       3.446   2.558  20.331  0.00  0.00    +0.000 A 
ATOM     26 CL   UNL     1       4.828   1.562  20.642  0.00  0.00    +0.000 Cl
ENDBRANCH  18  19
ENDBRANCH   4  18
TORSDOF 6
ENDMDL
MODEL 4
REMARK VINA RESULT:      -8.4      0.526      1.406
REMARK  Name = 
REMARK  7 active torsions:
REMARK  status: ('A' for Active; 'I' for Inactive)
REMARK    1  A    between atoms: C_1  and  C_2
REMARK    2  A    between atoms: C_6  and  C_7
REMARK    3  A    between atoms: C_7  and  N_8
REMARK    4  A    between atoms: N_8  and  C_9
REMARK    5  A    between atoms: C_9  and  C_10
REMARK    6  A    between atoms: N_13  and  C_14
REMARK    7  A    between atoms: C_14  and  C_15
REMARK                            x       y       z     vdW  Elec       q    Type
REMARK                         _______ _______ _______ _____ _____    ______ ____
ROOT
ATOM      1  C   UNL     1       7.543   6.285  17.624  0.00  0.00    +0.000 C 
ATOM      2  C   UNL     1       7.158   5.539  16.349  0.00  0.00    +0.000 C 
ATOM      3  C   UNL     1       5.756   4.917  16.295  0.00  0.00    +0.000 C 
ATOM      4  N   UNL     1       5.068   4.626  17.543  0.00  0.00    +0.000 NA
ATOM      5  C   UNL     1       5.387   5.473  18.677  0.00  0.00    +0.000 C 
ATOM      6  C   UNL     1       6.885   5.641  18.849  0.00  0.00    +0.000 C 
ENDROOT
BRANCH   1   7
ATOM      7  C   UNL     1       7.327   7.821  17.570  0.00  0.00    +0.000 C 
BRANCH   7   8
ATOM      8  N   UNL     1       8.403   8.578  18.231  0.00  0.00    +0.000 NA
ATOM      9  H   UNL     1       8.337   8.491  19.236  0.00  0.00    +0.000 HD
BRANCH   8  10
ATOM     10  C   UNL     1       8.437  10.009  17.875  0.00  0.00    +0.000 C 
BRANCH  10  16
ATOM     11  C   UNL     1       9.425  12.373  22.220  0.00  0.00    +0.000 C 
ATOM     12  C   UNL     1       9.889  11.891  20.878  0.00  0.00    +0.000 A 
ATOM     13  C   UNL     1      11.187  12.131  20.430  0.00  0.00    +0.000 A 
ATOM     14  C   UNL     1      11.607  11.680  19.173  0.00  0.00    +0.000 A 
ATOM     15  C   UNL     1      10.711  10.998  18.345  0.00  0.00    +0.000 A 
ATOM     16  C   UNL     1       9.398  10.766  18.762  0.00  0.00    +0.000 A 
ATOM     17  C   UNL     1       9.002  11.202  20.035  0.00  0.00    +0.000 A 
ENDBRANCH  10  16
ENDBRANCH   8  10
ENDBRANCH   7   8
ENDBRANCH   1   7
BRANCH   4  18
ATOM     18  C   UNL     1       3.632   4.297  17.422  0.00  0.00    +0.000 C 
BRANCH  18  19
ATOM     19  C   UNL     1       2.843   3.981  18.687  0.00  0.00    +0.000 A 
ATOM     20  C   UNL     1       2.110   4.988  19.362  0.00  0.00    +0.000 A 
ATOM     21 CL   UNL     1       2.042   6.627  18.808  0.00  0.00    +0.000 Cl
ATOM     22  C   UNL     1       1.353   4.705  20.501  0.00  0.00    +0.000 A 
ATOM     23  C   UNL     1       1.267   3.404  21.005  0.00  0.00    +0.000 A 
ATOM     24  C   UNL     1       1.955   2.397  20.347  0.00  0.00    +0.000 A 
ATOM     25  C   UNL     1       2.749   2.670  19.222  0.00  0.00    +0.000 A 
ATOM     26 CL   UNL     1       3.529   1.310  18.486  0.00  0.00    +0.000 Cl
ENDBRANCH  18  19
ENDBRANCH   4  18
TORSDOF 6
ENDMDL
MODEL 5
REMARK VINA RESULT:      -8.4      4.180      5.955
REMARK  Name = 
REMARK  7 active torsions:
REMARK  status: ('A' for Active; 'I' for Inactive)
REMARK    1  A    between atoms: C_1  and  C_2
REMARK    2  A    between atoms: C_6  and  C_7
REMARK    3  A    between atoms: C_7  and  N_8
REMARK    4  A    between atoms: N_8  and  C_9
REMARK    5  A    between atoms: C_9  and  C_10
REMARK    6  A    between atoms: N_13  and  C_14
REMARK    7  A    between atoms: C_14  and  C_15
REMARK                            x       y       z     vdW  Elec       q    Type
REMARK                         _______ _______ _______ _____ _____    ______ ____
ROOT
ATOM      1  C   UNL     1       6.235   6.010  16.813  0.00  0.00    +0.000 C 
ATOM      2  C   UNL     1       5.445   5.311  15.709  0.00  0.00    +0.000 C 
ATOM      3  C   UNL     1       4.569   4.120  16.120  0.00  0.00    +0.000 C 
ATOM      4  N   UNL     1       4.877   3.412  17.353  0.00  0.00    +0.000 NA
ATOM      5  C   UNL     1       5.502   4.185  18.410  0.00  0.00    +0.000 C 
ATOM      6  C   UNL     1       6.665   5.009  17.890  0.00  0.00    +0.000 C 
ENDROOT
BRANCH   1   7
ATOM      7  C   UNL     1       5.547   7.267  17.409  0.00  0.00    +0.000 C 
BRANCH   7   8
ATOM      8  N   UNL     1       4.089   7.276  17.205  0.00  0.00    +0.000 NA
ATOM      9  H   UNL     1       3.770   8.196  16.931  0.00  0.00    +0.000 HD
BRANCH   8  10
ATOM     10  C   UNL     1       3.314   6.833  18.379  0.00  0.00    +0.000 C 
BRANCH  10  16
ATOM     11  C   UNL     1       0.390   8.939  21.909  0.00  0.00    +0.000 C 
ATOM     12  C   UNL     1       0.893   8.913  20.496  0.00  0.00    +0.000 A 
ATOM     13  C   UNL     1       0.435   9.824  19.546  0.00  0.00    +0.000 A 
ATOM     14  C   UNL     1       0.909   9.785  18.229  0.00  0.00    +0.000 A 
ATOM     15  C   UNL     1       1.837   8.810  17.853  0.00  0.00    +0.000 A 
ATOM     16  C   UNL     1       2.294   7.872  18.781  0.00  0.00    +0.000 A 
ATOM     17  C   UNL     1       1.828   7.941  20.103  0.00  0.00    +0.000 A 
ENDBRANCH  10  16
ENDBRANCH   8  10
ENDBRANCH   7   8
ENDBRANCH   1   7
BRANCH   4  18
ATOM     18  C   UNL     1       3.841   2.470  17.827  0.00  0.00    +0.000 C 
BRANCH  18  19
ATOM     19  C   UNL     1       2.998   2.857  19.037  0.00  0.00    +0.000 A 
ATOM     20  C   UNL     1       3.385   2.481  20.347  0.00  0.00    +0.000 A 
ATOM     21 CL   UNL     1       4.826   1.580  20.676  0.00  0.00    +0.000 Cl
ATOM     22  C   UNL     1       2.644   2.860  21.468  0.00  0.00    +0.000 A 
ATOM     23  C   UNL     1       1.499   3.653  21.341  0.00  0.00    +0.000 A 
ATOM     24  C   UNL     1       1.115   4.054  20.071  0.00  0.00    +0.000 A 
ATOM     25  C   UNL     1       1.829   3.653  18.931  0.00  0.00    +0.000 A 
ATOM     26 CL   UNL     1       1.249   4.252  17.414  0.00  0.00    +0.000 Cl
ENDBRANCH  18  19
ENDBRANCH   4  18
TORSDOF 6
ENDMDL
MODEL 6
REMARK VINA RESULT:      -8.2      0.624      1.899
REMARK  Name = 
REMARK  7 active torsions:
REMARK  status: ('A' for Active; 'I' for Inactive)
REMARK    1  A    between atoms: C_1  and  C_2
REMARK    2  A    between atoms: C_6  and  C_7
REMARK    3  A    between atoms: C_7  and  N_8
REMARK    4  A    between atoms: N_8  and  C_9
REMARK    5  A    between atoms: C_9  and  C_10
REMARK    6  A    between atoms: N_13  and  C_14
REMARK    7  A    between atoms: C_14  and  C_15
REMARK                            x       y       z     vdW  Elec       q    Type
REMARK                         _______ _______ _______ _____ _____    ______ ____
ROOT
ATOM      1  C   UNL     1       7.681   6.076  17.993  0.00  0.00    +0.000 C 
ATOM      2  C   UNL     1       7.099   5.979  16.585  0.00  0.00    +0.000 C 
ATOM      3  C   UNL     1       5.609   5.632  16.464  0.00  0.00    +0.000 C 
ATOM      4  N   UNL     1       4.952   4.953  17.570  0.00  0.00    +0.000 NA
ATOM      5  C   UNL     1       5.479   5.209  18.897  0.00  0.00    +0.000 C 
ATOM      6  C   UNL     1       6.990   5.085  18.935  0.00  0.00    +0.000 C 
ENDROOT
BRANCH   1   7
ATOM      7  C   UNL     1       7.735   7.513  18.576  0.00  0.00    +0.000 C 
BRANCH   7   8
ATOM      8  N   UNL     1       8.447   8.462  17.704  0.00  0.00    +0.000 NA
ATOM      9  H   UNL     1       9.448   8.368  17.813  0.00  0.00    +0.000 HD
BRANCH   8  10
ATOM     10  C   UNL     1       8.074   9.873  17.918  0.00  0.00    +0.000 C 
BRANCH  10  16
ATOM     11  C   UNL     1      12.044  12.934  17.361  0.00  0.00    +0.000 C 
ATOM     12  C   UNL     1      11.128  12.157  18.260  0.00  0.00    +0.000 A 
ATOM     13  C   UNL     1      11.315  12.135  19.641  0.00  0.00    +0.000 A 
ATOM     14  C   UNL     1      10.457  11.401  20.469  0.00  0.00    +0.000 A 
ATOM     15  C   UNL     1       9.411  10.664  19.906  0.00  0.00    +0.000 A 
ATOM     16  C   UNL     1       9.218  10.652  18.523  0.00  0.00    +0.000 A 
ATOM     17  C   UNL     1      10.071  11.413  17.711  0.00  0.00    +0.000 A 
ENDBRANCH  10  16
ENDBRANCH   8  10
ENDBRANCH   7   8
ENDBRANCH   1   7
BRANCH   4  18
ATOM     18  C   UNL     1       3.476   4.904  17.506  0.00  0.00    +0.000 C 
BRANCH  18  19
ATOM     19  C   UNL     1       2.708   4.375  18.713  0.00  0.00    +0.000 A 
ATOM     20  C   UNL     1       2.564   2.984  18.934  0.00  0.00    +0.000 A 
ATOM     21 CL   UNL     1       3.245   1.792  17.879  0.00  0.00    +0.000 Cl
ATOM     22  C   UNL     1       1.896   2.485  20.054  0.00  0.00    +0.000 A 
ATOM     23  C   UNL     1       1.365   3.345  21.020  0.00  0.00    +0.000 A 
ATOM     24  C   UNL     1       1.516   4.711  20.838  0.00  0.00    +0.000 A 
ATOM     25  C   UNL     1       2.154   5.230  19.700  0.00  0.00    +0.000 A 
ATOM     26 CL   UNL     1       2.295   6.954  19.620  0.00  0.00    +0.000 Cl
ENDBRANCH  18  19
ENDBRANCH   4  18
TORSDOF 6
ENDMDL
MODEL 7
REMARK VINA RESULT:      -8.1      0.963      2.254
REMARK  Name = 
REMARK  7 active torsions:
REMARK  status: ('A' for Active; 'I' for Inactive)
REMARK    1  A    between atoms: C_1  and  C_2
REMARK    2  A    between atoms: C_6  and  C_7
REMARK    3  A    between atoms: C_7  and  N_8
REMARK    4  A    between atoms: N_8  and  C_9
REMARK    5  A    between atoms: C_9  and  C_10
REMARK    6  A    between atoms: N_13  and  C_14
REMARK    7  A    between atoms: C_14  and  C_15
REMARK                            x       y       z     vdW  Elec       q    Type
REMARK                         _______ _______ _______ _____ _____    ______ ____
ROOT
ATOM      1  C   UNL     1       7.202   6.089  16.960  0.00  0.00    +0.000 C 
ATOM      2  C   UNL     1       6.508   5.700  15.657  0.00  0.00    +0.000 C 
ATOM      3  C   UNL     1       5.196   4.910  15.768  0.00  0.00    +0.000 C 
ATOM      4  N   UNL     1       4.927   4.162  16.987  0.00  0.00    +0.000 NA
ATOM      5  C   UNL     1       5.510   4.679  18.211  0.00  0.00    +0.000 C 
ATOM      6  C   UNL     1       6.977   5.020  18.034  0.00  0.00    +0.000 C 
ENDROOT
BRANCH   1   7
ATOM      7  C   UNL     1       6.879   7.520  17.465  0.00  0.00    +0.000 C 
BRANCH   7   8
ATOM      8  N   UNL     1       8.012   8.450  17.326  0.00  0.00    +0.000 NA
ATOM      9  H   UNL     1       8.753   8.033  16.778  0.00  0.00    +0.000 HD
BRANCH   8  10
ATOM     10  C   UNL     1       8.570   8.914  18.610  0.00  0.00    +0.000 C 
BRANCH  10  16
ATOM     11  C   UNL     1      11.864  12.542  19.808  0.00  0.00    +0.000 C 
ATOM     12  C   UNL     1      10.628  12.110  19.076  0.00  0.00    +0.000 A 
ATOM     13  C   UNL     1       9.882  13.011  18.318  0.00  0.00    +0.000 A 
ATOM     14  C   UNL     1       8.727  12.597  17.644  0.00  0.00    +0.000 A 
ATOM     15  C   UNL     1       8.302  11.270  17.746  0.00  0.00    +0.000 A 
ATOM     16  C   UNL     1       9.018  10.354  18.518  0.00  0.00    +0.000 A 
ATOM     17  C   UNL     1      10.188  10.779  19.166  0.00  0.00    +0.000 A 
ENDBRANCH  10  16
ENDBRANCH   8  10
ENDBRANCH   7   8
ENDBRANCH   1   7
BRANCH   4  18
ATOM     18  C   UNL     1       3.544   3.664  17.141  0.00  0.00    +0.000 C 
BRANCH  18  19
ATOM     19  C   UNL     1       2.893   3.725  18.518  0.00  0.00    +0.000 A 
ATOM     20  C   UNL     1       2.868   2.590  19.365  0.00  0.00    +0.000 A 
ATOM     21 CL   UNL     1       3.573   1.073  18.919  0.00  0.00    +0.000 Cl
ATOM     22  C   UNL     1       2.309   2.641  20.643  0.00  0.00    +0.000 A 
ATOM     23  C   UNL     1       1.773   3.829  21.149  0.00  0.00    +0.000 A 
ATOM     24  C   UNL     1       1.808   4.960  20.348  0.00  0.00    +0.000 A 
ATOM     25  C   UNL     1       2.335   4.917  19.047  0.00  0.00    +0.000 A 
ATOM     26 CL   UNL     1       2.339   6.411  18.172  0.00  0.00    +0.000 Cl
ENDBRANCH  18  19
ENDBRANCH   4  18
TORSDOF 6
ENDMDL
MODEL 8
REMARK VINA RESULT:      -8.1      4.295      5.863
REMARK  Name = 
REMARK  7 active torsions:
REMARK  status: ('A' for Active; 'I' for Inactive)
REMARK    1  A    between atoms: C_1  and  C_2
REMARK    2  A    between atoms: C_6  and  C_7
REMARK    3  A    between atoms: C_7  and  N_8
REMARK    4  A    between atoms: N_8  and  C_9
REMARK    5  A    between atoms: C_9  and  C_10
REMARK    6  A    between atoms: N_13  and  C_14
REMARK    7  A    between atoms: C_14  and  C_15
REMARK                            x       y       z     vdW  Elec       q    Type
REMARK                         _______ _______ _______ _____ _____    ______ ____
ROOT
ATOM      1  C   UNL     1       5.866   6.601  16.988  0.00  0.00    +0.000 C 
ATOM      2  C   UNL     1       5.324   5.727  15.860  0.00  0.00    +0.000 C 
ATOM      3  C   UNL     1       4.626   4.419  16.259  0.00  0.00    +0.000 C 
ATOM      4  N   UNL     1       4.922   3.831  17.556  0.00  0.00    +0.000 NA
ATOM      5  C   UNL     1       5.296   4.747  18.617  0.00  0.00    +0.000 C 
ATOM      6  C   UNL     1       6.348   5.739  18.159  0.00  0.00    +0.000 C 
ENDROOT
BRANCH   1   7
ATOM      7  C   UNL     1       4.916   7.742  17.440  0.00  0.00    +0.000 C 
BRANCH   7   8
ATOM      8  N   UNL     1       3.500   7.339  17.459  0.00  0.00    +0.000 NA
ATOM      9  H   UNL     1       3.273   6.788  16.642  0.00  0.00    +0.000 HD
BRANCH   8  10
ATOM     10  C   UNL     1       2.555   8.467  17.553  0.00  0.00    +0.000 C 
BRANCH  10  16
ATOM     11  C   UNL     1      -0.532  10.736  20.835  0.00  0.00    +0.000 C 
ATOM     12  C   UNL     1       0.362   9.583  20.488  0.00  0.00    +0.000 A 
ATOM     13  C   UNL     1       0.586   8.543  21.389  0.00  0.00    +0.000 A 
ATOM     14  C   UNL     1       1.428   7.475  21.056  0.00  0.00    +0.000 A 
ATOM     15  C   UNL     1       2.069   7.457  19.814  0.00  0.00    +0.000 A 
ATOM     16  C   UNL     1       1.879   8.499  18.904  0.00  0.00    +0.000 A 
ATOM     17  C   UNL     1       1.012   9.549  19.243  0.00  0.00    +0.000 A 
ENDBRANCH  10  16
ENDBRANCH   8  10
ENDBRANCH   7   8
ENDBRANCH   1   7
BRANCH   4  18
ATOM     18  C   UNL     1       4.020   2.743  17.988  0.00  0.00    +0.000 C 
BRANCH  18  19
ATOM     19  C   UNL     1       3.108   2.981  19.187  0.00  0.00    +0.000 A 
ATOM     20  C   UNL     1       1.873   3.659  19.042  0.00  0.00    +0.000 A 
ATOM     21 CL   UNL     1       1.303   4.252  17.520  0.00  0.00    +0.000 Cl
ATOM     22  C   UNL     1       1.011   3.851  20.124  0.00  0.00    +0.000 A 
ATOM     23  C   UNL     1       1.323   3.353  21.392  0.00  0.00    +0.000 A 
ATOM     24  C   UNL     1       2.515   2.663  21.553  0.00  0.00    +0.000 A 
ATOM     25  C   UNL     1       3.409   2.492  20.484  0.00  0.00    +0.000 A 
ATOM     26 CL   UNL     1       4.846   1.587  20.824  0.00  0.00    +0.000 Cl
ENDBRANCH  18  19
ENDBRANCH   4  18
TORSDOF 6
ENDMDL
MODEL 9
REMARK VINA RESULT:      -8.0      0.570      2.306
REMARK  Name = 
REMARK  7 active torsions:
REMARK  status: ('A' for Active; 'I' for Inactive)
REMARK    1  A    between atoms: C_1  and  C_2
REMARK    2  A    between atoms: C_6  and  C_7
REMARK    3  A    between atoms: C_7  and  N_8
REMARK    4  A    between atoms: N_8  and  C_9
REMARK    5  A    between atoms: C_9  and  C_10
REMARK    6  A    between atoms: N_13  and  C_14
REMARK    7  A    between atoms: C_14  and  C_15
REMARK                            x       y       z     vdW  Elec       q    Type
REMARK                         _______ _______ _______ _____ _____    ______ ____
ROOT
ATOM      1  C   UNL     1       7.468   6.376  17.585  0.00  0.00    +0.000 C 
ATOM      2  C   UNL     1       7.082   5.699  16.273  0.00  0.00    +0.000 C 
ATOM      3  C   UNL     1       5.689   5.059  16.196  0.00  0.00    +0.000 C 
ATOM      4  N   UNL     1       5.016   4.688  17.432  0.00  0.00    +0.000 NA
ATOM      5  C   UNL     1       5.334   5.475  18.609  0.00  0.00    +0.000 C 
ATOM      6  C   UNL     1       6.831   5.655  18.777  0.00  0.00    +0.000 C 
ENDROOT
BRANCH   1   7
ATOM      7  C   UNL     1       7.229   7.910  17.619  0.00  0.00    +0.000 C 
BRANCH   7   8
ATOM      8  N   UNL     1       8.463   8.680  17.845  0.00  0.00    +0.000 NA
ATOM      9  H   UNL     1       8.892   8.422  18.725  0.00  0.00    +0.000 HD
BRANCH   8  10
ATOM     10  C   UNL     1       8.273  10.142  17.817  0.00  0.00    +0.000 C 
BRANCH  10  16
ATOM     11  C   UNL     1       9.487  12.468  22.125  0.00  0.00    +0.000 C 
ATOM     12  C   UNL     1       9.896  11.946  20.780  0.00  0.00    +0.000 A 
ATOM     13  C   UNL     1      11.199  12.096  20.310  0.00  0.00    +0.000 A 
ATOM     14  C   UNL     1      11.567  11.609  19.050  0.00  0.00    +0.000 A 
ATOM     15  C   UNL     1      10.615  10.982  18.242  0.00  0.00    +0.000 A 
ATOM     16  C   UNL     1       9.297  10.840  18.681  0.00  0.00    +0.000 A 
ATOM     17  C   UNL     1       8.951  11.311  19.957  0.00  0.00    +0.000 A 
ENDBRANCH  10  16
ENDBRANCH   8  10
ENDBRANCH   7   8
ENDBRANCH   1   7
BRANCH   4  18
ATOM     18  C   UNL     1       3.584   4.345  17.304  0.00  0.00    +0.000 C 
BRANCH  18  19
ATOM     19  C   UNL     1       2.794   4.020  18.567  0.00  0.00    +0.000 A 
ATOM     20  C   UNL     1       2.755   2.702  19.085  0.00  0.00    +0.000 A 
ATOM     21 CL   UNL     1       3.596   1.381  18.349  0.00  0.00    +0.000 Cl
ATOM     22  C   UNL     1       2.066   2.397  20.261  0.00  0.00    +0.000 A 
ATOM     23  C   UNL     1       1.408   3.391  20.990  0.00  0.00    +0.000 A 
ATOM     24  C   UNL     1       1.453   4.693  20.516  0.00  0.00    +0.000 A 
ATOM     25  C   UNL     1       2.112   5.011  19.318  0.00  0.00    +0.000 A 
ATOM     26 CL   UNL     1       2.110   6.682  18.862  0.00  0.00    +0.000 Cl
ENDBRANCH  18  19
ENDBRANCH   4  18
TORSDOF 6
ENDMDL
