MODEL 1
REMARK VINA RESULT:      -7.6      0.000      0.000
REMARK  Name = 
REMARK  7 active torsions:
REMARK  status: ('A' for Active; 'I' for Inactive)
REMARK    1  A    between atoms: C_1  and  C_2
REMARK    2  A    between atoms: C_2  and  O_3
REMARK    3  A    between atoms: O_3  and  C_4
REMARK    4  A    between atoms: C_6  and  O_7
REMARK    5  A    between atoms: O_7  and  C_8
REMARK    6  A    between atoms: C_8  and  C_9
REMARK    7  A    between atoms: C_14  and  C_15
REMARK                            x       y       z     vdW  Elec       q    Type
REMARK                         _______ _______ _______ _____ _____    ______ ____
ROOT
ATOM      1  C   UNL     1       2.575   7.346  18.846  0.00  0.00    +0.000 A 
ATOM      2  C   UNL     1       2.317   6.336  19.770  0.00  0.00    +0.000 A 
ATOM      3  C   UNL     1       2.898   5.054  19.653  0.00  0.00    +0.000 A 
ATOM      4  C   UNL     1       3.689   4.771  18.520  0.00  0.00    +0.000 A 
ATOM      5  C   UNL     1       4.319   3.463  18.210  0.00  0.00    +0.000 A 
ATOM      6  O   UNL     1       4.263   2.492  18.948  0.00  0.00    +0.000 OA
ATOM      7  C   UNL     1       5.036   3.351  16.913  0.00  0.00    +0.000 A 
ATOM      8  C   UNL     1       5.151   4.424  16.126  0.00  0.00    +0.000 A 
ATOM      9  O   UNL     1       4.659   5.664  16.446  0.00  0.00    +0.000 OA
ATOM     10  C   UNL     1       3.912   5.788  17.594  0.00  0.00    +0.000 A 
ATOM     11  C   UNL     1       3.392   7.067  17.763  0.00  0.00    +0.000 A 
ENDROOT
BRANCH   8  12
ATOM     12  C   UNL     1       5.800   4.389  14.812  0.00  0.00    +0.000 A 
ATOM     13  C   UNL     1       7.015   5.061  14.615  0.00  0.00    +0.000 A 
ATOM     14  C   UNL     1       7.646   5.029  13.369  0.00  0.00    +0.000 A 
ATOM     15  C   UNL     1       7.077   4.315  12.316  0.00  0.00    +0.000 A 
ATOM     16  C   UNL     1       5.884   3.620  12.512  0.00  0.00    +0.000 A 
ATOM     17  C   UNL     1       5.249   3.651  13.758  0.00  0.00    +0.000 A 
ENDBRANCH   8  12
BRANCH   1  18
ATOM     18  O   UNL     1       1.994   8.563  19.099  0.00  0.00    +0.000 OA
BRANCH  18  20
ATOM     19  C   UNL     1       0.244   9.964  18.219  0.00  0.00    +0.000 C 
ATOM     20  C   UNL     1       1.556   9.269  17.937  0.00  0.00    +0.000 C 
ENDBRANCH  18  20
ENDBRANCH   1  18
BRANCH   3  21
ATOM     21  O   UNL     1       2.712   4.083  20.617  0.00  0.00    +0.000 OA
BRANCH  21  22
ATOM     22  C   UNL     1       1.350   3.701  20.856  0.00  0.00    +0.000 C 
ATOM     23  C   UNL     1       0.769   2.930  19.684  0.00  0.00    +0.000 C 
ENDBRANCH  21  22
ENDBRANCH   3  21
TORSDOF 5
ENDMDL
MODEL 2
REMARK VINA RESULT:      -7.6      0.301      1.050
REMARK  Name = 
REMARK  7 active torsions:
REMARK  status: ('A' for Active; 'I' for Inactive)
REMARK    1  A    between atoms: C_1  and  C_2
REMARK    2  A    between atoms: C_2  and  O_3
REMARK    3  A    between atoms: O_3  and  C_4
REMARK    4  A    between atoms: C_6  and  O_7
REMARK    5  A    between atoms: O_7  and  C_8
REMARK    6  A    between atoms: C_8  and  C_9
REMARK    7  A    between atoms: C_14  and  C_15
REMARK                            x       y       z     vdW  Elec       q    Type
REMARK                         _______ _______ _______ _____ _____    ______ ____
ROOT
ATOM      1  C   UNL     1       2.676   7.650  18.596  0.00  0.00    +0.000 A 
ATOM      2  C   UNL     1       2.413   6.696  19.576  0.00  0.00    +0.000 A 
ATOM      3  C   UNL     1       2.984   5.404  19.529  0.00  0.00    +0.000 A 
ATOM      4  C   UNL     1       3.771   5.053  18.412  0.00  0.00    +0.000 A 
ATOM      5  C   UNL     1       4.390   3.725  18.175  0.00  0.00    +0.000 A 
ATOM      6  O   UNL     1       4.329   2.797  18.966  0.00  0.00    +0.000 OA
ATOM      7  C   UNL     1       5.103   3.535  16.884  0.00  0.00    +0.000 A 
ATOM      8  C   UNL     1       5.224   4.562  16.038  0.00  0.00    +0.000 A 
ATOM      9  O   UNL     1       4.741   5.822  16.290  0.00  0.00    +0.000 OA
ATOM     10  C   UNL     1       3.999   6.015  17.430  0.00  0.00    +0.000 A 
ATOM     11  C   UNL     1       3.488   7.305  17.529  0.00  0.00    +0.000 A 
ENDROOT
BRANCH   8  12
ATOM     12  C   UNL     1       5.870   4.448  14.727  0.00  0.00    +0.000 A 
ATOM     13  C   UNL     1       5.285   3.659  13.726  0.00  0.00    +0.000 A 
ATOM     14  C   UNL     1       5.887   3.548  12.471  0.00  0.00    +0.000 A 
ATOM     15  C   UNL     1       7.070   4.235  12.201  0.00  0.00    +0.000 A 
ATOM     16  C   UNL     1       7.643   5.045  13.181  0.00  0.00    +0.000 A 
ATOM     17  C   UNL     1       7.042   5.157  14.439  0.00  0.00    +0.000 A 
ENDBRANCH   8  12
BRANCH   1  18
ATOM     18  O   UNL     1       2.105   8.884  18.782  0.00  0.00    +0.000 OA
BRANCH  18  20
ATOM     19  C   UNL     1       0.083  10.111  18.329  0.00  0.00    +0.000 C 
ATOM     20  C   UNL     1       1.210   9.290  17.745  0.00  0.00    +0.000 C 
ENDBRANCH  18  20
ENDBRANCH   1  18
BRANCH   3  21
ATOM     21  O   UNL     1       2.794   4.490  20.546  0.00  0.00    +0.000 OA
BRANCH  21  22
ATOM     22  C   UNL     1       1.432   4.111  20.790  0.00  0.00    +0.000 C 
ATOM     23  C   UNL     1       0.900   3.195  19.701  0.00  0.00    +0.000 C 
ENDBRANCH  21  22
ENDBRANCH   3  21
TORSDOF 5
ENDMDL
MODEL 3
REMARK VINA RESULT:      -7.3      3.958      6.804
REMARK  Name = 
REMARK  7 active torsions:
REMARK  status: ('A' for Active; 'I' for Inactive)
REMARK    1  A    between atoms: C_1  and  C_2
REMARK    2  A    between atoms: C_2  and  O_3
REMARK    3  A    between atoms: O_3  and  C_4
REMARK    4  A    between atoms: C_6  and  O_7
REMARK    5  A    between atoms: O_7  and  C_8
REMARK    6  A    between atoms: C_8  and  C_9
REMARK    7  A    between atoms: C_14  and  C_15
REMARK                            x       y       z     vdW  Elec       q    Type
REMARK                         _______ _______ _______ _____ _____    ______ ____
ROOT
ATOM      1  C   UNL     1       0.161  10.265  22.025  0.00  0.00    +0.000 A 
ATOM      2  C   UNL     1       0.346  11.106  20.930  0.00  0.00    +0.000 A 
ATOM      3  C   UNL     1       0.876  10.632  19.709  0.00  0.00    +0.000 A 
ATOM      4  C   UNL     1       1.306   9.291  19.634  0.00  0.00    +0.000 A 
ATOM      5  C   UNL     1       1.941   8.653  18.453  0.00  0.00    +0.000 A 
ATOM      6  O   UNL     1       2.108   9.218  17.384  0.00  0.00    +0.000 OA
ATOM      7  C   UNL     1       2.408   7.251  18.616  0.00  0.00    +0.000 A 
ATOM      8  C   UNL     1       2.178   6.606  19.763  0.00  0.00    +0.000 A 
ATOM      9  O   UNL     1       1.506   7.153  20.827  0.00  0.00    +0.000 OA
ATOM     10  C   UNL     1       1.137   8.475  20.749  0.00  0.00    +0.000 A 
ATOM     11  C   UNL     1       0.547   8.939  21.921  0.00  0.00    +0.000 A 
ENDROOT
BRANCH   8  12
ATOM     12  C   UNL     1       2.646   5.241  20.023  0.00  0.00    +0.000 A 
ATOM     13  C   UNL     1       1.993   4.449  20.979  0.00  0.00    +0.000 A 
ATOM     14  C   UNL     1       2.425   3.145  21.230  0.00  0.00    +0.000 A 
ATOM     15  C   UNL     1       3.502   2.617  20.519  0.00  0.00    +0.000 A 
ATOM     16  C   UNL     1       4.139   3.388  19.546  0.00  0.00    +0.000 A 
ATOM     17  C   UNL     1       3.709   4.695  19.294  0.00  0.00    +0.000 A 
ENDBRANCH   8  12
BRANCH   1  18
ATOM     18  O   UNL     1      -0.410  10.831  23.136  0.00  0.00    +0.000 OA
BRANCH  18  20
ATOM     19  C   UNL     1      -2.557  11.913  23.292  0.00  0.00    +0.000 C 
ATOM     20  C   UNL     1      -1.106  12.055  22.891  0.00  0.00    +0.000 C 
ENDBRANCH  18  20
ENDBRANCH   1  18
BRANCH   3  21
ATOM     21  O   UNL     1       0.975  11.446  18.598  0.00  0.00    +0.000 OA
BRANCH  21  22
ATOM     22  C   UNL     1       1.374  12.800  18.857  0.00  0.00    +0.000 C 
ATOM     23  C   UNL     1       2.729  13.112  18.245  0.00  0.00    +0.000 C 
ENDBRANCH  21  22
ENDBRANCH   3  21
TORSDOF 5
ENDMDL
MODEL 4
REMARK VINA RESULT:      -7.3      1.793      6.799
REMARK  Name = 
REMARK  7 active torsions:
REMARK  status: ('A' for Active; 'I' for Inactive)
REMARK    1  A    between atoms: C_1  and  C_2
REMARK    2  A    between atoms: C_2  and  O_3
REMARK    3  A    between atoms: O_3  and  C_4
REMARK    4  A    between atoms: C_6  and  O_7
REMARK    5  A    between atoms: O_7  and  C_8
REMARK    6  A    between atoms: C_8  and  C_9
REMARK    7  A    between atoms: C_14  and  C_15
REMARK                            x       y       z     vdW  Elec       q    Type
REMARK                         _______ _______ _______ _____ _____    ______ ____
ROOT
ATOM      1  C   UNL     1       4.947   5.553  16.962  0.00  0.00    +0.000 A 
ATOM      2  C   UNL     1       4.971   4.318  17.606  0.00  0.00    +0.000 A 
ATOM      3  C   UNL     1       4.131   4.036  18.707  0.00  0.00    +0.000 A 
ATOM      4  C   UNL     1       3.313   5.068  19.214  0.00  0.00    +0.000 A 
ATOM      5  C   UNL     1       2.424   4.961  20.397  0.00  0.00    +0.000 A 
ATOM      6  O   UNL     1       2.260   3.932  21.033  0.00  0.00    +0.000 OA
ATOM      7  C   UNL     1       1.717   6.198  20.822  0.00  0.00    +0.000 A 
ATOM      8  C   UNL     1       1.845   7.314  20.099  0.00  0.00    +0.000 A 
ATOM      9  O   UNL     1       2.586   7.399  18.948  0.00  0.00    +0.000 OA
ATOM     10  C   UNL     1       3.326   6.303  18.571  0.00  0.00    +0.000 A 
ATOM     11  C   UNL     1       4.105   6.541  17.443  0.00  0.00    +0.000 A 
ENDROOT
BRANCH   8  12
ATOM     12  C   UNL     1       1.221   8.588  20.473  0.00  0.00    +0.000 A 
ATOM     13  C   UNL     1       0.844   8.816  21.804  0.00  0.00    +0.000 A 
ATOM     14  C   UNL     1       0.255  10.027  22.174  0.00  0.00    +0.000 A 
ATOM     15  C   UNL     1       0.051  11.024  21.220  0.00  0.00    +0.000 A 
ATOM     16  C   UNL     1       0.449  10.816  19.900  0.00  0.00    +0.000 A 
ATOM     17  C   UNL     1       1.038   9.603  19.527  0.00  0.00    +0.000 A 
ENDBRANCH   8  12
BRANCH   1  18
ATOM     18  O   UNL     1       5.771   5.685  15.873  0.00  0.00    +0.000 OA
BRANCH  18  20
ATOM     19  C   UNL     1       6.126   4.094  14.099  0.00  0.00    +0.000 C 
ATOM     20  C   UNL     1       6.480   4.497  15.512  0.00  0.00    +0.000 C 
ENDBRANCH  18  20
ENDBRANCH   1  18
BRANCH   3  21
ATOM     21  O   UNL     1       4.092   2.784  19.287  0.00  0.00    +0.000 OA
BRANCH  21  22
ATOM     22  C   UNL     1       3.558   1.737  18.463  0.00  0.00    +0.000 C 
ATOM     23  C   UNL     1       2.086   1.955  18.162  0.00  0.00    +0.000 C 
ENDBRANCH  21  22
ENDBRANCH   3  21
TORSDOF 5
ENDMDL
MODEL 5
REMARK VINA RESULT:      -7.3      1.801      6.827
REMARK  Name = 
REMARK  7 active torsions:
REMARK  status: ('A' for Active; 'I' for Inactive)
REMARK    1  A    between atoms: C_1  and  C_2
REMARK    2  A    between atoms: C_2  and  O_3
REMARK    3  A    between atoms: O_3  and  C_4
REMARK    4  A    between atoms: C_6  and  O_7
REMARK    5  A    between atoms: O_7  and  C_8
REMARK    6  A    between atoms: C_8  and  C_9
REMARK    7  A    between atoms: C_14  and  C_15
REMARK                            x       y       z     vdW  Elec       q    Type
REMARK                         _______ _______ _______ _____ _____    ______ ____
ROOT
ATOM      1  C   UNL     1       5.040   5.898  16.831  0.00  0.00    +0.000 A 
ATOM      2  C   UNL     1       5.114   4.638  17.422  0.00  0.00    +0.000 A 
ATOM      3  C   UNL     1       4.292   4.279  18.514  0.00  0.00    +0.000 A 
ATOM      4  C   UNL     1       3.440   5.256  19.069  0.00  0.00    +0.000 A 
ATOM      5  C   UNL     1       2.562   5.066  20.250  0.00  0.00    +0.000 A 
ATOM      6  O   UNL     1       2.441   4.005  20.842  0.00  0.00    +0.000 OA
ATOM      7  C   UNL     1       1.813   6.257  20.731  0.00  0.00    +0.000 A 
ATOM      8  C   UNL     1       1.895   7.407  20.056  0.00  0.00    +0.000 A 
ATOM      9  O   UNL     1       2.625   7.569  18.906  0.00  0.00    +0.000 OA
ATOM     10  C   UNL     1       3.402   6.518  18.479  0.00  0.00    +0.000 A 
ATOM     11  C   UNL     1       4.165   6.833  17.359  0.00  0.00    +0.000 A 
ENDROOT
BRANCH   8  12
ATOM     12  C   UNL     1       1.226   8.639  20.487  0.00  0.00    +0.000 A 
ATOM     13  C   UNL     1       0.925   9.635  19.548  0.00  0.00    +0.000 A 
ATOM     14  C   UNL     1       0.283  10.810  19.945  0.00  0.00    +0.000 A 
ATOM     15  C   UNL     1      -0.074  10.993  21.281  0.00  0.00    +0.000 A 
ATOM     16  C   UNL     1       0.196   9.994  22.216  0.00  0.00    +0.000 A 
ATOM     17  C   UNL     1       0.840   8.817  21.821  0.00  0.00    +0.000 A 
ENDBRANCH   8  12
BRANCH   1  18
ATOM     18  O   UNL     1       5.852   6.107  15.745  0.00  0.00    +0.000 OA
BRANCH  18  20
ATOM     19  C   UNL     1       6.415   4.458  14.082  0.00  0.00    +0.000 C 
ATOM     20  C   UNL     1       6.738   5.027  15.445  0.00  0.00    +0.000 C 
ENDBRANCH  18  20
ENDBRANCH   1  18
BRANCH   3  21
ATOM     21  O   UNL     1       4.303   3.002  19.039  0.00  0.00    +0.000 OA
BRANCH  21  22
ATOM     22  C   UNL     1       3.789   1.975  18.180  0.00  0.00    +0.000 C 
ATOM     23  C   UNL     1       2.277   2.046  18.061  0.00  0.00    +0.000 C 
ENDBRANCH  21  22
ENDBRANCH   3  21
TORSDOF 5
ENDMDL
MODEL 6
REMARK VINA RESULT:      -7.2      3.975      6.798
REMARK  Name = 
REMARK  7 active torsions:
REMARK  status: ('A' for Active; 'I' for Inactive)
REMARK    1  A    between atoms: C_1  and  C_2
REMARK    2  A    between atoms: C_2  and  O_3
REMARK    3  A    between atoms: O_3  and  C_4
REMARK    4  A    between atoms: C_6  and  O_7
REMARK    5  A    between atoms: O_7  and  C_8
REMARK    6  A    between atoms: C_8  and  C_9
REMARK    7  A    between atoms: C_14  and  C_15
REMARK                            x       y       z     vdW  Elec       q    Type
REMARK                         _______ _______ _______ _____ _____    ______ ____
ROOT
ATOM      1  C   UNL     1       0.191  10.279  22.023  0.00  0.00    +0.000 A 
ATOM      2  C   UNL     1       0.391  11.119  20.930  0.00  0.00    +0.000 A 
ATOM      3  C   UNL     1       0.917  10.640  19.709  0.00  0.00    +0.000 A 
ATOM      4  C   UNL     1       1.330   9.293  19.634  0.00  0.00    +0.000 A 
ATOM      5  C   UNL     1       1.959   8.648  18.455  0.00  0.00    +0.000 A 
ATOM      6  O   UNL     1       2.137   9.212  17.386  0.00  0.00    +0.000 OA
ATOM      7  C   UNL     1       2.407   7.239  18.616  0.00  0.00    +0.000 A 
ATOM      8  C   UNL     1       2.165   6.596  19.763  0.00  0.00    +0.000 A 
ATOM      9  O   UNL     1       1.496   7.150  20.825  0.00  0.00    +0.000 OA
ATOM     10  C   UNL     1       1.146   8.478  20.748  0.00  0.00    +0.000 A 
ATOM     11  C   UNL     1       0.559   8.948  21.918  0.00  0.00    +0.000 A 
ENDROOT
BRANCH   8  12
ATOM     12  C   UNL     1       2.613   5.224  20.022  0.00  0.00    +0.000 A 
ATOM     13  C   UNL     1       3.727   4.713  19.341  0.00  0.00    +0.000 A 
ATOM     14  C   UNL     1       4.168   3.410  19.584  0.00  0.00    +0.000 A 
ATOM     15  C   UNL     1       3.506   2.613  20.517  0.00  0.00    +0.000 A 
ATOM     16  C   UNL     1       2.414   3.123  21.219  0.00  0.00    +0.000 A 
ATOM     17  C   UNL     1       1.971   4.427  20.976  0.00  0.00    +0.000 A 
ENDBRANCH   8  12
BRANCH   1  18
ATOM     18  O   UNL     1      -0.376  10.852  23.133  0.00  0.00    +0.000 OA
BRANCH  18  20
ATOM     19  C   UNL     1      -2.524  11.937  23.228  0.00  0.00    +0.000 C 
ATOM     20  C   UNL     1      -1.059  12.083  22.886  0.00  0.00    +0.000 C 
ENDBRANCH  18  20
ENDBRANCH   1  18
BRANCH   3  21
ATOM     21  O   UNL     1       1.031  11.454  18.600  0.00  0.00    +0.000 OA
BRANCH  21  22
ATOM     22  C   UNL     1       2.032  12.478  18.684  0.00  0.00    +0.000 C 
ATOM     23  C   UNL     1       1.425  13.867  18.586  0.00  0.00    +0.000 C 
ENDBRANCH  21  22
ENDBRANCH   3  21
TORSDOF 5
ENDMDL
MODEL 7
REMARK VINA RESULT:      -7.2      3.965      6.784
REMARK  Name = 
REMARK  7 active torsions:
REMARK  status: ('A' for Active; 'I' for Inactive)
REMARK    1  A    between atoms: C_1  and  C_2
REMARK    2  A    between atoms: C_2  and  O_3
REMARK    3  A    between atoms: O_3  and  C_4
REMARK    4  A    between atoms: C_6  and  O_7
REMARK    5  A    between atoms: O_7  and  C_8
REMARK    6  A    between atoms: C_8  and  C_9
REMARK    7  A    between atoms: C_14  and  C_15
REMARK                            x       y       z     vdW  Elec       q    Type
REMARK                         _______ _______ _______ _____ _____    ______ ____
ROOT
ATOM      1  C   UNL     1       0.051  10.382  22.123  0.00  0.00    +0.000 A 
ATOM      2  C   UNL     1       0.205  11.258  21.051  0.00  0.00    +0.000 A 
ATOM      3  C   UNL     1       0.733  10.832  19.811  0.00  0.00    +0.000 A 
ATOM      4  C   UNL     1       1.194   9.504  19.694  0.00  0.00    +0.000 A 
ATOM      5  C   UNL     1       1.832   8.914  18.490  0.00  0.00    +0.000 A 
ATOM      6  O   UNL     1       1.974   9.513  17.435  0.00  0.00    +0.000 OA
ATOM      7  C   UNL     1       2.333   7.520  18.608  0.00  0.00    +0.000 A 
ATOM      8  C   UNL     1       2.131   6.838  19.739  0.00  0.00    +0.000 A 
ATOM      9  O   UNL     1       1.456   7.338  20.824  0.00  0.00    +0.000 OA
ATOM     10  C   UNL     1       1.056   8.653  20.788  0.00  0.00    +0.000 A 
ATOM     11  C   UNL     1       0.467   9.069  21.977  0.00  0.00    +0.000 A 
ENDROOT
BRANCH   8  12
ATOM     12  C   UNL     1       2.633   5.477  19.955  0.00  0.00    +0.000 A 
ATOM     13  C   UNL     1       1.974   4.624  20.851  0.00  0.00    +0.000 A 
ATOM     14  C   UNL     1       2.438   3.323  21.060  0.00  0.00    +0.000 A 
ATOM     15  C   UNL     1       3.557   2.862  20.367  0.00  0.00    +0.000 A 
ATOM     16  C   UNL     1       4.201   3.695  19.453  0.00  0.00    +0.000 A 
ATOM     17  C   UNL     1       3.738   4.998  19.243  0.00  0.00    +0.000 A 
ENDBRANCH   8  12
BRANCH   1  18
ATOM     18  O   UNL     1      -0.522  10.904  23.255  0.00  0.00    +0.000 OA
BRANCH  18  20
ATOM     19  C   UNL     1      -2.666  11.998  23.348  0.00  0.00    +0.000 C 
ATOM     20  C   UNL     1      -1.189  12.153  23.065  0.00  0.00    +0.000 C 
ENDBRANCH  18  20
ENDBRANCH   1  18
BRANCH   3  21
ATOM     21  O   UNL     1       0.801  11.679  18.723  0.00  0.00    +0.000 OA
BRANCH  21  22
ATOM     22  C   UNL     1      -0.407  12.388  18.414  0.00  0.00    +0.000 C 
ATOM     23  C   UNL     1      -1.508  11.449  17.954  0.00  0.00    +0.000 C 
ENDBRANCH  21  22
ENDBRANCH   3  21
TORSDOF 5
ENDMDL
MODEL 8
REMARK VINA RESULT:      -7.1      2.159      6.858
REMARK  Name = 
REMARK  7 active torsions:
REMARK  status: ('A' for Active; 'I' for Inactive)
REMARK    1  A    between atoms: C_1  and  C_2
REMARK    2  A    between atoms: C_2  and  O_3
REMARK    3  A    between atoms: O_3  and  C_4
REMARK    4  A    between atoms: C_6  and  O_7
REMARK    5  A    between atoms: O_7  and  C_8
REMARK    6  A    between atoms: C_8  and  C_9
REMARK    7  A    between atoms: C_14  and  C_15
REMARK                            x       y       z     vdW  Elec       q    Type
REMARK                         _______ _______ _______ _____ _____    ______ ____
ROOT
ATOM      1  C   UNL     1       4.757   5.716  17.252  0.00  0.00    +0.000 A 
ATOM      2  C   UNL     1       4.751   4.476  17.886  0.00  0.00    +0.000 A 
ATOM      3  C   UNL     1       3.886   4.196  18.967  0.00  0.00    +0.000 A 
ATOM      4  C   UNL     1       3.072   5.234  19.467  0.00  0.00    +0.000 A 
ATOM      5  C   UNL     1       2.157   5.130  20.631  0.00  0.00    +0.000 A 
ATOM      6  O   UNL     1       1.967   4.097  21.255  0.00  0.00    +0.000 OA
ATOM      7  C   UNL     1       1.459   6.372  21.052  0.00  0.00    +0.000 A 
ATOM      8  C   UNL     1       1.616   7.493  20.341  0.00  0.00    +0.000 A 
ATOM      9  O   UNL     1       2.381   7.578  19.206  0.00  0.00    +0.000 OA
ATOM     10  C   UNL     1       3.113   6.475  18.835  0.00  0.00    +0.000 A 
ATOM     11  C   UNL     1       3.918   6.712  17.725  0.00  0.00    +0.000 A 
ENDROOT
BRANCH   8  12
ATOM     12  C   UNL     1       1.001   8.771  20.714  0.00  0.00    +0.000 A 
ATOM     13  C   UNL     1       0.830   9.772  19.747  0.00  0.00    +0.000 A 
ATOM     14  C   UNL     1       0.241  10.991  20.088  0.00  0.00    +0.000 A 
ATOM     15  C   UNL     1      -0.194  11.215  21.393  0.00  0.00    +0.000 A 
ATOM     16  C   UNL     1      -0.054  10.214  22.354  0.00  0.00    +0.000 A 
ATOM     17  C   UNL     1       0.537   8.993  22.016  0.00  0.00    +0.000 A 
ENDBRANCH   8  12
BRANCH   1  18
ATOM     18  O   UNL     1       5.604   5.846  16.181  0.00  0.00    +0.000 OA
BRANCH  18  20
ATOM     19  C   UNL     1       7.369   6.983  17.361  0.00  0.00    +0.000 C 
ATOM     20  C   UNL     1       6.994   5.793  16.508  0.00  0.00    +0.000 C 
ENDBRANCH  18  20
ENDBRANCH   1  18
BRANCH   3  21
ATOM     21  O   UNL     1       3.818   2.940  19.535  0.00  0.00    +0.000 OA
BRANCH  21  22
ATOM     22  C   UNL     1       3.408   1.884  18.655  0.00  0.00    +0.000 C 
ATOM     23  C   UNL     1       1.995   2.099  18.140  0.00  0.00    +0.000 C 
ENDBRANCH  21  22
ENDBRANCH   3  21
TORSDOF 5
ENDMDL
MODEL 9
REMARK VINA RESULT:      -7.1      2.342      6.996
REMARK  Name = 
REMARK  7 active torsions:
REMARK  status: ('A' for Active; 'I' for Inactive)
REMARK    1  A    between atoms: C_1  and  C_2
REMARK    2  A    between atoms: C_2  and  O_3
REMARK    3  A    between atoms: O_3  and  C_4
REMARK    4  A    between atoms: C_6  and  O_7
REMARK    5  A    between atoms: O_7  and  C_8
REMARK    6  A    between atoms: C_8  and  C_9
REMARK    7  A    between atoms: C_14  and  C_15
REMARK                            x       y       z     vdW  Elec       q    Type
REMARK                         _______ _______ _______ _____ _____    ______ ____
ROOT
ATOM      1  C   UNL     1       4.795   6.267  17.310  0.00  0.00    +0.000 A 
ATOM      2  C   UNL     1       4.833   4.973  17.823  0.00  0.00    +0.000 A 
ATOM      3  C   UNL     1       3.950   4.549  18.841  0.00  0.00    +0.000 A 
ATOM      4  C   UNL     1       3.068   5.493  19.407  0.00  0.00    +0.000 A 
ATOM      5  C   UNL     1       2.124   5.233  20.522  0.00  0.00    +0.000 A 
ATOM      6  O   UNL     1       1.968   4.137  21.038  0.00  0.00    +0.000 OA
ATOM      7  C   UNL     1       1.349   6.394  21.034  0.00  0.00    +0.000 A 
ATOM      8  C   UNL     1       1.471   7.584  20.438  0.00  0.00    +0.000 A 
ATOM      9  O   UNL     1       2.266   7.815  19.344  0.00  0.00    +0.000 OA
ATOM     10  C   UNL     1       3.065   6.790  18.898  0.00  0.00    +0.000 A 
ATOM     11  C   UNL     1       3.892   7.171  17.845  0.00  0.00    +0.000 A 
ENDROOT
BRANCH   8  12
ATOM     12  C   UNL     1       0.780   8.790  20.907  0.00  0.00    +0.000 A 
ATOM     13  C   UNL     1       0.432   8.913  22.260  0.00  0.00    +0.000 A 
ATOM     14  C   UNL     1      -0.220  10.059  22.720  0.00  0.00    +0.000 A 
ATOM     15  C   UNL     1      -0.518  11.095  21.836  0.00  0.00    +0.000 A 
ATOM     16  C   UNL     1      -0.150  10.993  20.494  0.00  0.00    +0.000 A 
ATOM     17  C   UNL     1       0.502   9.846  20.031  0.00  0.00    +0.000 A 
ENDBRANCH   8  12
BRANCH   1  18
ATOM     18  O   UNL     1       5.668   6.540  16.288  0.00  0.00    +0.000 OA
BRANCH  18  20
ATOM     19  C   UNL     1       7.565   7.430  17.475  0.00  0.00    +0.000 C 
ATOM     20  C   UNL     1       7.043   6.313  16.600  0.00  0.00    +0.000 C 
ENDBRANCH  18  20
ENDBRANCH   1  18
BRANCH   3  21
ATOM     21  O   UNL     1       3.929   3.242  19.285  0.00  0.00    +0.000 OA
BRANCH  21  22
ATOM     22  C   UNL     1       3.605   2.256  18.294  0.00  0.00    +0.000 C 
ATOM     23  C   UNL     1       2.116   2.222  18.003  0.00  0.00    +0.000 C 
ENDBRANCH  21  22
ENDBRANCH   3  21
TORSDOF 5
ENDMDL
