MODEL 1
REMARK VINA RESULT:      -7.6      0.000      0.000
REMARK  Name = 
REMARK  11 active torsions:
REMARK  status: ('A' for Active; 'I' for Inactive)
REMARK    1  A    between atoms: C_1  and  C_2
REMARK    2  A    between atoms: C_2  and  O_3
REMARK    3  A    between atoms: O_3  and  C_4
REMARK    4  A    between atoms: C_4  and  C_6
REMARK    5  A    between atoms: C_6  and  C_7
REMARK    6  A    between atoms: C_7  and  C_8
REMARK    7  A    between atoms: C_8  and  C_9
REMARK    8  A    between atoms: C_9  and  C_10
REMARK    9  A    between atoms: C_19  and  C_21
REMARK   10  A    between atoms: C_21  and  C_22
REMARK   11  A    between atoms: C_22  and  N_23
REMARK                            x       y       z     vdW  Elec       q    Type
REMARK                         _______ _______ _______ _____ _____    ______ ____
ROOT
ATOM      1  C   UNL     1       4.905   6.146  17.243  0.00  0.00    +0.000 C 
ATOM      2  C   UNL     1       5.237   5.822  18.724  0.00  0.00    +0.000 C 
ATOM      3  C   UNL     1       5.975   4.488  18.858  0.00  0.00    +0.000 C 
ATOM      4  N   UNL     1       5.176   3.425  18.263  0.00  0.00    +0.000 N 
ATOM      5  C   UNL     1       4.516   2.535  19.102  0.00  0.00    +0.000 C 
ATOM      6  O   UNL     1       4.633   2.575  20.326  0.00  0.00    +0.000 OA
ATOM      7  C   UNL     1       4.954   3.581  16.829  0.00  0.00    +0.000 C 
ATOM      8  C   UNL     1       4.249   4.908  16.557  0.00  0.00    +0.000 C 
ENDROOT
BRANCH   1   9
ATOM      9  C   UNL     1       6.214   6.611  16.587  0.00  0.00    +0.000 C 
ATOM     10  O   UNL     1       6.855   5.924  15.798  0.00  0.00    +0.000 OA
BRANCH   9  11
ATOM     11  O   UNL     1       6.627   7.816  17.058  0.00  0.00    +0.000 OA
BRANCH  11  13
ATOM     12  C   UNL     1       8.263   9.250  18.014  0.00  0.00    +0.000 C 
ATOM     13  C   UNL     1       7.905   7.807  17.711  0.00  0.00    +0.000 C 
ENDBRANCH  11  13
ENDBRANCH   9  11
ENDBRANCH   1   9
BRANCH   1  14
ATOM     14  C   UNL     1       3.960   7.391  17.109  0.00  0.00    +0.000 C 
BRANCH  14  15
ATOM     15  C   UNL     1       2.927   7.546  18.225  0.00  0.00    +0.000 C 
BRANCH  15  16
ATOM     16  C   UNL     1       1.897   8.651  17.973  0.00  0.00    +0.000 C 
BRANCH  16  17
ATOM     17  C   UNL     1       1.272   9.020  19.299  0.00  0.00    +0.000 A 
ATOM     18  C   UNL     1       1.553   8.261  20.442  0.00  0.00    +0.000 A 
ATOM     19  C   UNL     1       0.871   8.502  21.635  0.00  0.00    +0.000 A 
ATOM     20  C   UNL     1      -0.097   9.503  21.697  0.00  0.00    +0.000 A 
ATOM     21  C   UNL     1      -0.377  10.271  20.569  0.00  0.00    +0.000 A 
ATOM     22  C   UNL     1       0.305  10.033  19.374  0.00  0.00    +0.000 A 
ENDBRANCH  16  17
ENDBRANCH  15  16
ENDBRANCH  14  15
ENDBRANCH   1  14
BRANCH   5  23
ATOM     23  C   UNL     1       3.620   1.493  18.452  0.00  0.00    +0.000 C 
BRANCH  23  24
ATOM     24  C   UNL     1       2.238   2.083  18.166  0.00  0.00    +0.000 C 
BRANCH  24  25
ATOM     25  N   UNL     1       1.739   2.902  19.244  0.00  0.00    +0.000 N 
ATOM     26  C   UNL     1       1.570   4.249  19.283  0.00  0.00    +0.000 A 
ATOM     27  N   UNL     1       1.114   4.573  20.471  0.00  0.00    +0.000 NA
ATOM     28  N   UNL     1       1.017   3.395  21.172  0.00  0.00    +0.000 NA
ATOM     29  N   UNL     1       1.402   2.367  20.428  0.00  0.00    +0.000 NA
ENDBRANCH  24  25
ENDBRANCH  23  24
ENDBRANCH   5  23
TORSDOF 10
ENDMDL
MODEL 2
REMARK VINA RESULT:      -7.6      2.865      5.843
REMARK  Name = 
REMARK  11 active torsions:
REMARK  status: ('A' for Active; 'I' for Inactive)
REMARK    1  A    between atoms: C_1  and  C_2
REMARK    2  A    between atoms: C_2  and  O_3
REMARK    3  A    between atoms: O_3  and  C_4
REMARK    4  A    between atoms: C_4  and  C_6
REMARK    5  A    between atoms: C_6  and  C_7
REMARK    6  A    between atoms: C_7  and  C_8
REMARK    7  A    between atoms: C_8  and  C_9
REMARK    8  A    between atoms: C_9  and  C_10
REMARK    9  A    between atoms: C_19  and  C_21
REMARK   10  A    between atoms: C_21  and  C_22
REMARK   11  A    between atoms: C_22  and  N_23
REMARK                            x       y       z     vdW  Elec       q    Type
REMARK                         _______ _______ _______ _____ _____    ______ ____
ROOT
ATOM      1  C   UNL     1       6.794   6.187  17.822  0.00  0.00    +0.000 C 
ATOM      2  C   UNL     1       6.394   5.312  19.040  0.00  0.00    +0.000 C 
ATOM      3  C   UNL     1       5.123   4.507  18.763  0.00  0.00    +0.000 C 
ATOM      4  N   UNL     1       4.040   5.412  18.400  0.00  0.00    +0.000 N 
ATOM      5  C   UNL     1       3.039   5.664  19.330  0.00  0.00    +0.000 C 
ATOM      6  O   UNL     1       3.000   5.103  20.424  0.00  0.00    +0.000 OA
ATOM      7  C   UNL     1       4.279   6.159  17.169  0.00  0.00    +0.000 C 
ATOM      8  C   UNL     1       5.556   6.984  17.305  0.00  0.00    +0.000 C 
ENDROOT
BRANCH   1   9
ATOM      9  C   UNL     1       7.416   5.243  16.783  0.00  0.00    +0.000 C 
ATOM     10  O   UNL     1       8.037   4.227  17.080  0.00  0.00    +0.000 OA
BRANCH   9  11
ATOM     11  O   UNL     1       7.287   5.713  15.516  0.00  0.00    +0.000 OA
BRANCH  11  13
ATOM     12  C   UNL     1       5.660   4.323  14.481  0.00  0.00    +0.000 C 
ATOM     13  C   UNL     1       7.128   4.704  14.507  0.00  0.00    +0.000 C 
ENDBRANCH  11  13
ENDBRANCH   9  11
ENDBRANCH   1   9
BRANCH   1  14
ATOM     14  C   UNL     1       7.960   7.180  18.166  0.00  0.00    +0.000 C 
BRANCH  14  15
ATOM     15  C   UNL     1       7.631   8.660  17.972  0.00  0.00    +0.000 C 
BRANCH  15  16
ATOM     16  C   UNL     1       8.789   9.487  17.405  0.00  0.00    +0.000 C 
BRANCH  16  17
ATOM     17  C   UNL     1       9.092  10.600  18.382  0.00  0.00    +0.000 A 
ATOM     18  C   UNL     1       9.389  10.300  19.718  0.00  0.00    +0.000 A 
ATOM     19  C   UNL     1       9.526  11.322  20.657  0.00  0.00    +0.000 A 
ATOM     20  C   UNL     1       9.367  12.652  20.272  0.00  0.00    +0.000 A 
ATOM     21  C   UNL     1       9.082  12.962  18.944  0.00  0.00    +0.000 A 
ATOM     22  C   UNL     1       8.946  11.942  18.001  0.00  0.00    +0.000 A 
ENDBRANCH  16  17
ENDBRANCH  15  16
ENDBRANCH  14  15
ENDBRANCH   1  14
BRANCH   5  23
ATOM     23  C   UNL     1       1.972   6.680  18.953  0.00  0.00    +0.000 C 
BRANCH  23  24
ATOM     24  C   UNL     1       2.113   7.940  19.809  0.00  0.00    +0.000 C 
BRANCH  24  25
ATOM     25  N   UNL     1       1.159   8.966  19.465  0.00  0.00    +0.000 N 
ATOM     26  C   UNL     1       1.030   9.655  18.302  0.00  0.00    +0.000 A 
ATOM     27  N   UNL     1       0.043  10.511  18.437  0.00  0.00    +0.000 NA
ATOM     28  N   UNL     1      -0.429  10.344  19.717  0.00  0.00    +0.000 NA
ATOM     29  N   UNL     1       0.253   9.402  20.355  0.00  0.00    +0.000 NA
ENDBRANCH  24  25
ENDBRANCH  23  24
ENDBRANCH   5  23
TORSDOF 10
ENDMDL
MODEL 3
REMARK VINA RESULT:      -7.6      0.549      1.160
REMARK  Name = 
REMARK  11 active torsions:
REMARK  status: ('A' for Active; 'I' for Inactive)
REMARK    1  A    between atoms: C_1  and  C_2
REMARK    2  A    between atoms: C_2  and  O_3
REMARK    3  A    between atoms: O_3  and  C_4
REMARK    4  A    between atoms: C_4  and  C_6
REMARK    5  A    between atoms: C_6  and  C_7
REMARK    6  A    between atoms: C_7  and  C_8
REMARK    7  A    between atoms: C_8  and  C_9
REMARK    8  A    between atoms: C_9  and  C_10
REMARK    9  A    between atoms: C_19  and  C_21
REMARK   10  A    between atoms: C_21  and  C_22
REMARK   11  A    between atoms: C_22  and  N_23
REMARK                            x       y       z     vdW  Elec       q    Type
REMARK                         _______ _______ _______ _____ _____    ______ ____
ROOT
ATOM      1  C   UNL     1       5.159   6.272  17.416  0.00  0.00    +0.000 C 
ATOM      2  C   UNL     1       5.475   5.794  18.858  0.00  0.00    +0.000 C 
ATOM      3  C   UNL     1       6.125   4.409  18.864  0.00  0.00    +0.000 C 
ATOM      4  N   UNL     1       5.256   3.458  18.184  0.00  0.00    +0.000 N 
ATOM      5  C   UNL     1       4.543   2.540  18.946  0.00  0.00    +0.000 C 
ATOM      6  O   UNL     1       4.667   2.461  20.167  0.00  0.00    +0.000 OA
ATOM      7  C   UNL     1       5.039   3.757  16.773  0.00  0.00    +0.000 C 
ATOM      8  C   UNL     1       4.421   5.146  16.627  0.00  0.00    +0.000 C 
ENDROOT
BRANCH   1   9
ATOM      9  C   UNL     1       6.493   6.709  16.792  0.00  0.00    +0.000 C 
ATOM     10  O   UNL     1       7.179   5.978  16.085  0.00  0.00    +0.000 OA
BRANCH   9  11
ATOM     11  O   UNL     1       6.869   7.950  17.195  0.00  0.00    +0.000 OA
BRANCH  11  13
ATOM     12  C   UNL     1       8.429   9.466  18.152  0.00  0.00    +0.000 C 
ATOM     13  C   UNL     1       8.096   8.001  17.939  0.00  0.00    +0.000 C 
ENDBRANCH  11  13
ENDBRANCH   9  11
ENDBRANCH   1   9
BRANCH   1  14
ATOM     14  C   UNL     1       4.296   7.583  17.404  0.00  0.00    +0.000 C 
BRANCH  14  15
ATOM     15  C   UNL     1       2.868   7.425  17.924  0.00  0.00    +0.000 C 
BRANCH  15  16
ATOM     16  C   UNL     1       2.020   8.696  17.815  0.00  0.00    +0.000 C 
BRANCH  16  17
ATOM     17  C   UNL     1       1.356   8.933  19.152  0.00  0.00    +0.000 A 
ATOM     18  C   UNL     1       0.505  10.032  19.327  0.00  0.00    +0.000 A 
ATOM     19  C   UNL     1       0.004  10.342  20.592  0.00  0.00    +0.000 A 
ATOM     20  C   UNL     1       0.349   9.559  21.692  0.00  0.00    +0.000 A 
ATOM     21  C   UNL     1       1.187   8.458  21.527  0.00  0.00    +0.000 A 
ATOM     22  C   UNL     1       1.688   8.144  20.263  0.00  0.00    +0.000 A 
ENDBRANCH  16  17
ENDBRANCH  15  16
ENDBRANCH  14  15
ENDBRANCH   1  14
BRANCH   5  23
ATOM     23  C   UNL     1       3.579   1.621  18.214  0.00  0.00    +0.000 C 
BRANCH  23  24
ATOM     24  C   UNL     1       2.217   2.300  18.050  0.00  0.00    +0.000 C 
BRANCH  24  25
ATOM     25  N   UNL     1       1.773   2.971  19.247  0.00  0.00    +0.000 N 
ATOM     26  C   UNL     1       1.388   2.433  20.433  0.00  0.00    +0.000 A 
ATOM     27  N   UNL     1       1.038   3.412  21.236  0.00  0.00    +0.000 NA
ATOM     28  N   UNL     1       1.205   4.569  20.513  0.00  0.00    +0.000 NA
ATOM     29  N   UNL     1       1.650   4.307  19.292  0.00  0.00    +0.000 NA
ENDBRANCH  24  25
ENDBRANCH  23  24
ENDBRANCH   5  23
TORSDOF 10
ENDMDL
MODEL 4
REMARK VINA RESULT:      -7.5      3.426      6.119
REMARK  Name = 
REMARK  11 active torsions:
REMARK  status: ('A' for Active; 'I' for Inactive)
REMARK    1  A    between atoms: C_1  and  C_2
REMARK    2  A    between atoms: C_2  and  O_3
REMARK    3  A    between atoms: O_3  and  C_4
REMARK    4  A    between atoms: C_4  and  C_6
REMARK    5  A    between atoms: C_6  and  C_7
REMARK    6  A    between atoms: C_7  and  C_8
REMARK    7  A    between atoms: C_8  and  C_9
REMARK    8  A    between atoms: C_9  and  C_10
REMARK    9  A    between atoms: C_19  and  C_21
REMARK   10  A    between atoms: C_21  and  C_22
REMARK   11  A    between atoms: C_22  and  N_23
REMARK                            x       y       z     vdW  Elec       q    Type
REMARK                         _______ _______ _______ _____ _____    ______ ____
ROOT
ATOM      1  C   UNL     1       3.732   4.888  18.247  0.00  0.00    +0.000 C 
ATOM      2  C   UNL     1       4.406   4.836  16.850  0.00  0.00    +0.000 C 
ATOM      3  C   UNL     1       5.884   4.450  16.950  0.00  0.00    +0.000 C 
ATOM      4  N   UNL     1       6.576   5.389  17.823  0.00  0.00    +0.000 N 
ATOM      5  C   UNL     1       7.414   6.340  17.252  0.00  0.00    +0.000 C 
ATOM      6  O   UNL     1       7.639   6.377  16.043  0.00  0.00    +0.000 OA
ATOM      7  C   UNL     1       6.099   5.380  19.202  0.00  0.00    +0.000 C 
ATOM      8  C   UNL     1       4.610   5.718  19.235  0.00  0.00    +0.000 C 
ENDROOT
BRANCH   1   9
ATOM      9  C   UNL     1       3.497   3.434  18.680  0.00  0.00    +0.000 C 
ATOM     10  O   UNL     1       4.360   2.564  18.620  0.00  0.00    +0.000 OA
BRANCH   9  11
ATOM     11  O   UNL     1       2.208   3.204  19.036  0.00  0.00    +0.000 OA
BRANCH  11  13
ATOM     12  C   UNL     1       1.792   3.533  21.353  0.00  0.00    +0.000 C 
ATOM     13  C   UNL     1       2.036   2.496  20.273  0.00  0.00    +0.000 C 
ENDBRANCH  11  13
ENDBRANCH   9  11
ENDBRANCH   1   9
BRANCH   1  14
ATOM     14  C   UNL     1       2.287   5.495  18.182  0.00  0.00    +0.000 C 
BRANCH  14  15
ATOM     15  C   UNL     1       2.075   6.761  19.011  0.00  0.00    +0.000 C 
BRANCH  15  16
ATOM     16  C   UNL     1       2.092   8.054  18.191  0.00  0.00    +0.000 C 
BRANCH  16  17
ATOM     17  C   UNL     1       1.239   9.076  18.909  0.00  0.00    +0.000 A 
ATOM     18  C   UNL     1       1.084   9.007  20.299  0.00  0.00    +0.000 A 
ATOM     19  C   UNL     1       0.187   9.853  20.952  0.00  0.00    +0.000 A 
ATOM     20  C   UNL     1      -0.562  10.774  20.223  0.00  0.00    +0.000 A 
ATOM     21  C   UNL     1      -0.408  10.858  18.841  0.00  0.00    +0.000 A 
ATOM     22  C   UNL     1       0.490  10.014  18.185  0.00  0.00    +0.000 A 
ENDBRANCH  16  17
ENDBRANCH  15  16
ENDBRANCH  14  15
ENDBRANCH   1  14
BRANCH   5  23
ATOM     23  C   UNL     1       8.052   7.360  18.181  0.00  0.00    +0.000 C 
BRANCH  23  24
ATOM     24  C   UNL     1       7.742   8.780  17.704  0.00  0.00    +0.000 C 
BRANCH  24  25
ATOM     25  N   UNL     1       8.567   9.781  18.337  0.00  0.00    +0.000 N 
ATOM     26  C   UNL     1       9.181   9.738  19.547  0.00  0.00    +0.000 A 
ATOM     27  N   UNL     1       9.807  10.878  19.732  0.00  0.00    +0.000 NA
ATOM     28  N   UNL     1       9.555  11.632  18.612  0.00  0.00    +0.000 NA
ATOM     29  N   UNL     1       8.792  10.969  17.754  0.00  0.00    +0.000 NA
ENDBRANCH  24  25
ENDBRANCH  23  24
ENDBRANCH   5  23
TORSDOF 10
ENDMDL
MODEL 5
REMARK VINA RESULT:      -7.4      2.913      5.869
REMARK  Name = 
REMARK  11 active torsions:
REMARK  status: ('A' for Active; 'I' for Inactive)
REMARK    1  A    between atoms: C_1  and  C_2
REMARK    2  A    between atoms: C_2  and  O_3
REMARK    3  A    between atoms: O_3  and  C_4
REMARK    4  A    between atoms: C_4  and  C_6
REMARK    5  A    between atoms: C_6  and  C_7
REMARK    6  A    between atoms: C_7  and  C_8
REMARK    7  A    between atoms: C_8  and  C_9
REMARK    8  A    between atoms: C_9  and  C_10
REMARK    9  A    between atoms: C_19  and  C_21
REMARK   10  A    between atoms: C_21  and  C_22
REMARK   11  A    between atoms: C_22  and  N_23
REMARK                            x       y       z     vdW  Elec       q    Type
REMARK                         _______ _______ _______ _____ _____    ______ ____
ROOT
ATOM      1  C   UNL     1       3.922   5.535  17.673  0.00  0.00    +0.000 C 
ATOM      2  C   UNL     1       4.115   6.839  16.853  0.00  0.00    +0.000 C 
ATOM      3  C   UNL     1       4.082   8.078  17.749  0.00  0.00    +0.000 C 
ATOM      4  N   UNL     1       2.828   8.114  18.488  0.00  0.00    +0.000 N 
ATOM      5  C   UNL     1       1.849   9.023  18.103  0.00  0.00    +0.000 C 
ATOM      6  O   UNL     1       2.029   9.839  17.200  0.00  0.00    +0.000 OA
ATOM      7  C   UNL     1       2.646   6.993  19.404  0.00  0.00    +0.000 C 
ATOM      8  C   UNL     1       2.698   5.678  18.628  0.00  0.00    +0.000 C 
ENDROOT
BRANCH   1   9
ATOM      9  C   UNL     1       5.253   5.261  18.388  0.00  0.00    +0.000 C 
ATOM     10  O   UNL     1       5.334   4.993  19.582  0.00  0.00    +0.000 OA
BRANCH   9  11
ATOM     11  O   UNL     1       6.324   5.449  17.576  0.00  0.00    +0.000 OA
BRANCH  11  13
ATOM     12  C   UNL     1       7.703   7.383  17.662  0.00  0.00    +0.000 C 
ATOM     13  C   UNL     1       7.488   5.988  18.220  0.00  0.00    +0.000 C 
ENDBRANCH  11  13
ENDBRANCH   9  11
ENDBRANCH   1   9
BRANCH   1  14
ATOM     14  C   UNL     1       3.732   4.280  16.749  0.00  0.00    +0.000 C 
BRANCH  14  15
ATOM     15  C   UNL     1       4.061   2.938  17.401  0.00  0.00    +0.000 C 
BRANCH  15  16
ATOM     16  C   UNL     1       2.841   2.044  17.640  0.00  0.00    +0.000 C 
BRANCH  16  17
ATOM     17  C   UNL     1       2.342   2.298  19.045  0.00  0.00    +0.000 A 
ATOM     18  C   UNL     1       1.004   2.656  19.260  0.00  0.00    +0.000 A 
ATOM     19  C   UNL     1       0.570   3.033  20.531  0.00  0.00    +0.000 A 
ATOM     20  C   UNL     1       1.467   3.057  21.597  0.00  0.00    +0.000 A 
ATOM     21  C   UNL     1       2.797   2.693  21.397  0.00  0.00    +0.000 A 
ATOM     22  C   UNL     1       3.234   2.313  20.126  0.00  0.00    +0.000 A 
ENDBRANCH  16  17
ENDBRANCH  15  16
ENDBRANCH  14  15
ENDBRANCH   1  14
BRANCH   5  23
ATOM     23  C   UNL     1       0.519   8.974  18.837  0.00  0.00    +0.000 C 
BRANCH  23  24
ATOM     24  C   UNL     1       0.300  10.267  19.626  0.00  0.00    +0.000 C 
BRANCH  24  25
ATOM     25  N   UNL     1       0.091  10.040  21.035  0.00  0.00    +0.000 N 
ATOM     26  C   UNL     1      -0.307   8.906  21.666  0.00  0.00    +0.000 A 
ATOM     27  N   UNL     1      -0.389   9.156  22.953  0.00  0.00    +0.000 NA
ATOM     28  N   UNL     1      -0.043  10.478  23.102  0.00  0.00    +0.000 NA
ATOM     29  N   UNL     1       0.248  11.028  21.931  0.00  0.00    +0.000 NA
ENDBRANCH  24  25
ENDBRANCH  23  24
ENDBRANCH   5  23
TORSDOF 10
ENDMDL
MODEL 6
REMARK VINA RESULT:      -7.4      1.135      2.062
REMARK  Name = 
REMARK  11 active torsions:
REMARK  status: ('A' for Active; 'I' for Inactive)
REMARK    1  A    between atoms: C_1  and  C_2
REMARK    2  A    between atoms: C_2  and  O_3
REMARK    3  A    between atoms: O_3  and  C_4
REMARK    4  A    between atoms: C_4  and  C_6
REMARK    5  A    between atoms: C_6  and  C_7
REMARK    6  A    between atoms: C_7  and  C_8
REMARK    7  A    between atoms: C_8  and  C_9
REMARK    8  A    between atoms: C_9  and  C_10
REMARK    9  A    between atoms: C_19  and  C_21
REMARK   10  A    between atoms: C_21  and  C_22
REMARK   11  A    between atoms: C_22  and  N_23
REMARK                            x       y       z     vdW  Elec       q    Type
REMARK                         _______ _______ _______ _____ _____    ______ ____
ROOT
ATOM      1  C   UNL     1       4.913   6.015  17.225  0.00  0.00    +0.000 C 
ATOM      2  C   UNL     1       5.504   5.588  18.595  0.00  0.00    +0.000 C 
ATOM      3  C   UNL     1       6.093   4.177  18.540  0.00  0.00    +0.000 C 
ATOM      4  N   UNL     1       5.070   3.236  18.103  0.00  0.00    +0.000 N 
ATOM      5  C   UNL     1       4.499   2.385  19.041  0.00  0.00    +0.000 C 
ATOM      6  O   UNL     1       4.871   2.354  20.214  0.00  0.00    +0.000 OA
ATOM      7  C   UNL     1       4.576   3.482  16.752  0.00  0.00    +0.000 C 
ATOM      8  C   UNL     1       3.989   4.889  16.665  0.00  0.00    +0.000 C 
ENDROOT
BRANCH   1   9
ATOM      9  C   UNL     1       6.103   6.365  16.320  0.00  0.00    +0.000 C 
ATOM     10  O   UNL     1       7.041   7.068  16.680  0.00  0.00    +0.000 OA
BRANCH   9  11
ATOM     11  O   UNL     1       5.944   5.896  15.055  0.00  0.00    +0.000 OA
BRANCH  11  13
ATOM     12  C   UNL     1       6.307   4.015  13.649  0.00  0.00    +0.000 C 
ATOM     13  C   UNL     1       6.963   4.987  14.613  0.00  0.00    +0.000 C 
ENDBRANCH  11  13
ENDBRANCH   9  11
ENDBRANCH   1   9
BRANCH   1  14
ATOM     14  C   UNL     1       4.112   7.361  17.322  0.00  0.00    +0.000 C 
BRANCH  14  15
ATOM     15  C   UNL     1       2.824   7.293  18.142  0.00  0.00    +0.000 C 
BRANCH  15  16
ATOM     16  C   UNL     1       1.878   8.477  17.919  0.00  0.00    +0.000 C 
BRANCH  16  17
ATOM     17  C   UNL     1       1.336   8.903  19.265  0.00  0.00    +0.000 A 
ATOM     18  C   UNL     1       0.727  10.157  19.410  0.00  0.00    +0.000 A 
ATOM     19  C   UNL     1       0.355  10.619  20.673  0.00  0.00    +0.000 A 
ATOM     20  C   UNL     1       0.588   9.834  21.800  0.00  0.00    +0.000 A 
ATOM     21  C   UNL     1       1.183   8.582  21.666  0.00  0.00    +0.000 A 
ATOM     22  C   UNL     1       1.555   8.116  20.404  0.00  0.00    +0.000 A 
ENDBRANCH  16  17
ENDBRANCH  15  16
ENDBRANCH  14  15
ENDBRANCH   1  14
BRANCH   5  23
ATOM     23  C   UNL     1       3.374   1.478  18.571  0.00  0.00    +0.000 C 
BRANCH  23  24
ATOM     24  C   UNL     1       2.020   2.163  18.770  0.00  0.00    +0.000 C 
BRANCH  24  25
ATOM     25  N   UNL     1       1.947   2.926  19.992  0.00  0.00    +0.000 N 
ATOM     26  C   UNL     1       1.734   2.487  21.259  0.00  0.00    +0.000 A 
ATOM     27  N   UNL     1       1.721   3.529  22.060  0.00  0.00    +0.000 NA
ATOM     28  N   UNL     1       1.919   4.625  21.255  0.00  0.00    +0.000 NA
ATOM     29  N   UNL     1       2.054   4.264  19.986  0.00  0.00    +0.000 NA
ENDBRANCH  24  25
ENDBRANCH  23  24
ENDBRANCH   5  23
TORSDOF 10
ENDMDL
MODEL 7
REMARK VINA RESULT:      -7.4      0.969      1.649
REMARK  Name = 
REMARK  11 active torsions:
REMARK  status: ('A' for Active; 'I' for Inactive)
REMARK    1  A    between atoms: C_1  and  C_2
REMARK    2  A    between atoms: C_2  and  O_3
REMARK    3  A    between atoms: O_3  and  C_4
REMARK    4  A    between atoms: C_4  and  C_6
REMARK    5  A    between atoms: C_6  and  C_7
REMARK    6  A    between atoms: C_7  and  C_8
REMARK    7  A    between atoms: C_8  and  C_9
REMARK    8  A    between atoms: C_9  and  C_10
REMARK    9  A    between atoms: C_19  and  C_21
REMARK   10  A    between atoms: C_21  and  C_22
REMARK   11  A    between atoms: C_22  and  N_23
REMARK                            x       y       z     vdW  Elec       q    Type
REMARK                         _______ _______ _______ _____ _____    ______ ____
ROOT
ATOM      1  C   UNL     1       4.829   6.020  17.133  0.00  0.00    +0.000 C 
ATOM      2  C   UNL     1       5.324   5.701  18.569  0.00  0.00    +0.000 C 
ATOM      3  C   UNL     1       6.024   4.342  18.636  0.00  0.00    +0.000 C 
ATOM      4  N   UNL     1       5.123   3.303  18.158  0.00  0.00    +0.000 N 
ATOM      5  C   UNL     1       4.537   2.448  19.085  0.00  0.00    +0.000 C 
ATOM      6  O   UNL     1       4.801   2.498  20.285  0.00  0.00    +0.000 OA
ATOM      7  C   UNL     1       4.736   3.450  16.759  0.00  0.00    +0.000 C 
ATOM      8  C   UNL     1       4.052   4.799  16.550  0.00  0.00    +0.000 C 
ENDROOT
BRANCH   1   9
ATOM      9  C   UNL     1       6.065   6.428  16.319  0.00  0.00    +0.000 C 
ATOM     10  O   UNL     1       6.941   7.171  16.749  0.00  0.00    +0.000 OA
BRANCH   9  11
ATOM     11  O   UNL     1       6.023   5.957  15.046  0.00  0.00    +0.000 OA
BRANCH  11  13
ATOM     12  C   UNL     1       6.512   4.092  13.657  0.00  0.00    +0.000 C 
ATOM     13  C   UNL     1       7.071   5.038  14.703  0.00  0.00    +0.000 C 
ENDBRANCH  11  13
ENDBRANCH   9  11
ENDBRANCH   1   9
BRANCH   1  14
ATOM     14  C   UNL     1       3.919   7.297  17.092  0.00  0.00    +0.000 C 
BRANCH  14  15
ATOM     15  C   UNL     1       2.848   7.368  18.180  0.00  0.00    +0.000 C 
BRANCH  15  16
ATOM     16  C   UNL     1       1.800   8.461  17.955  0.00  0.00    +0.000 C 
BRANCH  16  17
ATOM     17  C   UNL     1       1.414   9.026  19.303  0.00  0.00    +0.000 A 
ATOM     18  C   UNL     1       1.558   8.245  20.458  0.00  0.00    +0.000 A 
ATOM     19  C   UNL     1       1.071   8.701  21.683  0.00  0.00    +0.000 A 
ATOM     20  C   UNL     1       0.436   9.939  21.766  0.00  0.00    +0.000 A 
ATOM     21  C   UNL     1       0.297  10.728  20.626  0.00  0.00    +0.000 A 
ATOM     22  C   UNL     1       0.784  10.276  19.399  0.00  0.00    +0.000 A 
ENDBRANCH  16  17
ENDBRANCH  15  16
ENDBRANCH  14  15
ENDBRANCH   1  14
BRANCH   5  23
ATOM     23  C   UNL     1       3.533   1.432  18.563  0.00  0.00    +0.000 C 
BRANCH  23  24
ATOM     24  C   UNL     1       2.171   2.094  18.345  0.00  0.00    +0.000 C 
BRANCH  24  25
ATOM     25  N   UNL     1       1.769   2.935  19.445  0.00  0.00    +0.000 N 
ATOM     26  C   UNL     1       1.652   4.287  19.485  0.00  0.00    +0.000 A 
ATOM     27  N   UNL     1       1.281   4.633  20.697  0.00  0.00    +0.000 NA
ATOM     28  N   UNL     1       1.183   3.462  21.410  0.00  0.00    +0.000 NA
ATOM     29  N   UNL     1       1.485   2.418  20.651  0.00  0.00    +0.000 NA
ENDBRANCH  24  25
ENDBRANCH  23  24
ENDBRANCH   5  23
TORSDOF 10
ENDMDL
MODEL 8
REMARK VINA RESULT:      -7.4      3.044      6.260
REMARK  Name = 
REMARK  11 active torsions:
REMARK  status: ('A' for Active; 'I' for Inactive)
REMARK    1  A    between atoms: C_1  and  C_2
REMARK    2  A    between atoms: C_2  and  O_3
REMARK    3  A    between atoms: O_3  and  C_4
REMARK    4  A    between atoms: C_4  and  C_6
REMARK    5  A    between atoms: C_6  and  C_7
REMARK    6  A    between atoms: C_7  and  C_8
REMARK    7  A    between atoms: C_8  and  C_9
REMARK    8  A    between atoms: C_9  and  C_10
REMARK    9  A    between atoms: C_19  and  C_21
REMARK   10  A    between atoms: C_21  and  C_22
REMARK   11  A    between atoms: C_22  and  N_23
REMARK                            x       y       z     vdW  Elec       q    Type
REMARK                         _______ _______ _______ _____ _____    ______ ____
ROOT
ATOM      1  C   UNL     1       6.663   6.042  17.395  0.00  0.00    +0.000 C 
ATOM      2  C   UNL     1       6.320   5.914  18.903  0.00  0.00    +0.000 C 
ATOM      3  C   UNL     1       5.053   5.086  19.125  0.00  0.00    +0.000 C 
ATOM      4  N   UNL     1       3.944   5.682  18.392  0.00  0.00    +0.000 N 
ATOM      5  C   UNL     1       2.971   6.378  19.100  0.00  0.00    +0.000 C 
ATOM      6  O   UNL     1       2.980   6.455  20.327  0.00  0.00    +0.000 OA
ATOM      7  C   UNL     1       4.128   5.694  16.944  0.00  0.00    +0.000 C 
ATOM      8  C   UNL     1       5.396   6.468  16.590  0.00  0.00    +0.000 C 
ENDROOT
BRANCH   1   9
ATOM      9  C   UNL     1       7.264   4.697  16.961  0.00  0.00    +0.000 C 
ATOM     10  O   UNL     1       8.306   4.243  17.423  0.00  0.00    +0.000 OA
BRANCH   9  11
ATOM     11  O   UNL     1       6.568   4.125  15.946  0.00  0.00    +0.000 OA
BRANCH  11  13
ATOM     12  C   UNL     1       6.024   3.924  13.641  0.00  0.00    +0.000 C 
ATOM     13  C   UNL     1       7.065   4.413  14.630  0.00  0.00    +0.000 C 
ENDBRANCH  11  13
ENDBRANCH   9  11
ENDBRANCH   1   9
BRANCH   1  14
ATOM     14  C   UNL     1       7.824   7.067  17.139  0.00  0.00    +0.000 C 
BRANCH  14  15
ATOM     15  C   UNL     1       8.102   8.035  18.289  0.00  0.00    +0.000 C 
BRANCH  15  16
ATOM     16  C   UNL     1       7.989   9.512  17.902  0.00  0.00    +0.000 C 
BRANCH  16  17
ATOM     17  C   UNL     1       9.138  10.255  18.547  0.00  0.00    +0.000 A 
ATOM     18  C   UNL     1       9.163  10.436  19.936  0.00  0.00    +0.000 A 
ATOM     19  C   UNL     1      10.139  11.241  20.524  0.00  0.00    +0.000 A 
ATOM     20  C   UNL     1      11.095  11.873  19.732  0.00  0.00    +0.000 A 
ATOM     21  C   UNL     1      11.085  11.692  18.351  0.00  0.00    +0.000 A 
ATOM     22  C   UNL     1      10.112  10.885  17.759  0.00  0.00    +0.000 A 
ENDBRANCH  16  17
ENDBRANCH  15  16
ENDBRANCH  14  15
ENDBRANCH   1  14
BRANCH   5  23
ATOM     23  C   UNL     1       1.877   7.063  18.297  0.00  0.00    +0.000 C 
BRANCH  23  24
ATOM     24  C   UNL     1       2.146   8.566  18.206  0.00  0.00    +0.000 C 
BRANCH  24  25
ATOM     25  N   UNL     1       1.238   9.353  19.005  0.00  0.00    +0.000 N 
ATOM     26  C   UNL     1       0.902   9.200  20.312  0.00  0.00    +0.000 A 
ATOM     27  N   UNL     1       0.021  10.124  20.622  0.00  0.00    +0.000 NA
ATOM     28  N   UNL     1      -0.189  10.845  19.471  0.00  0.00    +0.000 NA
ATOM     29  N   UNL     1       0.550  10.376  18.475  0.00  0.00    +0.000 NA
ENDBRANCH  24  25
ENDBRANCH  23  24
ENDBRANCH   5  23
TORSDOF 10
ENDMDL
MODEL 9
REMARK VINA RESULT:      -7.4      2.959      6.207
REMARK  Name = 
REMARK  11 active torsions:
REMARK  status: ('A' for Active; 'I' for Inactive)
REMARK    1  A    between atoms: C_1  and  C_2
REMARK    2  A    between atoms: C_2  and  O_3
REMARK    3  A    between atoms: O_3  and  C_4
REMARK    4  A    between atoms: C_4  and  C_6
REMARK    5  A    between atoms: C_6  and  C_7
REMARK    6  A    between atoms: C_7  and  C_8
REMARK    7  A    between atoms: C_8  and  C_9
REMARK    8  A    between atoms: C_9  and  C_10
REMARK    9  A    between atoms: C_19  and  C_21
REMARK   10  A    between atoms: C_21  and  C_22
REMARK   11  A    between atoms: C_22  and  N_23
REMARK                            x       y       z     vdW  Elec       q    Type
REMARK                         _______ _______ _______ _____ _____    ______ ____
ROOT
ATOM      1  C   UNL     1       6.794   6.143  17.754  0.00  0.00    +0.000 C 
ATOM      2  C   UNL     1       6.153   5.607  19.063  0.00  0.00    +0.000 C 
ATOM      3  C   UNL     1       4.841   4.870  18.788  0.00  0.00    +0.000 C 
ATOM      4  N   UNL     1       3.920   5.756  18.088  0.00  0.00    +0.000 N 
ATOM      5  C   UNL     1       2.850   6.298  18.789  0.00  0.00    +0.000 C 
ATOM      6  O   UNL     1       2.617   6.008  19.961  0.00  0.00    +0.000 OA
ATOM      7  C   UNL     1       4.389   6.178  16.771  0.00  0.00    +0.000 C 
ATOM      8  C   UNL     1       5.726   6.902  16.906  0.00  0.00    +0.000 C 
ENDROOT
BRANCH   1   9
ATOM      9  C   UNL     1       7.424   4.936  17.043  0.00  0.00    +0.000 C 
ATOM     10  O   UNL     1       8.149   4.124  17.607  0.00  0.00    +0.000 OA
BRANCH   9  11
ATOM     11  O   UNL     1       7.170   4.933  15.710  0.00  0.00    +0.000 OA
BRANCH  11  13
ATOM     12  C   UNL     1       6.297   3.938  13.735  0.00  0.00    +0.000 C 
ATOM     13  C   UNL     1       6.360   3.841  15.248  0.00  0.00    +0.000 C 
ENDBRANCH  11  13
ENDBRANCH   9  11
ENDBRANCH   1   9
BRANCH   1  14
ATOM     14  C   UNL     1       8.016   7.086  18.039  0.00  0.00    +0.000 C 
BRANCH  14  15
ATOM     15  C   UNL     1       7.687   8.578  18.088  0.00  0.00    +0.000 C 
BRANCH  15  16
ATOM     16  C   UNL     1       8.703   9.465  17.363  0.00  0.00    +0.000 C 
BRANCH  16  17
ATOM     17  C   UNL     1       9.226  10.483  18.350  0.00  0.00    +0.000 A 
ATOM     18  C   UNL     1       9.919  11.612  17.893  0.00  0.00    +0.000 A 
ATOM     19  C   UNL     1      10.530  12.480  18.799  0.00  0.00    +0.000 A 
ATOM     20  C   UNL     1      10.455  12.228  20.167  0.00  0.00    +0.000 A 
ATOM     21  C   UNL     1       9.760  11.114  20.633  0.00  0.00    +0.000 A 
ATOM     22  C   UNL     1       9.146  10.244  19.730  0.00  0.00    +0.000 A 
ENDBRANCH  16  17
ENDBRANCH  15  16
ENDBRANCH  14  15
ENDBRANCH   1  14
BRANCH   5  23
ATOM     23  C   UNL     1       1.960   7.287  18.053  0.00  0.00    +0.000 C 
BRANCH  23  24
ATOM     24  C   UNL     1       2.233   8.712  18.539  0.00  0.00    +0.000 C 
BRANCH  24  25
ATOM     25  N   UNL     1       1.111   9.298  19.231  0.00  0.00    +0.000 N 
ATOM     26  C   UNL     1       0.753   9.171  20.534  0.00  0.00    +0.000 A 
ATOM     27  N   UNL     1      -0.351   9.857  20.727  0.00  0.00    +0.000 NA
ATOM     28  N   UNL     1      -0.674  10.402  19.507  0.00  0.00    +0.000 NA
ATOM     29  N   UNL     1       0.214  10.060  18.584  0.00  0.00    +0.000 NA
ENDBRANCH  24  25
ENDBRANCH  23  24
ENDBRANCH   5  23
TORSDOF 10
ENDMDL
