MODEL 1
REMARK VINA RESULT:      -8.0      0.000      0.000
REMARK  Name = 
REMARK  9 active torsions:
REMARK  status: ('A' for Active; 'I' for Inactive)
REMARK    1  A    between atoms: C_1  and  C_2
REMARK    2  A    between atoms: C_5  and  O_6
REMARK    3  A    between atoms: O_6  and  C_7
REMARK    4  A    between atoms: C_14  and  C_15
REMARK    5  A    between atoms: C_15  and  O_16
REMARK    6  A    between atoms: O_16  and  C_17
REMARK    7  A    between atoms: C_21  and  C_22
REMARK    8  A    between atoms: C_22  and  O_24
REMARK    9  A    between atoms: N_26  and  C_27
REMARK                            x       y       z     vdW  Elec       q    Type
REMARK                         _______ _______ _______ _____ _____    ______ ____
ROOT
ATOM      1  C   UNL     1       6.338   5.769  16.828  0.00  0.00    +0.000 A 
ATOM      2  C   UNL     1       5.247   6.633  16.829  0.00  0.00    +0.000 A 
ATOM      3  C   UNL     1       4.394   6.497  17.930  0.00  0.00    +0.000 A 
ATOM      4  C   UNL     1       4.638   5.571  18.941  0.00  0.00    +0.000 A 
ATOM      5  C   UNL     1       5.787   4.782  18.874  0.00  0.00    +0.000 A 
ATOM      6  N   UNL     1       6.637   4.901  17.825  0.00  0.00    +0.000 NA
ATOM      7  N   UNL     1       3.635   5.593  19.876  0.00  0.00    +0.000 NA
ATOM      8  C   UNL     1       2.794   6.535  19.491  0.00  0.00    +0.000 A 
ATOM      9  N   UNL     1       3.222   7.114  18.313  0.00  0.00    +0.000 N 
ATOM     10  C   UNL     1       2.582   8.172  17.571  0.00  0.00    +0.000 C 
ENDROOT
BRANCH   1  11
ATOM     11  O   UNL     1       7.161   5.808  15.702  0.00  0.00    +0.000 OA
BRANCH  11  16
ATOM     12  C   UNL     1       5.425   2.606  11.332  0.00  0.00    +0.000 C 
ATOM     13  C   UNL     1       5.915   3.426  12.487  0.00  0.00    +0.000 A 
ATOM     14  C   UNL     1       7.073   4.199  12.365  0.00  0.00    +0.000 A 
ATOM     15  C   UNL     1       7.519   4.976  13.432  0.00  0.00    +0.000 A 
ATOM     16  C   UNL     1       6.788   5.032  14.623  0.00  0.00    +0.000 A 
ATOM     17  C   UNL     1       5.657   4.229  14.771  0.00  0.00    +0.000 A 
ATOM     18  C   UNL     1       5.220   3.431  13.705  0.00  0.00    +0.000 A 
ENDBRANCH  11  16
ENDBRANCH   1  11
BRANCH   8  19
ATOM     19  C   UNL     1       1.533   6.891  20.216  0.00  0.00    +0.000 C 
BRANCH  19  20
ATOM     20  O   UNL     1       1.875   7.845  21.222  0.00  0.00    +0.000 OA
BRANCH  20  21
ATOM     21  C   UNL     1       1.016   8.900  21.385  0.00  0.00    +0.000 A 
ATOM     22  C   UNL     1       0.396   9.264  22.583  0.00  0.00    +0.000 A 
ATOM     23  C   UNL     1      -0.508  10.330  22.615  0.00  0.00    +0.000 A 
ATOM     24  C   UNL     1      -0.793  11.048  21.455  0.00  0.00    +0.000 A 
ATOM     25  C   UNL     1      -0.154  10.712  20.257  0.00  0.00    +0.000 A 
ATOM     26  C   UNL     1       0.741   9.631  20.225  0.00  0.00    +0.000 A 
BRANCH  25  27
ATOM     27  C   UNL     1      -0.441  11.423  18.987  0.00  0.00    +0.000 C 
ATOM     28  O   UNL     1      -0.561  12.633  18.919  0.00  0.00    +0.000 OA
BRANCH  27  29
ATOM     29  O   UNL     1      -0.578  10.612  17.914  0.00  0.00    +0.000 OA
ATOM     30  H   UNL     1       0.016   9.840  17.896  0.00  0.00    +0.000 HD
ENDBRANCH  27  29
ENDBRANCH  25  27
ENDBRANCH  20  21
ENDBRANCH  19  20
ENDBRANCH   8  19
TORSDOF 7
ENDMDL
MODEL 2
REMARK VINA RESULT:      -8.0      2.136      9.010
REMARK  Name = 
REMARK  9 active torsions:
REMARK  status: ('A' for Active; 'I' for Inactive)
REMARK    1  A    between atoms: C_1  and  C_2
REMARK    2  A    between atoms: C_5  and  O_6
REMARK    3  A    between atoms: O_6  and  C_7
REMARK    4  A    between atoms: C_14  and  C_15
REMARK    5  A    between atoms: C_15  and  O_16
REMARK    6  A    between atoms: O_16  and  C_17
REMARK    7  A    between atoms: C_21  and  C_22
REMARK    8  A    between atoms: C_22  and  O_24
REMARK    9  A    between atoms: N_26  and  C_27
REMARK                            x       y       z     vdW  Elec       q    Type
REMARK                         _______ _______ _______ _____ _____    ______ ____
ROOT
ATOM      1  C   UNL     1       1.182   9.056  20.140  0.00  0.00    +0.000 A 
ATOM      2  C   UNL     1       1.400   7.799  20.699  0.00  0.00    +0.000 A 
ATOM      3  C   UNL     1       2.009   6.876  19.844  0.00  0.00    +0.000 A 
ATOM      4  C   UNL     1       2.374   7.207  18.541  0.00  0.00    +0.000 A 
ATOM      5  C   UNL     1       2.159   8.509  18.088  0.00  0.00    +0.000 A 
ATOM      6  N   UNL     1       1.580   9.428  18.899  0.00  0.00    +0.000 NA
ATOM      7  N   UNL     1       2.902   6.121  17.891  0.00  0.00    +0.000 NA
ATOM      8  C   UNL     1       2.910   5.135  18.768  0.00  0.00    +0.000 A 
ATOM      9  N   UNL     1       2.380   5.554  19.972  0.00  0.00    +0.000 N 
ATOM     10  C   UNL     1       2.211   4.777  21.176  0.00  0.00    +0.000 C 
ENDROOT
BRANCH   1  11
ATOM     11  O   UNL     1       0.492   9.976  20.929  0.00  0.00    +0.000 OA
BRANCH  11  16
ATOM     12  C   UNL     1      -0.261  15.229  18.878  0.00  0.00    +0.000 C 
ATOM     13  C   UNL     1      -0.034  13.839  19.392  0.00  0.00    +0.000 A 
ATOM     14  C   UNL     1       1.148  13.520  20.066  0.00  0.00    +0.000 A 
ATOM     15  C   UNL     1       1.354  12.234  20.560  0.00  0.00    +0.000 A 
ATOM     16  C   UNL     1       0.361  11.258  20.431  0.00  0.00    +0.000 A 
ATOM     17  C   UNL     1      -0.802  11.553  19.721  0.00  0.00    +0.000 A 
ATOM     18  C   UNL     1      -1.000  12.841  19.205  0.00  0.00    +0.000 A 
ENDBRANCH  11  16
ENDBRANCH   1  11
BRANCH   8  19
ATOM     19  C   UNL     1       3.391   3.747  18.476  0.00  0.00    +0.000 C 
BRANCH  19  20
ATOM     20  O   UNL     1       4.706   3.630  19.019  0.00  0.00    +0.000 OA
BRANCH  20  21
ATOM     21  C   UNL     1       5.676   4.416  18.454  0.00  0.00    +0.000 A 
ATOM     22  C   UNL     1       6.408   5.405  19.115  0.00  0.00    +0.000 A 
ATOM     23  C   UNL     1       7.337   6.183  18.418  0.00  0.00    +0.000 A 
ATOM     24  C   UNL     1       7.550   5.975  17.056  0.00  0.00    +0.000 A 
ATOM     25  C   UNL     1       6.845   4.967  16.391  0.00  0.00    +0.000 A 
ATOM     26  C   UNL     1       5.902   4.198  17.091  0.00  0.00    +0.000 A 
BRANCH  25  27
ATOM     27  C   UNL     1       7.010   4.720  14.936  0.00  0.00    +0.000 C 
ATOM     28  O   UNL     1       7.651   5.458  14.210  0.00  0.00    +0.000 OA
BRANCH  27  29
ATOM     29  O   UNL     1       6.373   3.618  14.482  0.00  0.00    +0.000 OA
ATOM     30  H   UNL     1       6.900   2.799  14.490  0.00  0.00    +0.000 HD
ENDBRANCH  27  29
ENDBRANCH  25  27
ENDBRANCH  20  21
ENDBRANCH  19  20
ENDBRANCH   8  19
TORSDOF 7
ENDMDL
MODEL 3
REMARK VINA RESULT:      -8.0      2.105      9.026
REMARK  Name = 
REMARK  9 active torsions:
REMARK  status: ('A' for Active; 'I' for Inactive)
REMARK    1  A    between atoms: C_1  and  C_2
REMARK    2  A    between atoms: C_5  and  O_6
REMARK    3  A    between atoms: O_6  and  C_7
REMARK    4  A    between atoms: C_14  and  C_15
REMARK    5  A    between atoms: C_15  and  O_16
REMARK    6  A    between atoms: O_16  and  C_17
REMARK    7  A    between atoms: C_21  and  C_22
REMARK    8  A    between atoms: C_22  and  O_24
REMARK    9  A    between atoms: N_26  and  C_27
REMARK                            x       y       z     vdW  Elec       q    Type
REMARK                         _______ _______ _______ _____ _____    ______ ____
ROOT
ATOM      1  C   UNL     1       1.125   8.930  20.159  0.00  0.00    +0.000 A 
ATOM      2  C   UNL     1       1.376   7.679  20.717  0.00  0.00    +0.000 A 
ATOM      3  C   UNL     1       2.012   6.773  19.862  0.00  0.00    +0.000 A 
ATOM      4  C   UNL     1       2.369   7.115  18.561  0.00  0.00    +0.000 A 
ATOM      5  C   UNL     1       2.119   8.411  18.108  0.00  0.00    +0.000 A 
ATOM      6  N   UNL     1       1.514   9.313  18.918  0.00  0.00    +0.000 NA
ATOM      7  N   UNL     1       2.927   6.044  17.911  0.00  0.00    +0.000 NA
ATOM      8  C   UNL     1       2.961   5.058  18.788  0.00  0.00    +0.000 A 
ATOM      9  N   UNL     1       2.418   5.462  19.991  0.00  0.00    +0.000 N 
ATOM     10  C   UNL     1       2.268   4.680  21.194  0.00  0.00    +0.000 C 
ENDROOT
BRANCH   1  11
ATOM     11  O   UNL     1       0.409   9.831  20.946  0.00  0.00    +0.000 OA
BRANCH  11  16
ATOM     12  C   UNL     1      -0.222  15.069  18.818  0.00  0.00    +0.000 C 
ATOM     13  C   UNL     1      -0.085  13.696  19.404  0.00  0.00    +0.000 A 
ATOM     14  C   UNL     1      -1.096  12.747  19.224  0.00  0.00    +0.000 A 
ATOM     15  C   UNL     1      -0.962  11.465  19.753  0.00  0.00    +0.000 A 
ATOM     16  C   UNL     1       0.204  11.095  20.429  0.00  0.00    +0.000 A 
ATOM     17  C   UNL     1       1.198  12.048  20.653  0.00  0.00    +0.000 A 
ATOM     18  C   UNL     1       1.054  13.343  20.140  0.00  0.00    +0.000 A 
ENDBRANCH  11  16
ENDBRANCH   1  11
BRANCH   8  19
ATOM     19  C   UNL     1       3.479   3.684  18.496  0.00  0.00    +0.000 C 
BRANCH  19  20
ATOM     20  O   UNL     1       4.820   3.624  18.983  0.00  0.00    +0.000 OA
BRANCH  20  21
ATOM     21  C   UNL     1       5.731   4.451  18.380  0.00  0.00    +0.000 A 
ATOM     22  C   UNL     1       6.444   5.472  19.012  0.00  0.00    +0.000 A 
ATOM     23  C   UNL     1       7.309   6.290  18.278  0.00  0.00    +0.000 A 
ATOM     24  C   UNL     1       7.476   6.090  16.909  0.00  0.00    +0.000 A 
ATOM     25  C   UNL     1       6.791   5.050  16.272  0.00  0.00    +0.000 A 
ATOM     26  C   UNL     1       5.912   4.241  17.009  0.00  0.00    +0.000 A 
BRANCH  25  27
ATOM     27  C   UNL     1       6.909   4.809  14.812  0.00  0.00    +0.000 C 
ATOM     28  O   UNL     1       6.201   4.020  14.213  0.00  0.00    +0.000 OA
BRANCH  27  29
ATOM     29  O   UNL     1       7.882   5.526  14.207  0.00  0.00    +0.000 OA
ATOM     30  H   UNL     1       7.854   6.486  14.368  0.00  0.00    +0.000 HD
ENDBRANCH  27  29
ENDBRANCH  25  27
ENDBRANCH  20  21
ENDBRANCH  19  20
ENDBRANCH   8  19
TORSDOF 7
ENDMDL
MODEL 4
REMARK VINA RESULT:      -7.9      4.087     10.555
REMARK  Name = 
REMARK  9 active torsions:
REMARK  status: ('A' for Active; 'I' for Inactive)
REMARK    1  A    between atoms: C_1  and  C_2
REMARK    2  A    between atoms: C_5  and  O_6
REMARK    3  A    between atoms: O_6  and  C_7
REMARK    4  A    between atoms: C_14  and  C_15
REMARK    5  A    between atoms: C_15  and  O_16
REMARK    6  A    between atoms: O_16  and  C_17
REMARK    7  A    between atoms: C_21  and  C_22
REMARK    8  A    between atoms: C_22  and  O_24
REMARK    9  A    between atoms: N_26  and  C_27
REMARK                            x       y       z     vdW  Elec       q    Type
REMARK                         _______ _______ _______ _____ _____    ______ ____
ROOT
ATOM      1  C   UNL     1      -0.622  11.359  21.692  0.00  0.00    +0.000 A 
ATOM      2  C   UNL     1       0.021  11.092  20.486  0.00  0.00    +0.000 A 
ATOM      3  C   UNL     1       0.669   9.853  20.431  0.00  0.00    +0.000 A 
ATOM      4  C   UNL     1       0.653   8.965  21.503  0.00  0.00    +0.000 A 
ATOM      5  C   UNL     1      -0.062   9.303  22.653  0.00  0.00    +0.000 A 
ATOM      6  N   UNL     1      -0.708  10.492  22.730  0.00  0.00    +0.000 NA
ATOM      7  N   UNL     1       1.400   7.849  21.224  0.00  0.00    +0.000 NA
ATOM      8  C   UNL     1       1.848   8.005  19.992  0.00  0.00    +0.000 A 
ATOM      9  N   UNL     1       1.421   9.210  19.471  0.00  0.00    +0.000 N 
ATOM     10  C   UNL     1       1.699   9.750  18.162  0.00  0.00    +0.000 C 
ENDROOT
BRANCH   1  11
ATOM     11  O   UNL     1      -1.200  12.622  21.822  0.00  0.00    +0.000 OA
BRANCH  11  16
ATOM     12  C   UNL     1      -6.655  12.904  23.410  0.00  0.00    +0.000 C 
ATOM     13  C   UNL     1      -5.225  12.793  22.978  0.00  0.00    +0.000 A 
ATOM     14  C   UNL     1      -4.899  12.737  21.620  0.00  0.00    +0.000 A 
ATOM     15  C   UNL     1      -3.568  12.652  21.216  0.00  0.00    +0.000 A 
ATOM     16  C   UNL     1      -2.538  12.670  22.161  0.00  0.00    +0.000 A 
ATOM     17  C   UNL     1      -2.854  12.679  23.520  0.00  0.00    +0.000 A 
ATOM     18  C   UNL     1      -4.193  12.743  23.926  0.00  0.00    +0.000 A 
ENDBRANCH  11  16
ENDBRANCH   1  11
BRANCH   8  19
ATOM     19  C   UNL     1       2.730   7.025  19.282  0.00  0.00    +0.000 C 
BRANCH  19  20
ATOM     20  O   UNL     1       1.897   6.252  18.417  0.00  0.00    +0.000 OA
BRANCH  20  21
ATOM     21  C   UNL     1       1.966   4.890  18.554  0.00  0.00    +0.000 A 
ATOM     22  C   UNL     1       1.966   3.968  17.505  0.00  0.00    +0.000 A 
ATOM     23  C   UNL     1       1.985   2.595  17.770  0.00  0.00    +0.000 A 
ATOM     24  C   UNL     1       2.012   2.132  19.084  0.00  0.00    +0.000 A 
ATOM     25  C   UNL     1       2.044   3.047  20.141  0.00  0.00    +0.000 A 
ATOM     26  C   UNL     1       2.009   4.424  19.871  0.00  0.00    +0.000 A 
BRANCH  25  27
ATOM     27  C   UNL     1       2.045   2.609  21.560  0.00  0.00    +0.000 C 
ATOM     28  O   UNL     1       1.044   2.613  22.253  0.00  0.00    +0.000 OA
BRANCH  27  29
ATOM     29  O   UNL     1       3.255   2.225  22.023  0.00  0.00    +0.000 OA
ATOM     30  H   UNL     1       3.247   1.462  22.628  0.00  0.00    +0.000 HD
ENDBRANCH  27  29
ENDBRANCH  25  27
ENDBRANCH  20  21
ENDBRANCH  19  20
ENDBRANCH   8  19
TORSDOF 7
ENDMDL
MODEL 5
REMARK VINA RESULT:      -7.8      4.169      6.833
REMARK  Name = 
REMARK  9 active torsions:
REMARK  status: ('A' for Active; 'I' for Inactive)
REMARK    1  A    between atoms: C_1  and  C_2
REMARK    2  A    between atoms: C_5  and  O_6
REMARK    3  A    between atoms: O_6  and  C_7
REMARK    4  A    between atoms: C_14  and  C_15
REMARK    5  A    between atoms: C_15  and  O_16
REMARK    6  A    between atoms: O_16  and  C_17
REMARK    7  A    between atoms: C_21  and  C_22
REMARK    8  A    between atoms: C_22  and  O_24
REMARK    9  A    between atoms: N_26  and  C_27
REMARK                            x       y       z     vdW  Elec       q    Type
REMARK                         _______ _______ _______ _____ _____    ______ ____
ROOT
ATOM      1  C   UNL     1       1.874   8.278  19.570  0.00  0.00    +0.000 A 
ATOM      2  C   UNL     1       1.193   8.806  20.664  0.00  0.00    +0.000 A 
ATOM      3  C   UNL     1       0.435   9.948  20.385  0.00  0.00    +0.000 A 
ATOM      4  C   UNL     1       0.369  10.494  19.106  0.00  0.00    +0.000 A 
ATOM      5  C   UNL     1       1.049   9.863  18.064  0.00  0.00    +0.000 A 
ATOM      6  N   UNL     1       1.782   8.748  18.303  0.00  0.00    +0.000 NA
ATOM      7  N   UNL     1      -0.390  11.636  19.102  0.00  0.00    +0.000 NA
ATOM      8  C   UNL     1      -0.829  11.791  20.337  0.00  0.00    +0.000 A 
ATOM      9  N   UNL     1      -0.354  10.781  21.149  0.00  0.00    +0.000 N 
ATOM     10  C   UNL     1      -0.602  10.597  22.559  0.00  0.00    +0.000 C 
ENDROOT
BRANCH   1  11
ATOM     11  O   UNL     1       2.715   7.194  19.825  0.00  0.00    +0.000 OA
BRANCH  11  16
ATOM     12  C   UNL     1       0.583   2.019  18.807  0.00  0.00    +0.000 C 
ATOM     13  C   UNL     1       1.181   3.369  19.067  0.00  0.00    +0.000 A 
ATOM     14  C   UNL     1       1.716   4.118  18.015  0.00  0.00    +0.000 A 
ATOM     15  C   UNL     1       2.256   5.381  18.252  0.00  0.00    +0.000 A 
ATOM     16  C   UNL     1       2.226   5.936  19.535  0.00  0.00    +0.000 A 
ATOM     17  C   UNL     1       1.736   5.178  20.598  0.00  0.00    +0.000 A 
ATOM     18  C   UNL     1       1.213   3.899  20.364  0.00  0.00    +0.000 A 
ENDBRANCH  11  16
ENDBRANCH   1  11
BRANCH   8  19
ATOM     19  C   UNL     1      -1.688  12.930  20.792  0.00  0.00    +0.000 C 
BRANCH  19  20
ATOM     20  O   UNL     1      -2.902  12.873  20.042  0.00  0.00    +0.000 OA
BRANCH  20  21
ATOM     21  C   UNL     1      -4.070  12.912  20.758  0.00  0.00    +0.000 A 
ATOM     22  C   UNL     1      -4.302  13.695  21.891  0.00  0.00    +0.000 A 
ATOM     23  C   UNL     1      -5.520  13.608  22.573  0.00  0.00    +0.000 A 
ATOM     24  C   UNL     1      -6.519  12.746  22.125  0.00  0.00    +0.000 A 
ATOM     25  C   UNL     1      -6.308  11.980  20.973  0.00  0.00    +0.000 A 
ATOM     26  C   UNL     1      -5.079  12.058  20.300  0.00  0.00    +0.000 A 
BRANCH  25  27
ATOM     27  C   UNL     1      -7.325  11.025  20.468  0.00  0.00    +0.000 C 
ATOM     28  O   UNL     1      -7.810  10.149  21.160  0.00  0.00    +0.000 OA
BRANCH  27  29
ATOM     29  O   UNL     1      -7.653  11.198  19.168  0.00  0.00    +0.000 OA
ATOM     30  H   UNL     1      -8.608  11.185  18.973  0.00  0.00    +0.000 HD
ENDBRANCH  27  29
ENDBRANCH  25  27
ENDBRANCH  20  21
ENDBRANCH  19  20
ENDBRANCH   8  19
TORSDOF 7
ENDMDL
MODEL 6
REMARK VINA RESULT:      -7.8      4.091      6.705
REMARK  Name = 
REMARK  9 active torsions:
REMARK  status: ('A' for Active; 'I' for Inactive)
REMARK    1  A    between atoms: C_1  and  C_2
REMARK    2  A    between atoms: C_5  and  O_6
REMARK    3  A    between atoms: O_6  and  C_7
REMARK    4  A    between atoms: C_14  and  C_15
REMARK    5  A    between atoms: C_15  and  O_16
REMARK    6  A    between atoms: O_16  and  C_17
REMARK    7  A    between atoms: C_21  and  C_22
REMARK    8  A    between atoms: C_22  and  O_24
REMARK    9  A    between atoms: N_26  and  C_27
REMARK                            x       y       z     vdW  Elec       q    Type
REMARK                         _______ _______ _______ _____ _____    ______ ____
ROOT
ATOM      1  C   UNL     1       2.043   8.007  19.472  0.00  0.00    +0.000 A 
ATOM      2  C   UNL     1       1.338   8.366  20.617  0.00  0.00    +0.000 A 
ATOM      3  C   UNL     1       0.578   9.534  20.494  0.00  0.00    +0.000 A 
ATOM      4  C   UNL     1       0.532  10.262  19.308  0.00  0.00    +0.000 A 
ATOM      5  C   UNL     1       1.235   9.792  18.198  0.00  0.00    +0.000 A 
ATOM      6  N   UNL     1       1.971   8.657  18.285  0.00  0.00    +0.000 NA
ATOM      7  N   UNL     1      -0.235  11.389  19.456  0.00  0.00    +0.000 NA
ATOM      8  C   UNL     1      -0.698  11.359  20.692  0.00  0.00    +0.000 A 
ATOM      9  N   UNL     1      -0.231  10.243  21.357  0.00  0.00    +0.000 N 
ATOM     10  C   UNL     1      -0.504   9.854  22.719  0.00  0.00    +0.000 C 
ENDROOT
BRANCH   1  11
ATOM     11  O   UNL     1       2.886   6.901  19.582  0.00  0.00    +0.000 OA
BRANCH  11  16
ATOM     12  C   UNL     1       0.636   1.743  18.750  0.00  0.00    +0.000 C 
ATOM     13  C   UNL     1       1.192   3.116  18.979  0.00  0.00    +0.000 A 
ATOM     14  C   UNL     1       1.245   3.650  20.269  0.00  0.00    +0.000 A 
ATOM     15  C   UNL     1       1.779   4.919  20.487  0.00  0.00    +0.000 A 
ATOM     16  C   UNL     1       2.314   5.654  19.425  0.00  0.00    +0.000 A 
ATOM     17  C   UNL     1       2.225   5.149  18.127  0.00  0.00    +0.000 A 
ATOM     18  C   UNL     1       1.668   3.883  17.906  0.00  0.00    +0.000 A 
ENDBRANCH  11  16
ENDBRANCH   1  11
BRANCH   8  19
ATOM     19  C   UNL     1      -1.573  12.415  21.292  0.00  0.00    +0.000 C 
BRANCH  19  20
ATOM     20  O   UNL     1      -2.278  13.043  20.221  0.00  0.00    +0.000 OA
BRANCH  20  21
ATOM     21  C   UNL     1      -3.514  12.534  19.917  0.00  0.00    +0.000 A 
ATOM     22  C   UNL     1      -3.837  11.822  18.759  0.00  0.00    +0.000 A 
ATOM     23  C   UNL     1      -5.150  11.399  18.532  0.00  0.00    +0.000 A 
ATOM     24  C   UNL     1      -6.150  11.673  19.463  0.00  0.00    +0.000 A 
ATOM     25  C   UNL     1      -5.831  12.357  20.641  0.00  0.00    +0.000 A 
ATOM     26  C   UNL     1      -4.515  12.795  20.858  0.00  0.00    +0.000 A 
BRANCH  25  27
ATOM     27  C   UNL     1      -6.860  12.702  21.653  0.00  0.00    +0.000 C 
ATOM     28  O   UNL     1      -7.415  13.785  21.690  0.00  0.00    +0.000 OA
BRANCH  27  29
ATOM     29  O   UNL     1      -7.117  11.717  22.543  0.00  0.00    +0.000 OA
ATOM     30  H   UNL     1      -6.852  10.822  22.263  0.00  0.00    +0.000 HD
ENDBRANCH  27  29
ENDBRANCH  25  27
ENDBRANCH  20  21
ENDBRANCH  19  20
ENDBRANCH   8  19
TORSDOF 7
ENDMDL
MODEL 7
REMARK VINA RESULT:      -7.8      4.214     10.448
REMARK  Name = 
REMARK  9 active torsions:
REMARK  status: ('A' for Active; 'I' for Inactive)
REMARK    1  A    between atoms: C_1  and  C_2
REMARK    2  A    between atoms: C_5  and  O_6
REMARK    3  A    between atoms: O_6  and  C_7
REMARK    4  A    between atoms: C_14  and  C_15
REMARK    5  A    between atoms: C_15  and  O_16
REMARK    6  A    between atoms: O_16  and  C_17
REMARK    7  A    between atoms: C_21  and  C_22
REMARK    8  A    between atoms: C_22  and  O_24
REMARK    9  A    between atoms: N_26  and  C_27
REMARK                            x       y       z     vdW  Elec       q    Type
REMARK                         _______ _______ _______ _____ _____    ______ ____
ROOT
ATOM      1  C   UNL     1      -0.488  11.462  21.811  0.00  0.00    +0.000 A 
ATOM      2  C   UNL     1       0.129  11.434  20.564  0.00  0.00    +0.000 A 
ATOM      3  C   UNL     1       0.715  10.209  20.229  0.00  0.00    +0.000 A 
ATOM      4  C   UNL     1       0.666   9.110  21.083  0.00  0.00    +0.000 A 
ATOM      5  C   UNL     1      -0.020   9.223  22.293  0.00  0.00    +0.000 A 
ATOM      6  N   UNL     1      -0.607  10.395  22.639  0.00  0.00    +0.000 NA
ATOM      7  N   UNL     1       1.355   8.049  20.554  0.00  0.00    +0.000 NA
ATOM      8  C   UNL     1       1.798   8.448  19.376  0.00  0.00    +0.000 A 
ATOM      9  N   UNL     1       1.425   9.756  19.137  0.00  0.00    +0.000 N 
ATOM     10  C   UNL     1       1.717  10.553  17.971  0.00  0.00    +0.000 C 
ENDROOT
BRANCH   1  11
ATOM     11  O   UNL     1      -1.003  12.691  22.223  0.00  0.00    +0.000 OA
BRANCH  11  16
ATOM     12  C   UNL     1      -6.673  13.006  22.563  0.00  0.00    +0.000 C 
ATOM     13  C   UNL     1      -5.177  12.960  22.488  0.00  0.00    +0.000 A 
ATOM     14  C   UNL     1      -4.410  12.956  23.657  0.00  0.00    +0.000 A 
ATOM     15  C   UNL     1      -3.019  12.895  23.589  0.00  0.00    +0.000 A 
ATOM     16  C   UNL     1      -2.374  12.789  22.353  0.00  0.00    +0.000 A 
ATOM     17  C   UNL     1      -3.127  12.838  21.180  0.00  0.00    +0.000 A 
ATOM     18  C   UNL     1      -4.524  12.921  21.248  0.00  0.00    +0.000 A 
ENDBRANCH  11  16
ENDBRANCH   1  11
BRANCH   8  19
ATOM     19  C   UNL     1       2.624   7.606  18.454  0.00  0.00    +0.000 C 
BRANCH  19  20
ATOM     20  O   UNL     1       3.198   6.558  19.236  0.00  0.00    +0.000 OA
BRANCH  20  21
ATOM     21  C   UNL     1       2.589   5.333  19.162  0.00  0.00    +0.000 A 
ATOM     22  C   UNL     1       1.906   4.831  18.052  0.00  0.00    +0.000 A 
ATOM     23  C   UNL     1       1.274   3.585  18.114  0.00  0.00    +0.000 A 
ATOM     24  C   UNL     1       1.326   2.826  19.282  0.00  0.00    +0.000 A 
ATOM     25  C   UNL     1       2.034   3.305  20.389  0.00  0.00    +0.000 A 
ATOM     26  C   UNL     1       2.653   4.563  20.328  0.00  0.00    +0.000 A 
BRANCH  25  27
ATOM     27  C   UNL     1       2.098   2.553  21.667  0.00  0.00    +0.000 C 
ATOM     28  O   UNL     1       1.134   2.406  22.396  0.00  0.00    +0.000 OA
BRANCH  27  29
ATOM     29  O   UNL     1       3.322   2.060  21.962  0.00  0.00    +0.000 OA
ATOM     30  H   UNL     1       3.493   1.154  21.649  0.00  0.00    +0.000 HD
ENDBRANCH  27  29
ENDBRANCH  25  27
ENDBRANCH  20  21
ENDBRANCH  19  20
ENDBRANCH   8  19
TORSDOF 7
ENDMDL
MODEL 8
REMARK VINA RESULT:      -7.8      4.258     10.621
REMARK  Name = 
REMARK  9 active torsions:
REMARK  status: ('A' for Active; 'I' for Inactive)
REMARK    1  A    between atoms: C_1  and  C_2
REMARK    2  A    between atoms: C_5  and  O_6
REMARK    3  A    between atoms: O_6  and  C_7
REMARK    4  A    between atoms: C_14  and  C_15
REMARK    5  A    between atoms: C_15  and  O_16
REMARK    6  A    between atoms: O_16  and  C_17
REMARK    7  A    between atoms: C_21  and  C_22
REMARK    8  A    between atoms: C_22  and  O_24
REMARK    9  A    between atoms: N_26  and  C_27
REMARK                            x       y       z     vdW  Elec       q    Type
REMARK                         _______ _______ _______ _____ _____    ______ ____
ROOT
ATOM      1  C   UNL     1      -0.688  11.368  21.327  0.00  0.00    +0.000 A 
ATOM      2  C   UNL     1      -0.064  11.044  20.125  0.00  0.00    +0.000 A 
ATOM      3  C   UNL     1       0.619   9.823  20.131  0.00  0.00    +0.000 A 
ATOM      4  C   UNL     1       0.652   9.003  21.255  0.00  0.00    +0.000 A 
ATOM      5  C   UNL     1      -0.047   9.392  22.398  0.00  0.00    +0.000 A 
ATOM      6  N   UNL     1      -0.727  10.565  22.418  0.00  0.00    +0.000 NA
ATOM      7  N   UNL     1       1.426   7.894  21.028  0.00  0.00    +0.000 NA
ATOM      8  C   UNL     1       1.842   7.986  19.778  0.00  0.00    +0.000 A 
ATOM      9  N   UNL     1       1.369   9.144  19.195  0.00  0.00    +0.000 N 
ATOM     10  C   UNL     1       1.603   9.609  17.849  0.00  0.00    +0.000 C 
ENDROOT
BRANCH   1  11
ATOM     11  O   UNL     1      -1.300  12.619  21.392  0.00  0.00    +0.000 OA
BRANCH  11  16
ATOM     12  C   UNL     1      -6.321  12.871  24.054  0.00  0.00    +0.000 C 
ATOM     13  C   UNL     1      -4.991  12.842  23.365  0.00  0.00    +0.000 A 
ATOM     14  C   UNL     1      -3.809  12.834  24.112  0.00  0.00    +0.000 A 
ATOM     15  C   UNL     1      -2.571  12.788  23.473  0.00  0.00    +0.000 A 
ATOM     16  C   UNL     1      -2.495  12.701  22.080  0.00  0.00    +0.000 A 
ATOM     17  C   UNL     1      -3.666  12.755  21.325  0.00  0.00    +0.000 A 
ATOM     18  C   UNL     1      -4.910  12.822  21.966  0.00  0.00    +0.000 A 
ENDBRANCH  11  16
ENDBRANCH   1  11
BRANCH   8  19
ATOM     19  C   UNL     1       2.737   6.989  19.110  0.00  0.00    +0.000 C 
BRANCH  19  20
ATOM     20  O   UNL     1       1.915   5.905  18.674  0.00  0.00    +0.000 OA
BRANCH  20  21
ATOM     21  C   UNL     1       1.950   4.764  19.433  0.00  0.00    +0.000 A 
ATOM     22  C   UNL     1       1.166   4.515  20.562  0.00  0.00    +0.000 A 
ATOM     23  C   UNL     1       1.330   3.333  21.290  0.00  0.00    +0.000 A 
ATOM     24  C   UNL     1       2.271   2.385  20.893  0.00  0.00    +0.000 A 
ATOM     25  C   UNL     1       3.040   2.610  19.747  0.00  0.00    +0.000 A 
ATOM     26  C   UNL     1       2.884   3.806  19.027  0.00  0.00    +0.000 A 
BRANCH  25  27
ATOM     27  C   UNL     1       4.077   1.649  19.294  0.00  0.00    +0.000 C 
ATOM     28  O   UNL     1       3.983   1.015  18.260  0.00  0.00    +0.000 OA
BRANCH  27  29
ATOM     29  O   UNL     1       5.126   1.525  20.138  0.00  0.00    +0.000 OA
ATOM     30  H   UNL     1       5.768   2.258  20.117  0.00  0.00    +0.000 HD
ENDBRANCH  27  29
ENDBRANCH  25  27
ENDBRANCH  20  21
ENDBRANCH  19  20
ENDBRANCH   8  19
TORSDOF 7
ENDMDL
MODEL 9
REMARK VINA RESULT:      -7.7      2.117      9.078
REMARK  Name = 
REMARK  9 active torsions:
REMARK  status: ('A' for Active; 'I' for Inactive)
REMARK    1  A    between atoms: C_1  and  C_2
REMARK    2  A    between atoms: C_5  and  O_6
REMARK    3  A    between atoms: O_6  and  C_7
REMARK    4  A    between atoms: C_14  and  C_15
REMARK    5  A    between atoms: C_15  and  O_16
REMARK    6  A    between atoms: O_16  and  C_17
REMARK    7  A    between atoms: C_21  and  C_22
REMARK    8  A    between atoms: C_22  and  O_24
REMARK    9  A    between atoms: N_26  and  C_27
REMARK                            x       y       z     vdW  Elec       q    Type
REMARK                         _______ _______ _______ _____ _____    ______ ____
ROOT
ATOM      1  C   UNL     1       1.211   9.792  19.226  0.00  0.00    +0.000 A 
ATOM      2  C   UNL     1       1.209   8.639  20.005  0.00  0.00    +0.000 A 
ATOM      3  C   UNL     1       1.931   7.568  19.468  0.00  0.00    +0.000 A 
ATOM      4  C   UNL     1       2.603   7.669  18.253  0.00  0.00    +0.000 A 
ATOM      5  C   UNL     1       2.587   8.884  17.568  0.00  0.00    +0.000 A 
ATOM      6  N   UNL     1       1.904   9.942  18.071  0.00  0.00    +0.000 NA
ATOM      7  N   UNL     1       3.188   6.475  17.918  0.00  0.00    +0.000 NA
ATOM      8  C   UNL     1       2.930   5.646  18.913  0.00  0.00    +0.000 A 
ATOM      9  N   UNL     1       2.171   6.274  19.880  0.00  0.00    +0.000 N 
ATOM     10  C   UNL     1       1.680   5.712  21.115  0.00  0.00    +0.000 C 
ENDROOT
BRANCH   1  11
ATOM     11  O   UNL     1       0.425  10.851  19.680  0.00  0.00    +0.000 OA
BRANCH  11  16
ATOM     12  C   UNL     1      -4.740  11.198  17.321  0.00  0.00    +0.000 C 
ATOM     13  C   UNL     1      -3.371  11.144  17.930  0.00  0.00    +0.000 A 
ATOM     14  C   UNL     1      -3.058  11.942  19.034  0.00  0.00    +0.000 A 
ATOM     15  C   UNL     1      -1.791  11.879  19.613  0.00  0.00    +0.000 A 
ATOM     16  C   UNL     1      -0.834  10.983  19.128  0.00  0.00    +0.000 A 
ATOM     17  C   UNL     1      -1.122  10.216  17.999  0.00  0.00    +0.000 A 
ATOM     18  C   UNL     1      -2.388  10.295  17.404  0.00  0.00    +0.000 A 
ENDBRANCH  11  16
ENDBRANCH   1  11
BRANCH   8  19
ATOM     19  C   UNL     1       3.367   4.215  18.957  0.00  0.00    +0.000 C 
BRANCH  19  20
ATOM     20  O   UNL     1       3.747   3.846  17.631  0.00  0.00    +0.000 OA
BRANCH  20  21
ATOM     21  C   UNL     1       5.043   4.105  17.269  0.00  0.00    +0.000 A 
ATOM     22  C   UNL     1       6.098   4.359  18.150  0.00  0.00    +0.000 A 
ATOM     23  C   UNL     1       7.370   4.666  17.660  0.00  0.00    +0.000 A 
ATOM     24  C   UNL     1       7.604   4.714  16.287  0.00  0.00    +0.000 A 
ATOM     25  C   UNL     1       6.563   4.431  15.396  0.00  0.00    +0.000 A 
ATOM     26  C   UNL     1       5.283   4.138  15.892  0.00  0.00    +0.000 A 
BRANCH  25  27
ATOM     27  C   UNL     1       6.748   4.495  13.925  0.00  0.00    +0.000 C 
ATOM     28  O   UNL     1       6.157   3.763  13.152  0.00  0.00    +0.000 OA
BRANCH  27  29
ATOM     29  O   UNL     1       7.643   5.423  13.517  0.00  0.00    +0.000 OA
ATOM     30  H   UNL     1       8.495   5.417  13.989  0.00  0.00    +0.000 HD
ENDBRANCH  27  29
ENDBRANCH  25  27
ENDBRANCH  20  21
ENDBRANCH  19  20
ENDBRANCH   8  19
TORSDOF 7
ENDMDL
