MODEL 1
REMARK VINA RESULT:      -9.0      0.000      0.000
REMARK  Name = 
REMARK  10 active torsions:
REMARK  status: ('A' for Active; 'I' for Inactive)
REMARK    1  A    between atoms: C_1  and  N_2
REMARK    2  A    between atoms: C_4  and  C_5
REMARK    3  A    between atoms: C_9  and  C_10
REMARK    4  A    between atoms: C_10  and  C_12
REMARK    5  A    between atoms: C_12  and  N_13
REMARK    6  A    between atoms: C_12  and  C_24
REMARK    7  A    between atoms: N_13  and  C_14
REMARK    8  A    between atoms: C_14  and  C_15
REMARK    9  A    between atoms: C_15  and  C_16
REMARK   10  A    between atoms: C_19  and  C_20
REMARK                            x       y       z     vdW  Elec       q    Type
REMARK                         _______ _______ _______ _____ _____    ______ ____
ROOT
ATOM      1  C   UNL     1       6.278   6.117  16.588  0.00  0.00    +0.000 C 
ENDROOT
BRANCH   1   2
ATOM      2  C   UNL     1       6.316   5.299  15.294  0.00  0.00    +0.000 A 
ATOM      3  C   UNL     1       7.406   5.392  14.413  0.00  0.00    +0.000 A 
ATOM      4  C   UNL     1       7.426   4.655  13.223  0.00  0.00    +0.000 A 
ATOM      5  C   UNL     1       6.361   3.818  12.899  0.00  0.00    +0.000 A 
ATOM      6  C   UNL     1       5.279   3.705  13.767  0.00  0.00    +0.000 A 
ATOM      7  C   UNL     1       5.261   4.432  14.958  0.00  0.00    +0.000 A 
ENDBRANCH   1   2
BRANCH   1   8
ATOM      8  C   UNL     1       6.023   5.178  17.803  0.00  0.00    +0.000 C 
ATOM      9  O   UNL     1       6.818   4.286  18.119  0.00  0.00    +0.000 OA
BRANCH   8  14
ATOM     10  C   UNL     1       1.837   8.367  18.934  0.00  0.00    +0.000 A 
ATOM     11  C   UNL     1       2.619   8.439  17.771  0.00  0.00    +0.000 A 
ATOM     12  C   UNL     1       3.620   7.490  17.503  0.00  0.00    +0.000 A 
ATOM     13  C   UNL     1       3.841   6.449  18.424  0.00  0.00    +0.000 A 
ATOM     14  C   UNL     1       4.808   5.408  18.607  0.00  0.00    +0.000 A 
ATOM     15  N   UNL     1       4.473   4.619  19.646  0.00  0.00    +0.000 NA
ATOM     16  N   UNL     1       3.377   5.200  20.160  0.00  0.00    +0.000 N 
ATOM     17  C   UNL     1       2.980   6.331  19.506  0.00  0.00    +0.000 A 
ATOM     18  C   UNL     1       1.973   7.261  19.792  0.00  0.00    +0.000 A 
ATOM     19  H   UNL     1       2.953   4.788  20.984  0.00  0.00    +0.000 HD
BRANCH  10  23
ATOM     20  C   UNL     1      -0.916  11.484  21.646  0.00  0.00    +0.000 C 
ATOM     21  N   UNL     1      -0.289  10.802  20.539  0.00  0.00    +0.000 N 
ATOM     22  C   UNL     1       0.709   9.872  20.607  0.00  0.00    +0.000 A 
ATOM     23  C   UNL     1       0.939   9.450  19.312  0.00  0.00    +0.000 A 
ATOM     24  C   UNL     1       0.017  10.201  18.547  0.00  0.00    +0.000 A 
ATOM     25  N   UNL     1      -0.727  11.026  19.288  0.00  0.00    +0.000 NA
ENDBRANCH  10  23
ENDBRANCH   8  14
ENDBRANCH   1   8
BRANCH   1  26
ATOM     26  N   UNL     1       7.558   6.875  16.729  0.00  0.00    +0.000 NA
ATOM     27  H   UNL     1       7.881   7.074  15.780  0.00  0.00    +0.000 HD
BRANCH  26  28
ATOM     28  C   UNL     1       7.437   8.153  17.445  0.00  0.00    +0.000 C 
BRANCH  28  29
ATOM     29  C   UNL     1       8.500   8.392  18.529  0.00  0.00    +0.000 C 
BRANCH  29  30
ATOM     30  C   UNL     1       8.858   9.847  18.681  0.00  0.00    +0.000 A 
ATOM     31  C   UNL     1       9.526  10.288  19.832  0.00  0.00    +0.000 A 
ATOM     32  C   UNL     1       9.847  11.640  19.984  0.00  0.00    +0.000 A 
ATOM     33  C   UNL     1       9.504  12.552  18.989  0.00  0.00    +0.000 A 
ATOM     34  C   UNL     1       8.855  12.114  17.829  0.00  0.00    +0.000 A 
ATOM     35  C   UNL     1       8.532  10.765  17.678  0.00  0.00    +0.000 A 
BRANCH  33  36
ATOM     36  C   UNL     1       9.809  13.941  19.156  0.00  0.00    +0.000 C 
ATOM     37  N   UNL     1      10.052  15.068  19.282  0.00  0.00    +0.000 NA
ENDBRANCH  33  36
ENDBRANCH  29  30
ENDBRANCH  28  29
ENDBRANCH  26  28
ENDBRANCH   1  26
TORSDOF 9
ENDMDL
MODEL 2
REMARK VINA RESULT:      -8.7      3.751      6.146
REMARK  Name = 
REMARK  10 active torsions:
REMARK  status: ('A' for Active; 'I' for Inactive)
REMARK    1  A    between atoms: C_1  and  N_2
REMARK    2  A    between atoms: C_4  and  C_5
REMARK    3  A    between atoms: C_9  and  C_10
REMARK    4  A    between atoms: C_10  and  C_12
REMARK    5  A    between atoms: C_12  and  N_13
REMARK    6  A    between atoms: C_12  and  C_24
REMARK    7  A    between atoms: N_13  and  C_14
REMARK    8  A    between atoms: C_14  and  C_15
REMARK    9  A    between atoms: C_15  and  C_16
REMARK   10  A    between atoms: C_19  and  C_20
REMARK                            x       y       z     vdW  Elec       q    Type
REMARK                         _______ _______ _______ _____ _____    ______ ____
ROOT
ATOM      1  C   UNL     1       3.715   5.695  19.119  0.00  0.00    +0.000 C 
ENDROOT
BRANCH   1   2
ATOM      2  C   UNL     1       3.505   4.249  18.661  0.00  0.00    +0.000 A 
ATOM      3  C   UNL     1       2.842   3.963  17.457  0.00  0.00    +0.000 A 
ATOM      4  C   UNL     1       2.637   2.638  17.053  0.00  0.00    +0.000 A 
ATOM      5  C   UNL     1       3.090   1.586  17.845  0.00  0.00    +0.000 A 
ATOM      6  C   UNL     1       3.761   1.853  19.035  0.00  0.00    +0.000 A 
ATOM      7  C   UNL     1       3.974   3.172  19.435  0.00  0.00    +0.000 A 
ENDBRANCH   1   2
BRANCH   1   8
ATOM      8  C   UNL     1       2.448   6.204  19.866  0.00  0.00    +0.000 C 
ATOM      9  O   UNL     1       1.840   5.500  20.680  0.00  0.00    +0.000 OA
BRANCH   8  14
ATOM     10  C   UNL     1       0.044  10.652  21.713  0.00  0.00    +0.000 A 
ATOM     11  C   UNL     1       0.547   9.613  22.510  0.00  0.00    +0.000 A 
ATOM     12  C   UNL     1       1.266   8.543  21.950  0.00  0.00    +0.000 A 
ATOM     13  C   UNL     1       1.481   8.516  20.559  0.00  0.00    +0.000 A 
ATOM     14  C   UNL     1       2.004   7.587  19.604  0.00  0.00    +0.000 A 
ATOM     15  N   UNL     1       2.052   8.137  18.374  0.00  0.00    +0.000 NA
ATOM     16  N   UNL     1       1.489   9.345  18.533  0.00  0.00    +0.000 N 
ATOM     17  C   UNL     1       1.075   9.610  19.808  0.00  0.00    +0.000 A 
ATOM     18  C   UNL     1       0.361  10.689  20.344  0.00  0.00    +0.000 A 
ATOM     19  H   UNL     1       1.390   9.943  17.720  0.00  0.00    +0.000 HD
BRANCH  10  23
ATOM     20  C   UNL     1      -3.770  12.773  24.082  0.00  0.00    +0.000 C 
ATOM     21  N   UNL     1      -2.577  12.563  23.296  0.00  0.00    +0.000 N 
ATOM     22  C   UNL     1      -1.887  11.394  23.148  0.00  0.00    +0.000 A 
ATOM     23  C   UNL     1      -0.864  11.653  22.257  0.00  0.00    +0.000 A 
ATOM     24  C   UNL     1      -1.039  13.020  21.936  0.00  0.00    +0.000 A 
ATOM     25  N   UNL     1      -2.075  13.576  22.568  0.00  0.00    +0.000 NA
ENDBRANCH  10  23
ENDBRANCH   8  14
ENDBRANCH   1   8
BRANCH   1  26
ATOM     26  N   UNL     1       4.934   5.766  19.980  0.00  0.00    +0.000 NA
ATOM     27  H   UNL     1       4.826   5.042  20.693  0.00  0.00    +0.000 HD
BRANCH  26  28
ATOM     28  C   UNL     1       6.199   5.521  19.272  0.00  0.00    +0.000 C 
BRANCH  28  29
ATOM     29  C   UNL     1       6.436   6.410  18.040  0.00  0.00    +0.000 C 
BRANCH  29  30
ATOM     30  C   UNL     1       6.244   5.671  16.743  0.00  0.00    +0.000 A 
ATOM     31  C   UNL     1       6.892   4.446  16.531  0.00  0.00    +0.000 A 
ATOM     32  C   UNL     1       6.729   3.763  15.322  0.00  0.00    +0.000 A 
ATOM     33  C   UNL     1       5.919   4.301  14.325  0.00  0.00    +0.000 A 
ATOM     34  C   UNL     1       5.254   5.514  14.538  0.00  0.00    +0.000 A 
ATOM     35  C   UNL     1       5.418   6.197  15.744  0.00  0.00    +0.000 A 
BRANCH  33  36
ATOM     36  C   UNL     1       5.771   3.616  13.076  0.00  0.00    +0.000 C 
ATOM     37  N   UNL     1       5.646   3.068  12.062  0.00  0.00    +0.000 NA
ENDBRANCH  33  36
ENDBRANCH  29  30
ENDBRANCH  28  29
ENDBRANCH  26  28
ENDBRANCH   1  26
TORSDOF 9
ENDMDL
MODEL 3
REMARK VINA RESULT:      -8.6      2.816      5.554
REMARK  Name = 
REMARK  10 active torsions:
REMARK  status: ('A' for Active; 'I' for Inactive)
REMARK    1  A    between atoms: C_1  and  N_2
REMARK    2  A    between atoms: C_4  and  C_5
REMARK    3  A    between atoms: C_9  and  C_10
REMARK    4  A    between atoms: C_10  and  C_12
REMARK    5  A    between atoms: C_12  and  N_13
REMARK    6  A    between atoms: C_12  and  C_24
REMARK    7  A    between atoms: N_13  and  C_14
REMARK    8  A    between atoms: C_14  and  C_15
REMARK    9  A    between atoms: C_15  and  C_16
REMARK   10  A    between atoms: C_19  and  C_20
REMARK                            x       y       z     vdW  Elec       q    Type
REMARK                         _______ _______ _______ _____ _____    ______ ____
ROOT
ATOM      1  C   UNL     1       2.109   5.427  18.356  0.00  0.00    +0.000 C 
ENDROOT
BRANCH   1   2
ATOM      2  C   UNL     1       1.900   4.418  19.489  0.00  0.00    +0.000 A 
ATOM      3  C   UNL     1       2.427   4.652  20.769  0.00  0.00    +0.000 A 
ATOM      4  C   UNL     1       2.248   3.717  21.795  0.00  0.00    +0.000 A 
ATOM      5  C   UNL     1       1.543   2.539  21.556  0.00  0.00    +0.000 A 
ATOM      6  C   UNL     1       1.004   2.298  20.296  0.00  0.00    +0.000 A 
ATOM      7  C   UNL     1       1.174   3.233  19.274  0.00  0.00    +0.000 A 
ENDBRANCH   1   2
BRANCH   1   8
ATOM      8  C   UNL     1       2.881   6.670  18.887  0.00  0.00    +0.000 C 
ATOM      9  O   UNL     1       3.993   6.573  19.418  0.00  0.00    +0.000 OA
BRANCH   8  14
ATOM     10  C   UNL     1      -0.129  10.621  20.962  0.00  0.00    +0.000 A 
ATOM     11  C   UNL     1       0.498   9.607  21.702  0.00  0.00    +0.000 A 
ATOM     12  C   UNL     1       1.363   8.683  21.090  0.00  0.00    +0.000 A 
ATOM     13  C   UNL     1       1.600   8.780  19.706  0.00  0.00    +0.000 A 
ATOM     14  C   UNL     1       2.258   7.995  18.705  0.00  0.00    +0.000 A 
ATOM     15  N   UNL     1       2.250   8.628  17.516  0.00  0.00    +0.000 NA
ATOM     16  N   UNL     1       1.526   9.737  17.739  0.00  0.00    +0.000 N 
ATOM     17  C   UNL     1       1.062   9.858  19.018  0.00  0.00    +0.000 A 
ATOM     18  C   UNL     1       0.201  10.793  19.606  0.00  0.00    +0.000 A 
ATOM     19  H   UNL     1       1.359  10.370  16.965  0.00  0.00    +0.000 HD
BRANCH  10  23
ATOM     20  C   UNL     1      -3.554  12.386  24.094  0.00  0.00    +0.000 C 
ATOM     21  N   UNL     1      -2.699  12.198  22.946  0.00  0.00    +0.000 N 
ATOM     22  C   UNL     1      -1.643  11.338  22.841  0.00  0.00    +0.000 A 
ATOM     23  C   UNL     1      -1.172  11.452  21.548  0.00  0.00    +0.000 A 
ATOM     24  C   UNL     1      -2.026  12.418  20.965  0.00  0.00    +0.000 A 
ATOM     25  N   UNL     1      -2.951  12.875  21.813  0.00  0.00    +0.000 NA
ENDBRANCH  10  23
ENDBRANCH   8  14
ENDBRANCH   1   8
BRANCH   1  26
ATOM     26  N   UNL     1       2.835   4.761  17.232  0.00  0.00    +0.000 NA
ATOM     27  H   UNL     1       3.408   5.484  16.791  0.00  0.00    +0.000 HD
BRANCH  26  28
ATOM     28  C   UNL     1       3.726   3.666  17.642  0.00  0.00    +0.000 C 
BRANCH  28  29
ATOM     29  C   UNL     1       5.098   3.652  16.950  0.00  0.00    +0.000 C 
BRANCH  29  30
ATOM     30  C   UNL     1       5.888   4.910  17.199  0.00  0.00    +0.000 A 
ATOM     31  C   UNL     1       6.886   4.928  18.184  0.00  0.00    +0.000 A 
ATOM     32  C   UNL     1       7.611   6.098  18.428  0.00  0.00    +0.000 A 
ATOM     33  C   UNL     1       7.343   7.249  17.691  0.00  0.00    +0.000 A 
ATOM     34  C   UNL     1       6.362   7.231  16.693  0.00  0.00    +0.000 A 
ATOM     35  C   UNL     1       5.636   6.064  16.449  0.00  0.00    +0.000 A 
BRANCH  33  36
ATOM     36  C   UNL     1       8.067   8.455  17.958  0.00  0.00    +0.000 C 
ATOM     37  N   UNL     1       8.651   9.435  18.166  0.00  0.00    +0.000 NA
ENDBRANCH  33  36
ENDBRANCH  29  30
ENDBRANCH  28  29
ENDBRANCH  26  28
ENDBRANCH   1  26
TORSDOF 9
ENDMDL
MODEL 4
REMARK VINA RESULT:      -8.5      3.729      6.113
REMARK  Name = 
REMARK  10 active torsions:
REMARK  status: ('A' for Active; 'I' for Inactive)
REMARK    1  A    between atoms: C_1  and  N_2
REMARK    2  A    between atoms: C_4  and  C_5
REMARK    3  A    between atoms: C_9  and  C_10
REMARK    4  A    between atoms: C_10  and  C_12
REMARK    5  A    between atoms: C_12  and  N_13
REMARK    6  A    between atoms: C_12  and  C_24
REMARK    7  A    between atoms: N_13  and  C_14
REMARK    8  A    between atoms: C_14  and  C_15
REMARK    9  A    between atoms: C_15  and  C_16
REMARK   10  A    between atoms: C_19  and  C_20
REMARK                            x       y       z     vdW  Elec       q    Type
REMARK                         _______ _______ _______ _____ _____    ______ ____
ROOT
ATOM      1  C   UNL     1       3.867   5.627  19.143  0.00  0.00    +0.000 C 
ENDROOT
BRANCH   1   2
ATOM      2  C   UNL     1       3.593   4.198  18.665  0.00  0.00    +0.000 A 
ATOM      3  C   UNL     1       2.848   3.958  17.499  0.00  0.00    +0.000 A 
ATOM      4  C   UNL     1       2.586   2.649  17.078  0.00  0.00    +0.000 A 
ATOM      5  C   UNL     1       3.062   1.567  17.814  0.00  0.00    +0.000 A 
ATOM      6  C   UNL     1       3.812   1.788  18.965  0.00  0.00    +0.000 A 
ATOM      7  C   UNL     1       4.083   3.092  19.382  0.00  0.00    +0.000 A 
ENDBRANCH   1   2
BRANCH   1   8
ATOM      8  C   UNL     1       2.618   6.188  19.883  0.00  0.00    +0.000 C 
ATOM      9  O   UNL     1       2.056   5.561  20.789  0.00  0.00    +0.000 OA
BRANCH   8  14
ATOM     10  C   UNL     1      -0.149  10.603  21.235  0.00  0.00    +0.000 A 
ATOM     11  C   UNL     1       0.332   9.640  22.136  0.00  0.00    +0.000 A 
ATOM     12  C   UNL     1       1.147   8.579  21.707  0.00  0.00    +0.000 A 
ATOM     13  C   UNL     1       1.484   8.482  20.344  0.00  0.00    +0.000 A 
ATOM     14  C   UNL     1       2.133   7.527  19.497  0.00  0.00    +0.000 A 
ATOM     15  N   UNL     1       2.262   8.006  18.244  0.00  0.00    +0.000 NA
ATOM     16  N   UNL     1       1.630   9.190  18.278  0.00  0.00    +0.000 N 
ATOM     17  C   UNL     1       1.094   9.507  19.494  0.00  0.00    +0.000 A 
ATOM     18  C   UNL     1       0.286  10.577  19.898  0.00  0.00    +0.000 A 
ATOM     19  H   UNL     1       1.575   9.732  17.423  0.00  0.00    +0.000 HD
BRANCH  10  23
ATOM     20  C   UNL     1      -3.334  14.410  21.122  0.00  0.00    +0.000 C 
ATOM     21  N   UNL     1      -2.534  13.291  21.561  0.00  0.00    +0.000 N 
ATOM     22  C   UNL     1      -1.791  12.456  20.778  0.00  0.00    +0.000 A 
ATOM     23  C   UNL     1      -1.147  11.585  21.636  0.00  0.00    +0.000 A 
ATOM     24  C   UNL     1      -1.585  11.993  22.918  0.00  0.00    +0.000 A 
ATOM     25  N   UNL     1      -2.431  13.026  22.875  0.00  0.00    +0.000 NA
ENDBRANCH  10  23
ENDBRANCH   8  14
ENDBRANCH   1   8
BRANCH   1  26
ATOM     26  N   UNL     1       5.078   5.630  20.017  0.00  0.00    +0.000 NA
ATOM     27  H   UNL     1       4.996   4.813  20.626  0.00  0.00    +0.000 HD
BRANCH  26  28
ATOM     28  C   UNL     1       6.355   5.530  19.294  0.00  0.00    +0.000 C 
BRANCH  28  29
ATOM     29  C   UNL     1       6.482   6.453  18.071  0.00  0.00    +0.000 C 
BRANCH  29  30
ATOM     30  C   UNL     1       6.314   5.717  16.768  0.00  0.00    +0.000 A 
ATOM     31  C   UNL     1       5.461   6.228  15.779  0.00  0.00    +0.000 A 
ATOM     32  C   UNL     1       5.291   5.540  14.574  0.00  0.00    +0.000 A 
ATOM     33  C   UNL     1       5.972   4.345  14.354  0.00  0.00    +0.000 A 
ATOM     34  C   UNL     1       6.840   3.842  15.329  0.00  0.00    +0.000 A 
ATOM     35  C   UNL     1       7.009   4.526  16.533  0.00  0.00    +0.000 A 
BRANCH  33  36
ATOM     36  C   UNL     1       5.779   3.627  13.130  0.00  0.00    +0.000 C 
ATOM     37  N   UNL     1       5.628   3.038  12.143  0.00  0.00    +0.000 NA
ENDBRANCH  33  36
ENDBRANCH  29  30
ENDBRANCH  28  29
ENDBRANCH  26  28
ENDBRANCH   1  26
TORSDOF 9
ENDMDL
MODEL 5
REMARK VINA RESULT:      -8.4      5.152     10.478
REMARK  Name = 
REMARK  10 active torsions:
REMARK  status: ('A' for Active; 'I' for Inactive)
REMARK    1  A    between atoms: C_1  and  N_2
REMARK    2  A    between atoms: C_4  and  C_5
REMARK    3  A    between atoms: C_9  and  C_10
REMARK    4  A    between atoms: C_10  and  C_12
REMARK    5  A    between atoms: C_12  and  N_13
REMARK    6  A    between atoms: C_12  and  C_24
REMARK    7  A    between atoms: N_13  and  C_14
REMARK    8  A    between atoms: C_14  and  C_15
REMARK    9  A    between atoms: C_15  and  C_16
REMARK   10  A    between atoms: C_19  and  C_20
REMARK                            x       y       z     vdW  Elec       q    Type
REMARK                         _______ _______ _______ _____ _____    ______ ____
ROOT
ATOM      1  C   UNL     1      -1.299  11.506  22.065  0.00  0.00    +0.000 C 
ENDROOT
BRANCH   1   2
ATOM      2  C   UNL     1      -1.975  12.519  22.995  0.00  0.00    +0.000 A 
ATOM      3  C   UNL     1      -1.320  13.703  23.369  0.00  0.00    +0.000 A 
ATOM      4  C   UNL     1      -1.936  14.615  24.234  0.00  0.00    +0.000 A 
ATOM      5  C   UNL     1      -3.210  14.356  24.735  0.00  0.00    +0.000 A 
ATOM      6  C   UNL     1      -3.877  13.192  24.364  0.00  0.00    +0.000 A 
ATOM      7  C   UNL     1      -3.268  12.286  23.495  0.00  0.00    +0.000 A 
ENDBRANCH   1   2
BRANCH   1   8
ATOM      8  C   UNL     1      -1.133  12.119  20.644  0.00  0.00    +0.000 C 
ATOM      9  O   UNL     1      -0.077  12.650  20.278  0.00  0.00    +0.000 OA
BRANCH   8  14
ATOM     10  C   UNL     1      -3.011  10.390  15.906  0.00  0.00    +0.000 A 
ATOM     11  C   UNL     1      -1.837   9.936  16.526  0.00  0.00    +0.000 A 
ATOM     12  C   UNL     1      -1.483  10.357  17.819  0.00  0.00    +0.000 A 
ATOM     13  C   UNL     1      -2.326  11.254  18.502  0.00  0.00    +0.000 A 
ATOM     14  C   UNL     1      -2.273  12.016  19.713  0.00  0.00    +0.000 A 
ATOM     15  N   UNL     1      -3.435  12.664  19.925  0.00  0.00    +0.000 NA
ATOM     16  N   UNL     1      -4.166  12.392  18.832  0.00  0.00    +0.000 N 
ATOM     17  C   UNL     1      -3.536  11.597  17.917  0.00  0.00    +0.000 A 
ATOM     18  C   UNL     1      -3.913  11.188  16.631  0.00  0.00    +0.000 A 
ATOM     19  H   UNL     1      -5.090  12.802  18.754  0.00  0.00    +0.000 HD
BRANCH  10  23
ATOM     20  C   UNL     1      -5.404   9.590  11.630  0.00  0.00    +0.000 C 
ATOM     21  N   UNL     1      -4.370   9.742  12.626  0.00  0.00    +0.000 N 
ATOM     22  C   UNL     1      -4.520  10.214  13.898  0.00  0.00    +0.000 A 
ATOM     23  C   UNL     1      -3.281  10.115  14.501  0.00  0.00    +0.000 A 
ATOM     24  C   UNL     1      -2.459   9.569  13.487  0.00  0.00    +0.000 A 
ATOM     25  N   UNL     1      -3.116   9.346  12.346  0.00  0.00    +0.000 NA
ENDBRANCH  10  23
ENDBRANCH   8  14
ENDBRANCH   1   8
BRANCH   1  26
ATOM     26  N   UNL     1       0.013  11.099  22.652  0.00  0.00    +0.000 NA
ATOM     27  H   UNL     1       0.038  11.486  23.598  0.00  0.00    +0.000 HD
BRANCH  26  28
ATOM     28  C   UNL     1       0.215   9.646  22.751  0.00  0.00    +0.000 C 
BRANCH  28  29
ATOM     29  C   UNL     1      -0.367   8.830  21.586  0.00  0.00    +0.000 C 
BRANCH  29  30
ATOM     30  C   UNL     1       0.687   8.365  20.616  0.00  0.00    +0.000 A 
ATOM     31  C   UNL     1       1.024   9.160  19.512  0.00  0.00    +0.000 A 
ATOM     32  C   UNL     1       1.991   8.725  18.601  0.00  0.00    +0.000 A 
ATOM     33  C   UNL     1       2.624   7.499  18.792  0.00  0.00    +0.000 A 
ATOM     34  C   UNL     1       2.306   6.711  19.904  0.00  0.00    +0.000 A 
ATOM     35  C   UNL     1       1.339   7.143  20.812  0.00  0.00    +0.000 A 
BRANCH  33  36
ATOM     36  C   UNL     1       3.596   7.041  17.846  0.00  0.00    +0.000 C 
ATOM     37  N   UNL     1       4.385   6.678  17.078  0.00  0.00    +0.000 NA
ENDBRANCH  33  36
ENDBRANCH  29  30
ENDBRANCH  28  29
ENDBRANCH  26  28
ENDBRANCH   1  26
TORSDOF 9
ENDMDL
MODEL 6
REMARK VINA RESULT:      -8.3      5.017     10.806
REMARK  Name = 
REMARK  10 active torsions:
REMARK  status: ('A' for Active; 'I' for Inactive)
REMARK    1  A    between atoms: C_1  and  N_2
REMARK    2  A    between atoms: C_4  and  C_5
REMARK    3  A    between atoms: C_9  and  C_10
REMARK    4  A    between atoms: C_10  and  C_12
REMARK    5  A    between atoms: C_12  and  N_13
REMARK    6  A    between atoms: C_12  and  C_24
REMARK    7  A    between atoms: N_13  and  C_14
REMARK    8  A    between atoms: C_14  and  C_15
REMARK    9  A    between atoms: C_15  and  C_16
REMARK   10  A    between atoms: C_19  and  C_20
REMARK                            x       y       z     vdW  Elec       q    Type
REMARK                         _______ _______ _______ _____ _____    ______ ____
ROOT
ATOM      1  C   UNL     1      -1.393  12.181  19.661  0.00  0.00    +0.000 C 
ENDROOT
BRANCH   1   2
ATOM      2  C   UNL     1      -2.280  11.478  18.629  0.00  0.00    +0.000 A 
ATOM      3  C   UNL     1      -1.747  10.520  17.752  0.00  0.00    +0.000 A 
ATOM      4  C   UNL     1      -2.560   9.895  16.799  0.00  0.00    +0.000 A 
ATOM      5  C   UNL     1      -3.912  10.219  16.710  0.00  0.00    +0.000 A 
ATOM      6  C   UNL     1      -4.458  11.157  17.580  0.00  0.00    +0.000 A 
ATOM      7  C   UNL     1      -3.651  11.775  18.537  0.00  0.00    +0.000 A 
ENDBRANCH   1   2
BRANCH   1   8
ATOM      8  C   UNL     1       0.100  11.814  19.414  0.00  0.00    +0.000 C 
ATOM      9  O   UNL     1       0.867  12.567  18.801  0.00  0.00    +0.000 OA
BRANCH   8  14
ATOM     10  C   UNL     1       2.521   7.086  18.542  0.00  0.00    +0.000 A 
ATOM     11  C   UNL     1       2.551   8.185  17.669  0.00  0.00    +0.000 A 
ATOM     12  C   UNL     1       1.990   9.422  18.030  0.00  0.00    +0.000 A 
ATOM     13  C   UNL     1       1.383   9.556  19.293  0.00  0.00    +0.000 A 
ATOM     14  C   UNL     1       0.598  10.542  19.972  0.00  0.00    +0.000 A 
ATOM     15  N   UNL     1       0.348  10.168  21.242  0.00  0.00    +0.000 NA
ATOM     16  N   UNL     1       0.881   8.938  21.332  0.00  0.00    +0.000 N 
ATOM     17  C   UNL     1       1.467   8.493  20.182  0.00  0.00    +0.000 A 
ATOM     18  C   UNL     1       2.025   7.253  19.847  0.00  0.00    +0.000 A 
ATOM     19  H   UNL     1       0.791   8.436  22.208  0.00  0.00    +0.000 HD
BRANCH  10  23
ATOM     20  C   UNL     1       2.535   2.187  17.736  0.00  0.00    +0.000 C 
ATOM     21  N   UNL     1       2.910   3.581  17.779  0.00  0.00    +0.000 N 
ATOM     22  C   UNL     1       2.121   4.632  18.148  0.00  0.00    +0.000 A 
ATOM     23  C   UNL     1       2.921   5.757  18.101  0.00  0.00    +0.000 A 
ATOM     24  C   UNL     1       4.178   5.257  17.685  0.00  0.00    +0.000 A 
ATOM     25  N   UNL     1       4.173   3.937  17.484  0.00  0.00    +0.000 NA
ENDBRANCH  10  23
ENDBRANCH   8  14
ENDBRANCH   1   8
BRANCH   1  26
ATOM     26  N   UNL     1      -1.623  13.655  19.585  0.00  0.00    +0.000 NA
ATOM     27  H   UNL     1      -2.582  13.780  19.255  0.00  0.00    +0.000 HD
BRANCH  26  28
ATOM     28  C   UNL     1      -1.489  14.361  20.867  0.00  0.00    +0.000 C 
BRANCH  28  29
ATOM     29  C   UNL     1      -2.686  15.247  21.248  0.00  0.00    +0.000 C 
BRANCH  29  30
ATOM     30  C   UNL     1      -3.837  14.458  21.815  0.00  0.00    +0.000 A 
ATOM     31  C   UNL     1      -3.686  13.770  23.027  0.00  0.00    +0.000 A 
ATOM     32  C   UNL     1      -4.746  13.024  23.548  0.00  0.00    +0.000 A 
ATOM     33  C   UNL     1      -5.958  12.966  22.864  0.00  0.00    +0.000 A 
ATOM     34  C   UNL     1      -6.121  13.667  21.664  0.00  0.00    +0.000 A 
ATOM     35  C   UNL     1      -5.062  14.410  21.141  0.00  0.00    +0.000 A 
BRANCH  33  36
ATOM     36  C   UNL     1      -7.037  12.181  23.384  0.00  0.00    +0.000 C 
ATOM     37  N   UNL     1      -7.915  11.548  23.798  0.00  0.00    +0.000 NA
ENDBRANCH  33  36
ENDBRANCH  29  30
ENDBRANCH  28  29
ENDBRANCH  26  28
ENDBRANCH   1  26
TORSDOF 9
ENDMDL
MODEL 7
REMARK VINA RESULT:      -8.2      3.787      6.137
REMARK  Name = 
REMARK  10 active torsions:
REMARK  status: ('A' for Active; 'I' for Inactive)
REMARK    1  A    between atoms: C_1  and  N_2
REMARK    2  A    between atoms: C_4  and  C_5
REMARK    3  A    between atoms: C_9  and  C_10
REMARK    4  A    between atoms: C_10  and  C_12
REMARK    5  A    between atoms: C_12  and  N_13
REMARK    6  A    between atoms: C_12  and  C_24
REMARK    7  A    between atoms: N_13  and  C_14
REMARK    8  A    between atoms: C_14  and  C_15
REMARK    9  A    between atoms: C_15  and  C_16
REMARK   10  A    between atoms: C_19  and  C_20
REMARK                            x       y       z     vdW  Elec       q    Type
REMARK                         _______ _______ _______ _____ _____    ______ ____
ROOT
ATOM      1  C   UNL     1       3.715   5.619  19.090  0.00  0.00    +0.000 C 
ENDROOT
BRANCH   1   2
ATOM      2  C   UNL     1       3.198   4.246  18.652  0.00  0.00    +0.000 A 
ATOM      3  C   UNL     1       4.042   3.124  18.652  0.00  0.00    +0.000 A 
ATOM      4  C   UNL     1       3.569   1.875  18.233  0.00  0.00    +0.000 A 
ATOM      5  C   UNL     1       2.249   1.732  17.810  0.00  0.00    +0.000 A 
ATOM      6  C   UNL     1       1.396   2.831  17.816  0.00  0.00    +0.000 A 
ATOM      7  C   UNL     1       1.864   4.075  18.242  0.00  0.00    +0.000 A 
ENDBRANCH   1   2
BRANCH   1   8
ATOM      8  C   UNL     1       2.602   6.382  19.866  0.00  0.00    +0.000 C 
ATOM      9  O   UNL     1       2.125   5.951  20.922  0.00  0.00    +0.000 OA
BRANCH   8  14
ATOM     10  C   UNL     1      -0.339  10.839  20.547  0.00  0.00    +0.000 A 
ATOM     11  C   UNL     1       0.052   9.962  21.570  0.00  0.00    +0.000 A 
ATOM     12  C   UNL     1       0.919   8.885  21.320  0.00  0.00    +0.000 A 
ATOM     13  C   UNL     1       1.402   8.685  20.013  0.00  0.00    +0.000 A 
ATOM     14  C   UNL     1       2.148   7.677  19.322  0.00  0.00    +0.000 A 
ATOM     15  N   UNL     1       2.406   8.054  18.054  0.00  0.00    +0.000 NA
ATOM     16  N   UNL     1       1.762   9.225  17.923  0.00  0.00    +0.000 N 
ATOM     17  C   UNL     1       1.095   9.630  19.044  0.00  0.00    +0.000 A 
ATOM     18  C   UNL     1       0.237  10.713  19.270  0.00  0.00    +0.000 A 
ATOM     19  H   UNL     1       1.793   9.695  17.025  0.00  0.00    +0.000 HD
BRANCH  10  23
ATOM     20  C   UNL     1      -3.902  13.560  22.681  0.00  0.00    +0.000 C 
ATOM     21  N   UNL     1      -2.975  13.005  21.723  0.00  0.00    +0.000 N 
ATOM     22  C   UNL     1      -1.952  12.139  21.978  0.00  0.00    +0.000 A 
ATOM     23  C   UNL     1      -1.385  11.831  20.757  0.00  0.00    +0.000 A 
ATOM     24  C   UNL     1      -2.154  12.578  19.834  0.00  0.00    +0.000 A 
ATOM     25  N   UNL     1      -3.117  13.296  20.418  0.00  0.00    +0.000 NA
ENDBRANCH  10  23
ENDBRANCH   8  14
ENDBRANCH   1   8
BRANCH   1  26
ATOM     26  N   UNL     1       4.946   5.441  19.917  0.00  0.00    +0.000 NA
ATOM     27  H   UNL     1       4.919   4.483  20.272  0.00  0.00    +0.000 HD
BRANCH  26  28
ATOM     28  C   UNL     1       6.207   5.616  19.182  0.00  0.00    +0.000 C 
BRANCH  28  29
ATOM     29  C   UNL     1       6.117   6.525  17.946  0.00  0.00    +0.000 C 
BRANCH  29  30
ATOM     30  C   UNL     1       6.079   5.750  16.655  0.00  0.00    +0.000 A 
ATOM     31  C   UNL     1       5.320   6.223  15.575  0.00  0.00    +0.000 A 
ATOM     32  C   UNL     1       5.271   5.499  14.381  0.00  0.00    +0.000 A 
ATOM     33  C   UNL     1       5.978   4.305  14.262  0.00  0.00    +0.000 A 
ATOM     34  C   UNL     1       6.753   3.839  15.330  0.00  0.00    +0.000 A 
ATOM     35  C   UNL     1       6.802   4.560  16.523  0.00  0.00    +0.000 A 
BRANCH  33  36
ATOM     36  C   UNL     1       5.907   3.549  13.048  0.00  0.00    +0.000 C 
ATOM     37  N   UNL     1       5.848   2.944  12.060  0.00  0.00    +0.000 NA
ENDBRANCH  33  36
ENDBRANCH  29  30
ENDBRANCH  28  29
ENDBRANCH  26  28
ENDBRANCH   1  26
TORSDOF 9
ENDMDL
MODEL 8
REMARK VINA RESULT:      -8.2      0.847      1.353
REMARK  Name = 
REMARK  10 active torsions:
REMARK  status: ('A' for Active; 'I' for Inactive)
REMARK    1  A    between atoms: C_1  and  N_2
REMARK    2  A    between atoms: C_4  and  C_5
REMARK    3  A    between atoms: C_9  and  C_10
REMARK    4  A    between atoms: C_10  and  C_12
REMARK    5  A    between atoms: C_12  and  N_13
REMARK    6  A    between atoms: C_12  and  C_24
REMARK    7  A    between atoms: N_13  and  C_14
REMARK    8  A    between atoms: C_14  and  C_15
REMARK    9  A    between atoms: C_15  and  C_16
REMARK   10  A    between atoms: C_19  and  C_20
REMARK                            x       y       z     vdW  Elec       q    Type
REMARK                         _______ _______ _______ _____ _____    ______ ____
ROOT
ATOM      1  C   UNL     1       6.324   6.190  16.846  0.00  0.00    +0.000 C 
ENDROOT
BRANCH   1   2
ATOM      2  C   UNL     1       6.331   5.399  15.535  0.00  0.00    +0.000 A 
ATOM      3  C   UNL     1       7.423   5.471  14.655  0.00  0.00    +0.000 A 
ATOM      4  C   UNL     1       7.415   4.761  13.449  0.00  0.00    +0.000 A 
ATOM      5  C   UNL     1       6.319   3.972  13.108  0.00  0.00    +0.000 A 
ATOM      6  C   UNL     1       5.234   3.880  13.974  0.00  0.00    +0.000 A 
ATOM      7  C   UNL     1       5.244   4.581  15.181  0.00  0.00    +0.000 A 
ENDBRANCH   1   2
BRANCH   1   8
ATOM      8  C   UNL     1       5.991   5.242  18.036  0.00  0.00    +0.000 C 
ATOM      9  O   UNL     1       6.755   4.335  18.384  0.00  0.00    +0.000 OA
BRANCH   8  14
ATOM     10  C   UNL     1       1.752   8.440  18.916  0.00  0.00    +0.000 A 
ATOM     11  C   UNL     1       2.589   8.497  17.791  0.00  0.00    +0.000 A 
ATOM     12  C   UNL     1       3.603   7.545  17.586  0.00  0.00    +0.000 A 
ATOM     13  C   UNL     1       3.780   6.518  18.531  0.00  0.00    +0.000 A 
ATOM     14  C   UNL     1       4.738   5.482  18.776  0.00  0.00    +0.000 A 
ATOM     15  N   UNL     1       4.354   4.707  19.810  0.00  0.00    +0.000 NA
ATOM     16  N   UNL     1       3.234   5.294  20.261  0.00  0.00    +0.000 N 
ATOM     17  C   UNL     1       2.868   6.415  19.572  0.00  0.00    +0.000 A 
ATOM     18  C   UNL     1       1.847   7.347  19.795  0.00  0.00    +0.000 A 
ATOM     19  H   UNL     1       2.770   4.892  21.069  0.00  0.00    +0.000 HD
BRANCH  10  23
ATOM     20  C   UNL     1      -1.036  12.529  18.521  0.00  0.00    +0.000 C 
ATOM     21  N   UNL     1      -0.373  11.355  19.036  0.00  0.00    +0.000 N 
ATOM     22  C   UNL     1       0.323  10.425  18.318  0.00  0.00    +0.000 A 
ATOM     23  C   UNL     1       0.836   9.527  19.234  0.00  0.00    +0.000 A 
ATOM     24  C   UNL     1       0.378  10.021  20.479  0.00  0.00    +0.000 A 
ATOM     25  N   UNL     1      -0.360  11.128  20.361  0.00  0.00    +0.000 NA
ENDBRANCH  10  23
ENDBRANCH   8  14
ENDBRANCH   1   8
BRANCH   1  26
ATOM     26  N   UNL     1       7.646   6.861  17.024  0.00  0.00    +0.000 NA
ATOM     27  H   UNL     1       8.010   7.034  16.084  0.00  0.00    +0.000 HD
BRANCH  26  28
ATOM     28  C   UNL     1       7.590   8.148  17.732  0.00  0.00    +0.000 C 
BRANCH  28  29
ATOM     29  C   UNL     1       8.595   9.202  17.242  0.00  0.00    +0.000 C 
BRANCH  29  30
ATOM     30  C   UNL     1       8.853  10.279  18.263  0.00  0.00    +0.000 A 
ATOM     31  C   UNL     1       8.759  11.629  17.898  0.00  0.00    +0.000 A 
ATOM     32  C   UNL     1       9.012  12.631  18.839  0.00  0.00    +0.000 A 
ATOM     33  C   UNL     1       9.359  12.288  20.144  0.00  0.00    +0.000 A 
ATOM     34  C   UNL     1       9.435  10.942  20.519  0.00  0.00    +0.000 A 
ATOM     35  C   UNL     1       9.185   9.941  19.580  0.00  0.00    +0.000 A 
BRANCH  33  36
ATOM     36  C   UNL     1       9.644  13.314  21.102  0.00  0.00    +0.000 C 
ATOM     37  N   UNL     1       9.879  14.149  21.870  0.00  0.00    +0.000 NA
ENDBRANCH  33  36
ENDBRANCH  29  30
ENDBRANCH  28  29
ENDBRANCH  26  28
ENDBRANCH   1  26
TORSDOF 9
ENDMDL
MODEL 9
REMARK VINA RESULT:      -8.2      4.122      6.788
REMARK  Name = 
REMARK  10 active torsions:
REMARK  status: ('A' for Active; 'I' for Inactive)
REMARK    1  A    between atoms: C_1  and  N_2
REMARK    2  A    between atoms: C_4  and  C_5
REMARK    3  A    between atoms: C_9  and  C_10
REMARK    4  A    between atoms: C_10  and  C_12
REMARK    5  A    between atoms: C_12  and  N_13
REMARK    6  A    between atoms: C_12  and  C_24
REMARK    7  A    between atoms: N_13  and  C_14
REMARK    8  A    between atoms: C_14  and  C_15
REMARK    9  A    between atoms: C_15  and  C_16
REMARK   10  A    between atoms: C_19  and  C_20
REMARK                            x       y       z     vdW  Elec       q    Type
REMARK                         _______ _______ _______ _____ _____    ______ ____
ROOT
ATOM      1  C   UNL     1       2.479   6.576  18.509  0.00  0.00    +0.000 C 
ENDROOT
BRANCH   1   2
ATOM      2  C   UNL     1       1.936   5.195  18.889  0.00  0.00    +0.000 A 
ATOM      3  C   UNL     1       1.790   4.187  17.923  0.00  0.00    +0.000 A 
ATOM      4  C   UNL     1       1.275   2.933  18.273  0.00  0.00    +0.000 A 
ATOM      5  C   UNL     1       0.901   2.672  19.589  0.00  0.00    +0.000 A 
ATOM      6  C   UNL     1       1.051   3.657  20.561  0.00  0.00    +0.000 A 
ATOM      7  C   UNL     1       1.571   4.904  20.215  0.00  0.00    +0.000 A 
ENDBRANCH   1   2
BRANCH   1   8
ATOM      8  C   UNL     1       2.055   7.625  19.577  0.00  0.00    +0.000 C 
ATOM      9  O   UNL     1       2.293   7.469  20.780  0.00  0.00    +0.000 OA
BRANCH   8  14
ATOM     10  C   UNL     1      -1.266  11.717  20.677  0.00  0.00    +0.000 A 
ATOM     11  C   UNL     1      -0.641  10.901  21.633  0.00  0.00    +0.000 A 
ATOM     12  C   UNL     1       0.304   9.930  21.261  0.00  0.00    +0.000 A 
ATOM     13  C   UNL     1       0.626   9.774  19.899  0.00  0.00    +0.000 A 
ATOM     14  C   UNL     1       1.384   8.853  19.107  0.00  0.00    +0.000 A 
ATOM     15  N   UNL     1       1.423   9.245  17.819  0.00  0.00    +0.000 NA
ATOM     16  N   UNL     1       0.634  10.332  17.783  0.00  0.00    +0.000 N 
ATOM     17  C   UNL     1       0.083  10.667  18.987  0.00  0.00    +0.000 A 
ATOM     18  C   UNL     1      -0.857  11.646  19.334  0.00  0.00    +0.000 A 
ATOM     19  H   UNL     1       0.489  10.794  16.892  0.00  0.00    +0.000 HD
BRANCH  10  23
ATOM     20  C   UNL     1      -4.386  14.558  23.293  0.00  0.00    +0.000 C 
ATOM     21  N   UNL     1      -3.760  13.818  22.223  0.00  0.00    +0.000 N 
ATOM     22  C   UNL     1      -2.527  13.230  22.245  0.00  0.00    +0.000 A 
ATOM     23  C   UNL     1      -2.382  12.582  21.033  0.00  0.00    +0.000 A 
ATOM     24  C   UNL     1      -3.596  12.854  20.361  0.00  0.00    +0.000 A 
ATOM     25  N   UNL     1      -4.433  13.608  21.079  0.00  0.00    +0.000 NA
ENDBRANCH  10  23
ENDBRANCH   8  14
ENDBRANCH   1   8
BRANCH   1  26
ATOM     26  N   UNL     1       3.964   6.498  18.365  0.00  0.00    +0.000 NA
ATOM     27  H   UNL     1       4.317   7.447  18.504  0.00  0.00    +0.000 HD
BRANCH  26  28
ATOM     28  C   UNL     1       4.628   5.620  19.339  0.00  0.00    +0.000 C 
BRANCH  28  29
ATOM     29  C   UNL     1       6.020   5.121  18.919  0.00  0.00    +0.000 C 
BRANCH  29  30
ATOM     30  C   UNL     1       6.089   4.748  17.461  0.00  0.00    +0.000 A 
ATOM     31  C   UNL     1       7.074   5.312  16.639  0.00  0.00    +0.000 A 
ATOM     32  C   UNL     1       7.132   4.980  15.282  0.00  0.00    +0.000 A 
ATOM     33  C   UNL     1       6.209   4.086  14.746  0.00  0.00    +0.000 A 
ATOM     34  C   UNL     1       5.236   3.505  15.566  0.00  0.00    +0.000 A 
ATOM     35  C   UNL     1       5.176   3.837  16.920  0.00  0.00    +0.000 A 
BRANCH  33  36
ATOM     36  C   UNL     1       6.251   3.765  13.351  0.00  0.00    +0.000 C 
ATOM     37  N   UNL     1       6.277   3.510  12.220  0.00  0.00    +0.000 NA
ENDBRANCH  33  36
ENDBRANCH  29  30
ENDBRANCH  28  29
ENDBRANCH  26  28
ENDBRANCH   1  26
TORSDOF 9
ENDMDL
