MODEL 1
REMARK VINA RESULT:      -7.3      0.000      0.000
REMARK  Name = 
REMARK  5 active torsions:
REMARK  status: ('A' for Active; 'I' for Inactive)
REMARK    1  A    between atoms: C_1  and  C_2
REMARK    2  A    between atoms: C_2  and  C_3
REMARK    3  A    between atoms: C_2  and  C_9
REMARK    4  A    between atoms: C_12  and  O_13
REMARK    5  A    between atoms: C_15  and  O_16
REMARK                            x       y       z     vdW  Elec       q    Type
REMARK                         _______ _______ _______ _____ _____    ______ ____
ROOT
ATOM      1  C   UNL     1       4.025   3.892  18.070  0.00  0.00    +0.000 A 
ATOM      2  C   UNL     1       2.845   4.540  17.662  0.00  0.00    +0.000 A 
ATOM      3  C   UNL     1       1.663   4.421  18.399  0.00  0.00    +0.000 A 
ATOM      4  C   UNL     1       1.650   3.636  19.546  0.00  0.00    +0.000 A 
ATOM      5  C   UNL     1       2.790   2.962  19.961  0.00  0.00    +0.000 A 
ATOM      6  C   UNL     1       3.967   3.090  19.221  0.00  0.00    +0.000 A 
ENDROOT
BRANCH   1   8
ATOM      7  C   UNL     1       4.986   4.178  15.768  0.00  0.00    +0.000 C 
ATOM      8  C   UNL     1       5.314   3.995  17.257  0.00  0.00    +0.000 C 
BRANCH   8   9
ATOM      9  C   UNL     1       6.295   5.062  17.746  0.00  0.00    +0.000 A 
ATOM     10  C   UNL     1       6.480   6.231  17.007  0.00  0.00    +0.000 A 
ATOM     11  C   UNL     1       7.383   7.188  17.468  0.00  0.00    +0.000 A 
ATOM     12  C   UNL     1       8.084   6.955  18.645  0.00  0.00    +0.000 A 
ATOM     13  C   UNL     1       7.857   5.766  19.313  0.00  0.00    +0.000 A 
ATOM     14  N   UNL     1       6.990   4.821  18.891  0.00  0.00    +0.000 NA
ENDBRANCH   8   9
ENDBRANCH   1   8
BRANCH   4  15
ATOM     15  O   UNL     1       0.520   3.497  20.297  0.00  0.00    +0.000 OA
ATOM     16  H   UNL     1      -0.252   3.599  19.714  0.00  0.00    +0.000 HD
ENDBRANCH   4  15
BRANCH   6  17
ATOM     17  O   UNL     1       5.087   2.411  19.614  0.00  0.00    +0.000 OA
ATOM     18  H   UNL     1       4.873   1.901  20.414  0.00  0.00    +0.000 HD
ENDBRANCH   6  17
TORSDOF 4
ENDMDL
MODEL 2
REMARK VINA RESULT:      -6.9      2.495      5.510
REMARK  Name = 
REMARK  5 active torsions:
REMARK  status: ('A' for Active; 'I' for Inactive)
REMARK    1  A    between atoms: C_1  and  C_2
REMARK    2  A    between atoms: C_2  and  C_3
REMARK    3  A    between atoms: C_2  and  C_9
REMARK    4  A    between atoms: C_12  and  O_13
REMARK    5  A    between atoms: C_15  and  O_16
REMARK                            x       y       z     vdW  Elec       q    Type
REMARK                         _______ _______ _______ _____ _____    ______ ____
ROOT
ATOM      1  C   UNL     1       4.733   5.437  17.816  0.00  0.00    +0.000 A 
ATOM      2  C   UNL     1       4.624   6.247  16.671  0.00  0.00    +0.000 A 
ATOM      3  C   UNL     1       5.588   6.202  15.660  0.00  0.00    +0.000 A 
ATOM      4  C   UNL     1       6.681   5.355  15.795  0.00  0.00    +0.000 A 
ATOM      5  C   UNL     1       6.832   4.562  16.925  0.00  0.00    +0.000 A 
ATOM      6  C   UNL     1       5.862   4.610  17.927  0.00  0.00    +0.000 A 
ENDROOT
BRANCH   1   8
ATOM      7  C   UNL     1       2.968   6.849  18.910  0.00  0.00    +0.000 C 
ATOM      8  C   UNL     1       3.697   5.498  18.938  0.00  0.00    +0.000 C 
BRANCH   8   9
ATOM      9  C   UNL     1       2.709   4.332  18.960  0.00  0.00    +0.000 A 
ATOM     10  C   UNL     1       1.662   4.321  19.884  0.00  0.00    +0.000 A 
ATOM     11  C   UNL     1       0.776   3.246  19.891  0.00  0.00    +0.000 A 
ATOM     12  C   UNL     1       0.956   2.205  18.987  0.00  0.00    +0.000 A 
ATOM     13  C   UNL     1       2.025   2.281  18.114  0.00  0.00    +0.000 A 
ATOM     14  N   UNL     1       2.900   3.308  18.084  0.00  0.00    +0.000 NA
ENDBRANCH   8   9
ENDBRANCH   1   8
BRANCH   4  15
ATOM     15  O   UNL     1       7.642   5.276  14.831  0.00  0.00    +0.000 OA
ATOM     16  H   UNL     1       7.384   5.853  14.092  0.00  0.00    +0.000 HD
ENDBRANCH   4  15
BRANCH   6  17
ATOM     17  O   UNL     1       6.017   3.847  19.052  0.00  0.00    +0.000 OA
ATOM     18  H   UNL     1       6.963   3.657  19.167  0.00  0.00    +0.000 HD
ENDBRANCH   6  17
TORSDOF 4
ENDMDL
MODEL 3
REMARK VINA RESULT:      -6.8      2.504      5.333
REMARK  Name = 
REMARK  5 active torsions:
REMARK  status: ('A' for Active; 'I' for Inactive)
REMARK    1  A    between atoms: C_1  and  C_2
REMARK    2  A    between atoms: C_2  and  C_3
REMARK    3  A    between atoms: C_2  and  C_9
REMARK    4  A    between atoms: C_12  and  O_13
REMARK    5  A    between atoms: C_15  and  O_16
REMARK                            x       y       z     vdW  Elec       q    Type
REMARK                         _______ _______ _______ _____ _____    ______ ____
ROOT
ATOM      1  C   UNL     1       4.849   5.655  18.108  0.00  0.00    +0.000 A 
ATOM      2  C   UNL     1       4.546   5.762  16.738  0.00  0.00    +0.000 A 
ATOM      3  C   UNL     1       5.510   5.493  15.762  0.00  0.00    +0.000 A 
ATOM      4  C   UNL     1       6.794   5.131  16.151  0.00  0.00    +0.000 A 
ATOM      5  C   UNL     1       7.132   5.044  17.494  0.00  0.00    +0.000 A 
ATOM      6  C   UNL     1       6.162   5.309  18.462  0.00  0.00    +0.000 A 
ENDROOT
BRANCH   1   8
ATOM      7  C   UNL     1       2.842   7.053  18.679  0.00  0.00    +0.000 C 
ATOM      8  C   UNL     1       3.809   5.971  19.182  0.00  0.00    +0.000 C 
BRANCH   8   9
ATOM      9  C   UNL     1       3.054   4.754  19.719  0.00  0.00    +0.000 A 
ATOM     10  C   UNL     1       1.716   4.875  20.097  0.00  0.00    +0.000 A 
ATOM     11  C   UNL     1       1.048   3.755  20.589  0.00  0.00    +0.000 A 
ATOM     12  C   UNL     1       1.727   2.547  20.700  0.00  0.00    +0.000 A 
ATOM     13  C   UNL     1       3.056   2.512  20.319  0.00  0.00    +0.000 A 
ATOM     14  N   UNL     1       3.729   3.579  19.840  0.00  0.00    +0.000 NA
ENDBRANCH   8   9
ENDBRANCH   1   8
BRANCH   4  15
ATOM     15  O   UNL     1       7.762   4.857  15.232  0.00  0.00    +0.000 OA
ATOM     16  H   UNL     1       8.508   4.432  15.687  0.00  0.00    +0.000 HD
ENDBRANCH   4  15
BRANCH   6  17
ATOM     17  O   UNL     1       6.497   5.244  19.787  0.00  0.00    +0.000 OA
ATOM     18  H   UNL     1       7.420   5.534  19.886  0.00  0.00    +0.000 HD
ENDBRANCH   6  17
TORSDOF 4
ENDMDL
MODEL 4
REMARK VINA RESULT:      -6.8      1.039      1.215
REMARK  Name = 
REMARK  5 active torsions:
REMARK  status: ('A' for Active; 'I' for Inactive)
REMARK    1  A    between atoms: C_1  and  C_2
REMARK    2  A    between atoms: C_2  and  C_3
REMARK    3  A    between atoms: C_2  and  C_9
REMARK    4  A    between atoms: C_12  and  O_13
REMARK    5  A    between atoms: C_15  and  O_16
REMARK                            x       y       z     vdW  Elec       q    Type
REMARK                         _______ _______ _______ _____ _____    ______ ____
ROOT
ATOM      1  C   UNL     1       3.806   3.580  19.061  0.00  0.00    +0.000 A 
ATOM      2  C   UNL     1       2.610   4.301  19.230  0.00  0.00    +0.000 A 
ATOM      3  C   UNL     1       1.771   4.062  20.322  0.00  0.00    +0.000 A 
ATOM      4  C   UNL     1       2.114   3.083  21.247  0.00  0.00    +0.000 A 
ATOM      5  C   UNL     1       3.273   2.335  21.093  0.00  0.00    +0.000 A 
ATOM      6  C   UNL     1       4.108   2.584  20.003  0.00  0.00    +0.000 A 
ENDROOT
BRANCH   1   8
ATOM      7  C   UNL     1       3.877   4.155  16.617  0.00  0.00    +0.000 C 
ATOM      8  C   UNL     1       4.717   3.817  17.857  0.00  0.00    +0.000 C 
BRANCH   8   9
ATOM      9  C   UNL     1       5.818   4.854  18.084  0.00  0.00    +0.000 A 
ATOM     10  C   UNL     1       6.023   5.870  17.148  0.00  0.00    +0.000 A 
ATOM     11  C   UNL     1       7.035   6.801  17.371  0.00  0.00    +0.000 A 
ATOM     12  C   UNL     1       7.823   6.696  18.511  0.00  0.00    +0.000 A 
ATOM     13  C   UNL     1       7.568   5.654  19.383  0.00  0.00    +0.000 A 
ATOM     14  N   UNL     1       6.596   4.736  19.194  0.00  0.00    +0.000 NA
ENDBRANCH   8   9
ENDBRANCH   1   8
BRANCH   4  15
ATOM     15  O   UNL     1       1.326   2.820  22.328  0.00  0.00    +0.000 OA
ATOM     16  H   UNL     1       1.195   1.859  22.388  0.00  0.00    +0.000 HD
ENDBRANCH   4  15
BRANCH   6  17
ATOM     17  O   UNL     1       5.241   1.835  19.836  0.00  0.00    +0.000 OA
ATOM     18  H   UNL     1       5.964   2.426  19.567  0.00  0.00    +0.000 HD
ENDBRANCH   6  17
TORSDOF 4
ENDMDL
MODEL 5
REMARK VINA RESULT:      -6.8      2.048      2.962
REMARK  Name = 
REMARK  5 active torsions:
REMARK  status: ('A' for Active; 'I' for Inactive)
REMARK    1  A    between atoms: C_1  and  C_2
REMARK    2  A    between atoms: C_2  and  C_3
REMARK    3  A    between atoms: C_2  and  C_9
REMARK    4  A    between atoms: C_12  and  O_13
REMARK    5  A    between atoms: C_15  and  O_16
REMARK                            x       y       z     vdW  Elec       q    Type
REMARK                         _______ _______ _______ _____ _____    ______ ____
ROOT
ATOM      1  C   UNL     1       2.412   5.002  18.922  0.00  0.00    +0.000 A 
ATOM      2  C   UNL     1       2.809   5.222  20.253  0.00  0.00    +0.000 A 
ATOM      3  C   UNL     1       2.345   4.407  21.290  0.00  0.00    +0.000 A 
ATOM      4  C   UNL     1       1.462   3.373  21.003  0.00  0.00    +0.000 A 
ATOM      5  C   UNL     1       1.029   3.146  19.704  0.00  0.00    +0.000 A 
ATOM      6  C   UNL     1       1.502   3.961  18.674  0.00  0.00    +0.000 A 
ENDROOT
BRANCH   1   8
ATOM      7  C   UNL     1       2.737   7.378  18.179  0.00  0.00    +0.000 C 
ATOM      8  C   UNL     1       2.894   5.902  17.786  0.00  0.00    +0.000 C 
BRANCH   8   9
ATOM      9  C   UNL     1       4.310   5.604  17.291  0.00  0.00    +0.000 A 
ATOM     10  C   UNL     1       4.592   4.383  16.677  0.00  0.00    +0.000 A 
ATOM     11  C   UNL     1       5.890   4.129  16.238  0.00  0.00    +0.000 A 
ATOM     12  C   UNL     1       6.876   5.090  16.428  0.00  0.00    +0.000 A 
ATOM     13  C   UNL     1       6.523   6.269  17.059  0.00  0.00    +0.000 A 
ATOM     14  N   UNL     1       5.275   6.542  17.494  0.00  0.00    +0.000 NA
ENDBRANCH   8   9
ENDBRANCH   1   8
BRANCH   4  15
ATOM     15  O   UNL     1       0.988   2.552  21.984  0.00  0.00    +0.000 OA
ATOM     16  H   UNL     1       1.677   2.454  22.663  0.00  0.00    +0.000 HD
ENDBRANCH   4  15
BRANCH   6  17
ATOM     17  O   UNL     1       1.062   3.755  17.396  0.00  0.00    +0.000 OA
ATOM     18  H   UNL     1       0.809   4.613  17.015  0.00  0.00    +0.000 HD
ENDBRANCH   6  17
TORSDOF 4
ENDMDL
MODEL 6
REMARK VINA RESULT:      -6.8      2.131      2.960
REMARK  Name = 
REMARK  5 active torsions:
REMARK  status: ('A' for Active; 'I' for Inactive)
REMARK    1  A    between atoms: C_1  and  C_2
REMARK    2  A    between atoms: C_2  and  C_3
REMARK    3  A    between atoms: C_2  and  C_9
REMARK    4  A    between atoms: C_12  and  O_13
REMARK    5  A    between atoms: C_15  and  O_16
REMARK                            x       y       z     vdW  Elec       q    Type
REMARK                         _______ _______ _______ _____ _____    ______ ____
ROOT
ATOM      1  C   UNL     1       2.370   4.810  19.037  0.00  0.00    +0.000 A 
ATOM      2  C   UNL     1       2.655   5.184  20.363  0.00  0.00    +0.000 A 
ATOM      3  C   UNL     1       2.292   4.367  21.438  0.00  0.00    +0.000 A 
ATOM      4  C   UNL     1       1.624   3.173  21.194  0.00  0.00    +0.000 A 
ATOM      5  C   UNL     1       1.305   2.788  19.899  0.00  0.00    +0.000 A 
ATOM      6  C   UNL     1       1.675   3.608  18.832  0.00  0.00    +0.000 A 
ENDROOT
BRANCH   1   8
ATOM      7  C   UNL     1       2.557   7.184  18.241  0.00  0.00    +0.000 C 
ATOM      8  C   UNL     1       2.740   5.708  17.858  0.00  0.00    +0.000 C 
BRANCH   8   9
ATOM      9  C   UNL     1       4.129   5.452  17.271  0.00  0.00    +0.000 A 
ATOM     10  C   UNL     1       5.106   6.447  17.332  0.00  0.00    +0.000 A 
ATOM     11  C   UNL     1       6.364   6.196  16.786  0.00  0.00    +0.000 A 
ATOM     12  C   UNL     1       6.616   4.967  16.186  0.00  0.00    +0.000 A 
ATOM     13  C   UNL     1       5.592   4.038  16.152  0.00  0.00    +0.000 A 
ATOM     14  N   UNL     1       4.365   4.253  16.671  0.00  0.00    +0.000 NA
ENDBRANCH   8   9
ENDBRANCH   1   8
BRANCH   4  15
ATOM     15  O   UNL     1       1.256   2.345  22.213  0.00  0.00    +0.000 OA
ATOM     16  H   UNL     1       0.723   2.854  22.846  0.00  0.00    +0.000 HD
ENDBRANCH   4  15
BRANCH   6  17
ATOM     17  O   UNL     1       1.343   3.243  17.556  0.00  0.00    +0.000 OA
ATOM     18  H   UNL     1       1.598   2.314  17.425  0.00  0.00    +0.000 HD
ENDBRANCH   6  17
TORSDOF 4
ENDMDL
MODEL 7
REMARK VINA RESULT:      -6.7      0.825      1.243
REMARK  Name = 
REMARK  5 active torsions:
REMARK  status: ('A' for Active; 'I' for Inactive)
REMARK    1  A    between atoms: C_1  and  C_2
REMARK    2  A    between atoms: C_2  and  C_3
REMARK    3  A    between atoms: C_2  and  C_9
REMARK    4  A    between atoms: C_12  and  O_13
REMARK    5  A    between atoms: C_15  and  O_16
REMARK                            x       y       z     vdW  Elec       q    Type
REMARK                         _______ _______ _______ _____ _____    ______ ____
ROOT
ATOM      1  C   UNL     1       4.119   4.070  17.928  0.00  0.00    +0.000 A 
ATOM      2  C   UNL     1       2.947   4.754  17.557  0.00  0.00    +0.000 A 
ATOM      3  C   UNL     1       1.771   4.630  18.303  0.00  0.00    +0.000 A 
ATOM      4  C   UNL     1       1.755   3.805  19.420  0.00  0.00    +0.000 A 
ATOM      5  C   UNL     1       2.886   3.095  19.798  0.00  0.00    +0.000 A 
ATOM      6  C   UNL     1       4.057   3.229  19.050  0.00  0.00    +0.000 A 
ENDROOT
BRANCH   1   8
ATOM      7  C   UNL     1       5.064   4.225  15.607  0.00  0.00    +0.000 C 
ATOM      8  C   UNL     1       5.401   4.179  17.104  0.00  0.00    +0.000 C 
BRANCH   8   9
ATOM      9  C   UNL     1       6.321   5.334  17.504  0.00  0.00    +0.000 A 
ATOM     10  C   UNL     1       7.178   5.197  18.596  0.00  0.00    +0.000 A 
ATOM     11  C   UNL     1       8.004   6.263  18.947  0.00  0.00    +0.000 A 
ATOM     12  C   UNL     1       7.952   7.440  18.210  0.00  0.00    +0.000 A 
ATOM     13  C   UNL     1       7.066   7.505  17.150  0.00  0.00    +0.000 A 
ATOM     14  N   UNL     1       6.253   6.489  16.788  0.00  0.00    +0.000 NA
ENDBRANCH   8   9
ENDBRANCH   1   8
BRANCH   4  15
ATOM     15  O   UNL     1       0.631   3.659  20.178  0.00  0.00    +0.000 OA
ATOM     16  H   UNL     1       0.699   2.826  20.674  0.00  0.00    +0.000 HD
ENDBRANCH   4  15
BRANCH   6  17
ATOM     17  O   UNL     1       5.169   2.515  19.405  0.00  0.00    +0.000 OA
ATOM     18  H   UNL     1       5.434   1.962  18.650  0.00  0.00    +0.000 HD
ENDBRANCH   6  17
TORSDOF 4
ENDMDL
MODEL 8
REMARK VINA RESULT:      -6.7      2.472      5.386
REMARK  Name = 
REMARK  5 active torsions:
REMARK  status: ('A' for Active; 'I' for Inactive)
REMARK    1  A    between atoms: C_1  and  C_2
REMARK    2  A    between atoms: C_2  and  C_3
REMARK    3  A    between atoms: C_2  and  C_9
REMARK    4  A    between atoms: C_12  and  O_13
REMARK    5  A    between atoms: C_15  and  O_16
REMARK                            x       y       z     vdW  Elec       q    Type
REMARK                         _______ _______ _______ _____ _____    ______ ____
ROOT
ATOM      1  C   UNL     1       4.569   5.776  17.932  0.00  0.00    +0.000 A 
ATOM      2  C   UNL     1       4.543   6.461  16.704  0.00  0.00    +0.000 A 
ATOM      3  C   UNL     1       5.545   6.269  15.748  0.00  0.00    +0.000 A 
ATOM      4  C   UNL     1       6.593   5.399  16.022  0.00  0.00    +0.000 A 
ATOM      5  C   UNL     1       6.663   4.728  17.235  0.00  0.00    +0.000 A 
ATOM      6  C   UNL     1       5.656   4.922  18.182  0.00  0.00    +0.000 A 
ENDROOT
BRANCH   1   8
ATOM      7  C   UNL     1       2.626   7.209  18.620  0.00  0.00    +0.000 C 
ATOM      8  C   UNL     1       3.493   5.998  18.993  0.00  0.00    +0.000 C 
BRANCH   8   9
ATOM      9  C   UNL     1       2.634   4.770  19.300  0.00  0.00    +0.000 A 
ATOM     10  C   UNL     1       1.865   4.188  18.292  0.00  0.00    +0.000 A 
ATOM     11  C   UNL     1       1.085   3.073  18.593  0.00  0.00    +0.000 A 
ATOM     12  C   UNL     1       1.082   2.571  19.889  0.00  0.00    +0.000 A 
ATOM     13  C   UNL     1       1.858   3.212  20.837  0.00  0.00    +0.000 A 
ATOM     14  N   UNL     1       2.623   4.294  20.574  0.00  0.00    +0.000 NA
ENDBRANCH   8   9
ENDBRANCH   1   8
BRANCH   4  15
ATOM     15  O   UNL     1       7.588   5.179  15.115  0.00  0.00    +0.000 OA
ATOM     16  H   UNL     1       8.442   5.242  15.574  0.00  0.00    +0.000 HD
ENDBRANCH   4  15
BRANCH   6  17
ATOM     17  O   UNL     1       5.732   4.279  19.387  0.00  0.00    +0.000 OA
ATOM     18  H   UNL     1       6.595   3.835  19.445  0.00  0.00    +0.000 HD
ENDBRANCH   6  17
TORSDOF 4
ENDMDL
MODEL 9
REMARK VINA RESULT:      -6.6      1.688      2.079
REMARK  Name = 
REMARK  5 active torsions:
REMARK  status: ('A' for Active; 'I' for Inactive)
REMARK    1  A    between atoms: C_1  and  C_2
REMARK    2  A    between atoms: C_2  and  C_3
REMARK    3  A    between atoms: C_2  and  C_9
REMARK    4  A    between atoms: C_12  and  O_13
REMARK    5  A    between atoms: C_15  and  O_16
REMARK                            x       y       z     vdW  Elec       q    Type
REMARK                         _______ _______ _______ _____ _____    ______ ____
ROOT
ATOM      1  C   UNL     1       2.875   5.313  18.589  0.00  0.00    +0.000 A 
ATOM      2  C   UNL     1       2.346   5.767  19.811  0.00  0.00    +0.000 A 
ATOM      3  C   UNL     1       1.574   4.929  20.620  0.00  0.00    +0.000 A 
ATOM      4  C   UNL     1       1.310   3.630  20.203  0.00  0.00    +0.000 A 
ATOM      5  C   UNL     1       1.795   3.159  18.991  0.00  0.00    +0.000 A 
ATOM      6  C   UNL     1       2.569   4.002  18.191  0.00  0.00    +0.000 A 
ENDROOT
BRANCH   1   8
ATOM      7  C   UNL     1       3.111   7.647  17.695  0.00  0.00    +0.000 C 
ATOM      8  C   UNL     1       3.699   6.229  17.686  0.00  0.00    +0.000 C 
BRANCH   8   9
ATOM      9  C   UNL     1       5.198   6.245  17.988  0.00  0.00    +0.000 A 
ATOM     10  C   UNL     1       6.065   6.982  17.180  0.00  0.00    +0.000 A 
ATOM     11  C   UNL     1       7.428   6.979  17.469  0.00  0.00    +0.000 A 
ATOM     12  C   UNL     1       7.897   6.239  18.548  0.00  0.00    +0.000 A 
ATOM     13  C   UNL     1       6.978   5.522  19.293  0.00  0.00    +0.000 A 
ATOM     14  N   UNL     1       5.652   5.505  19.036  0.00  0.00    +0.000 NA
ENDBRANCH   8   9
ENDBRANCH   1   8
BRANCH   4  15
ATOM     15  O   UNL     1       0.565   2.778  20.964  0.00  0.00    +0.000 OA
ATOM     16  H   UNL     1       1.031   1.927  21.020  0.00  0.00    +0.000 HD
ENDBRANCH   4  15
BRANCH   6  17
ATOM     17  O   UNL     1       3.031   3.549  16.985  0.00  0.00    +0.000 OA
ATOM     18  H   UNL     1       3.823   3.008  17.143  0.00  0.00    +0.000 HD
ENDBRANCH   6  17
TORSDOF 4
ENDMDL
