MODEL 1
REMARK VINA RESULT:      -8.9      0.000      0.000
REMARK  Name = 
REMARK  3 active torsions:
REMARK  status: ('A' for Active; 'I' for Inactive)
REMARK    1  A    between atoms: C_2  and  C_3
REMARK    2  A    between atoms: C_6  and  C_7
REMARK    3  A    between atoms: C_8  and  C_9
REMARK                            x       y       z     vdW  Elec       q    Type
REMARK                         _______ _______ _______ _____ _____    ______ ____
ROOT
ATOM      1  C   UNL     1       5.924   5.179  17.420  0.00  0.00    +0.000 A 
ATOM      2  C   UNL     1       7.029   5.076  18.263  0.00  0.00    +0.000 A 
ATOM      3  C   UNL     1       7.825   6.203  18.477  0.00  0.00    +0.000 A 
ATOM      4  C   UNL     1       7.488   7.401  17.853  0.00  0.00    +0.000 A 
ATOM      5  C   UNL     1       6.385   7.406  17.006  0.00  0.00    +0.000 A 
ATOM      6  N   UNL     1       5.594   6.327  16.772  0.00  0.00    +0.000 NA
ENDROOT
BRANCH   1   8
ATOM      7  O   UNL     1       5.099   3.266  16.361  0.00  0.00    +0.000 OA
ATOM      8  C   UNL     1       4.986   4.010  17.340  0.00  0.00    +0.000 C 
ATOM      9  N   UNL     1       4.021   3.779  18.320  0.00  0.00    +0.000 N 
ATOM     10  C   UNL     1       3.289   2.509  18.317  0.00  0.00    +0.000 C 
ATOM     11  C   UNL     1       1.789   2.733  18.523  0.00  0.00    +0.000 C 
ATOM     12  O   UNL     1       1.541   3.504  19.711  0.00  0.00    +0.000 OA
ATOM     13  C   UNL     1       2.181   4.785  19.618  0.00  0.00    +0.000 C 
ATOM     14  C   UNL     1       3.701   4.650  19.455  0.00  0.00    +0.000 C 
ENDBRANCH   1   8
BRANCH   4  15
ATOM     15  C   UNL     1       8.211   8.605  18.138  0.00  0.00    +0.000 C 
ATOM     16  C   UNL     1       8.827   9.588  18.448  0.00  0.00    +0.000 C 
BRANCH  16  17
ATOM     17  C   UNL     1       9.560  10.743  18.877  0.00  0.00    +0.000 A 
ATOM     18  C   UNL     1       9.724  11.006  20.241  0.00  0.00    +0.000 A 
ATOM     19  C   UNL     1      10.415  12.146  20.660  0.00  0.00    +0.000 A 
ATOM     20  C   UNL     1      10.942  13.027  19.716  0.00  0.00    +0.000 A 
ATOM     21  C   UNL     1      10.776  12.762  18.356  0.00  0.00    +0.000 A 
ATOM     22 CL   UNL     1      11.419  13.853  17.191  0.00  0.00    +0.000 Cl
ATOM     23  C   UNL     1      10.089  11.625  17.932  0.00  0.00    +0.000 A 
ENDBRANCH  16  17
ENDBRANCH   4  15
TORSDOF 3
ENDMDL
MODEL 2
REMARK VINA RESULT:      -8.5      1.052      1.426
REMARK  Name = 
REMARK  3 active torsions:
REMARK  status: ('A' for Active; 'I' for Inactive)
REMARK    1  A    between atoms: C_2  and  C_3
REMARK    2  A    between atoms: C_6  and  C_7
REMARK    3  A    between atoms: C_8  and  C_9
REMARK                            x       y       z     vdW  Elec       q    Type
REMARK                         _______ _______ _______ _____ _____    ______ ____
ROOT
ATOM      1  C   UNL     1       6.050   5.298  17.401  0.00  0.00    +0.000 A 
ATOM      2  C   UNL     1       7.100   5.160  18.307  0.00  0.00    +0.000 A 
ATOM      3  C   UNL     1       7.903   6.266  18.587  0.00  0.00    +0.000 A 
ATOM      4  C   UNL     1       7.629   7.480  17.964  0.00  0.00    +0.000 A 
ATOM      5  C   UNL     1       6.580   7.521  17.051  0.00  0.00    +0.000 A 
ATOM      6  N   UNL     1       5.783   6.462  16.752  0.00  0.00    +0.000 NA
ENDROOT
BRANCH   1   8
ATOM      7  O   UNL     1       5.236   3.435  16.248  0.00  0.00    +0.000 OA
ATOM      8  C   UNL     1       5.095   4.150  17.245  0.00  0.00    +0.000 C 
ATOM      9  N   UNL     1       4.086   3.908  18.177  0.00  0.00    +0.000 N 
ATOM     10  C   UNL     1       3.332   2.653  18.104  0.00  0.00    +0.000 C 
ATOM     11  C   UNL     1       1.830   2.899  18.255  0.00  0.00    +0.000 C 
ATOM     12  O   UNL     1       1.546   3.637  19.455  0.00  0.00    +0.000 OA
ATOM     13  C   UNL     1       2.212   4.908  19.430  0.00  0.00    +0.000 C 
ATOM     14  C   UNL     1       3.734   4.749  19.324  0.00  0.00    +0.000 C 
ENDBRANCH   1   8
BRANCH   4  15
ATOM     15  C   UNL     1       8.357   8.664  18.311  0.00  0.00    +0.000 C 
ATOM     16  C   UNL     1       8.935   9.691  18.543  0.00  0.00    +0.000 C 
BRANCH  16  17
ATOM     17  C   UNL     1       9.604  10.939  18.766  0.00  0.00    +0.000 A 
ATOM     18  C   UNL     1      10.451  11.468  17.787  0.00  0.00    +0.000 A 
ATOM     19  C   UNL     1      11.125  12.671  18.015  0.00  0.00    +0.000 A 
ATOM     20  C   UNL     1      10.955  13.347  19.223  0.00  0.00    +0.000 A 
ATOM     21  C   UNL     1      10.110  12.816  20.198  0.00  0.00    +0.000 A 
ATOM     22 CL   UNL     1       9.906  13.645  21.692  0.00  0.00    +0.000 Cl
ATOM     23  C   UNL     1       9.433  11.617  19.976  0.00  0.00    +0.000 A 
ENDBRANCH  16  17
ENDBRANCH   4  15
TORSDOF 3
ENDMDL
MODEL 3
REMARK VINA RESULT:      -8.5      0.820      1.152
REMARK  Name = 
REMARK  3 active torsions:
REMARK  status: ('A' for Active; 'I' for Inactive)
REMARK    1  A    between atoms: C_2  and  C_3
REMARK    2  A    between atoms: C_6  and  C_7
REMARK    3  A    between atoms: C_8  and  C_9
REMARK                            x       y       z     vdW  Elec       q    Type
REMARK                         _______ _______ _______ _____ _____    ______ ____
ROOT
ATOM      1  C   UNL     1       5.922   5.210  17.672  0.00  0.00    +0.000 A 
ATOM      2  C   UNL     1       5.562   6.394  17.031  0.00  0.00    +0.000 A 
ATOM      3  C   UNL     1       6.326   7.542  17.251  0.00  0.00    +0.000 A 
ATOM      4  C   UNL     1       7.432   7.472  18.093  0.00  0.00    +0.000 A 
ATOM      5  C   UNL     1       7.701   6.257  18.714  0.00  0.00    +0.000 A 
ATOM      6  N   UNL     1       6.976   5.123  18.527  0.00  0.00    +0.000 NA
ENDROOT
BRANCH   1   8
ATOM      7  O   UNL     1       5.479   3.454  16.195  0.00  0.00    +0.000 OA
ATOM      8  C   UNL     1       5.198   3.952  17.290  0.00  0.00    +0.000 C 
ATOM      9  N   UNL     1       4.241   3.377  18.126  0.00  0.00    +0.000 N 
ATOM     10  C   UNL     1       3.734   2.037  17.816  0.00  0.00    +0.000 C 
ATOM     11  C   UNL     1       2.210   1.978  17.943  0.00  0.00    +0.000 C 
ATOM     12  O   UNL     1       1.782   2.439  19.235  0.00  0.00    +0.000 OA
ATOM     13  C   UNL     1       2.201   3.795  19.447  0.00  0.00    +0.000 C 
ATOM     14  C   UNL     1       3.728   3.934  19.381  0.00  0.00    +0.000 C 
ENDBRANCH   1   8
BRANCH   4  15
ATOM     15  C   UNL     1       8.305   8.597  18.252  0.00  0.00    +0.000 C 
ATOM     16  C   UNL     1       9.009   9.547  18.456  0.00  0.00    +0.000 C 
BRANCH  16  17
ATOM     17  C   UNL     1       9.821  10.691  18.754  0.00  0.00    +0.000 A 
ATOM     18  C   UNL     1      10.026  11.082  20.081  0.00  0.00    +0.000 A 
ATOM     19  C   UNL     1      10.794  12.214  20.371  0.00  0.00    +0.000 A 
ATOM     20  C   UNL     1      11.357  12.958  19.333  0.00  0.00    +0.000 A 
ATOM     21  C   UNL     1      11.150  12.565  18.010  0.00  0.00    +0.000 A 
ATOM     22 CL   UNL     1      11.838  13.487  16.730  0.00  0.00    +0.000 Cl
ATOM     23  C   UNL     1      10.386  11.436  17.716  0.00  0.00    +0.000 A 
ENDBRANCH  16  17
ENDBRANCH   4  15
TORSDOF 3
ENDMDL
MODEL 4
REMARK VINA RESULT:      -8.3      1.178      1.437
REMARK  Name = 
REMARK  3 active torsions:
REMARK  status: ('A' for Active; 'I' for Inactive)
REMARK    1  A    between atoms: C_2  and  C_3
REMARK    2  A    between atoms: C_6  and  C_7
REMARK    3  A    between atoms: C_8  and  C_9
REMARK                            x       y       z     vdW  Elec       q    Type
REMARK                         _______ _______ _______ _____ _____    ______ ____
ROOT
ATOM      1  C   UNL     1       5.539   4.777  17.593  0.00  0.00    +0.000 A 
ATOM      2  C   UNL     1       6.838   4.728  18.094  0.00  0.00    +0.000 A 
ATOM      3  C   UNL     1       7.598   5.899  18.119  0.00  0.00    +0.000 A 
ATOM      4  C   UNL     1       7.036   7.085  17.657  0.00  0.00    +0.000 A 
ATOM      5  C   UNL     1       5.743   7.036  17.147  0.00  0.00    +0.000 A 
ATOM      6  N   UNL     1       4.978   5.914  17.102  0.00  0.00    +0.000 NA
ENDROOT
BRANCH   1   8
ATOM      7  O   UNL     1       4.682   2.757  16.789  0.00  0.00    +0.000 OA
ATOM      8  C   UNL     1       4.681   3.553  17.733  0.00  0.00    +0.000 C 
ATOM      9  N   UNL     1       3.907   3.330  18.872  0.00  0.00    +0.000 N 
ATOM     10  C   UNL     1       3.272   2.022  19.059  0.00  0.00    +0.000 C 
ATOM     11  C   UNL     1       1.815   2.172  19.501  0.00  0.00    +0.000 C 
ATOM     12  O   UNL     1       1.713   3.001  20.671  0.00  0.00    +0.000 OA
ATOM     13  C   UNL     1       2.242   4.308  20.405  0.00  0.00    +0.000 C 
ATOM     14  C   UNL     1       3.720   4.251  19.996  0.00  0.00    +0.000 C 
ENDBRANCH   1   8
BRANCH   4  15
ATOM     15  C   UNL     1       7.743   8.326  17.774  0.00  0.00    +0.000 C 
ATOM     16  C   UNL     1       8.326   9.361  17.947  0.00  0.00    +0.000 C 
BRANCH  16  17
ATOM     17  C   UNL     1       9.006  10.594  18.215  0.00  0.00    +0.000 A 
ATOM     18  C   UNL     1       8.518  11.795  17.690  0.00  0.00    +0.000 A 
ATOM     19  C   UNL     1       9.196  12.994  17.927  0.00  0.00    +0.000 A 
ATOM     20  C   UNL     1      10.366  12.994  18.688  0.00  0.00    +0.000 A 
ATOM     21  C   UNL     1      10.851  11.794  19.209  0.00  0.00    +0.000 A 
ATOM     22 CL   UNL     1      12.297  11.792  20.141  0.00  0.00    +0.000 Cl
ATOM     23  C   UNL     1      10.177  10.595  18.977  0.00  0.00    +0.000 A 
ENDBRANCH  16  17
ENDBRANCH   4  15
TORSDOF 3
ENDMDL
MODEL 5
REMARK VINA RESULT:      -8.2      1.065      1.127
REMARK  Name = 
REMARK  3 active torsions:
REMARK  status: ('A' for Active; 'I' for Inactive)
REMARK    1  A    between atoms: C_2  and  C_3
REMARK    2  A    between atoms: C_6  and  C_7
REMARK    3  A    between atoms: C_8  and  C_9
REMARK                            x       y       z     vdW  Elec       q    Type
REMARK                         _______ _______ _______ _____ _____    ______ ____
ROOT
ATOM      1  C   UNL     1       5.556   5.172  17.745  0.00  0.00    +0.000 A 
ATOM      2  C   UNL     1       6.734   5.088  18.484  0.00  0.00    +0.000 A 
ATOM      3  C   UNL     1       7.585   6.194  18.530  0.00  0.00    +0.000 A 
ATOM      4  C   UNL     1       7.229   7.354  17.848  0.00  0.00    +0.000 A 
ATOM      5  C   UNL     1       6.049   7.340  17.112  0.00  0.00    +0.000 A 
ATOM      6  N   UNL     1       5.202   6.280  17.041  0.00  0.00    +0.000 NA
ENDROOT
BRANCH   1   8
ATOM      7  O   UNL     1       4.604   3.190  16.954  0.00  0.00    +0.000 OA
ATOM      8  C   UNL     1       4.575   4.040  17.849  0.00  0.00    +0.000 C 
ATOM      9  N   UNL     1       3.663   3.957  18.901  0.00  0.00    +0.000 N 
ATOM     10  C   UNL     1       2.889   2.726  19.081  0.00  0.00    +0.000 C 
ATOM     11  C   UNL     1       1.413   3.032  19.344  0.00  0.00    +0.000 C 
ATOM     12  O   UNL     1       1.263   3.937  20.450  0.00  0.00    +0.000 OA
ATOM     13  C   UNL     1       1.940   5.173  20.180  0.00  0.00    +0.000 C 
ATOM     14  C   UNL     1       3.442   4.960  19.947  0.00  0.00    +0.000 C 
ENDBRANCH   1   8
BRANCH   4  15
ATOM     15  C   UNL     1       8.017   8.545  17.966  0.00  0.00    +0.000 C 
ATOM     16  C   UNL     1       8.617   9.577  18.094  0.00  0.00    +0.000 C 
BRANCH  16  17
ATOM     17  C   UNL     1       9.279  10.837  18.264  0.00  0.00    +0.000 A 
ATOM     18  C   UNL     1      10.580  10.885  18.775  0.00  0.00    +0.000 A 
ATOM     19  C   UNL     1      11.216  12.115  18.967  0.00  0.00    +0.000 A 
ATOM     20  C   UNL     1      10.551  13.300  18.650  0.00  0.00    +0.000 A 
ATOM     21  C   UNL     1       9.253  13.248  18.140  0.00  0.00    +0.000 A 
ATOM     22 CL   UNL     1       8.430  14.710  17.755  0.00  0.00    +0.000 Cl
ATOM     23  C   UNL     1       8.615  12.024  17.945  0.00  0.00    +0.000 A 
ENDBRANCH  16  17
ENDBRANCH   4  15
TORSDOF 3
ENDMDL
MODEL 6
REMARK VINA RESULT:      -8.2      1.261      1.781
REMARK  Name = 
REMARK  3 active torsions:
REMARK  status: ('A' for Active; 'I' for Inactive)
REMARK    1  A    between atoms: C_2  and  C_3
REMARK    2  A    between atoms: C_6  and  C_7
REMARK    3  A    between atoms: C_8  and  C_9
REMARK                            x       y       z     vdW  Elec       q    Type
REMARK                         _______ _______ _______ _____ _____    ______ ____
ROOT
ATOM      1  C   UNL     1       5.989   5.396  17.603  0.00  0.00    +0.000 A 
ATOM      2  C   UNL     1       5.568   6.590  17.019  0.00  0.00    +0.000 A 
ATOM      3  C   UNL     1       6.316   7.748  17.232  0.00  0.00    +0.000 A 
ATOM      4  C   UNL     1       7.468   7.681  18.011  0.00  0.00    +0.000 A 
ATOM      5  C   UNL     1       7.798   6.454  18.578  0.00  0.00    +0.000 A 
ATOM      6  N   UNL     1       7.089   5.310  18.396  0.00  0.00    +0.000 NA
ENDROOT
BRANCH   1   8
ATOM      7  O   UNL     1       5.548   3.643  16.122  0.00  0.00    +0.000 OA
ATOM      8  C   UNL     1       5.273   4.133  17.222  0.00  0.00    +0.000 C 
ATOM      9  N   UNL     1       4.331   3.544  18.065  0.00  0.00    +0.000 N 
ATOM     10  C   UNL     1       3.834   2.201  17.754  0.00  0.00    +0.000 C 
ATOM     11  C   UNL     1       2.312   2.126  17.897  0.00  0.00    +0.000 C 
ATOM     12  O   UNL     1       1.893   2.576  19.195  0.00  0.00    +0.000 OA
ATOM     13  C   UNL     1       2.301   3.935  19.410  0.00  0.00    +0.000 C 
ATOM     14  C   UNL     1       3.825   4.090  19.328  0.00  0.00    +0.000 C 
ENDBRANCH   1   8
BRANCH   4  15
ATOM     15  C   UNL     1       8.323   8.821  18.157  0.00  0.00    +0.000 C 
ATOM     16  C   UNL     1       8.988   9.805  18.328  0.00  0.00    +0.000 C 
BRANCH  16  17
ATOM     17  C   UNL     1       9.736  11.005  18.565  0.00  0.00    +0.000 A 
ATOM     18  C   UNL     1      10.665  11.454  17.620  0.00  0.00    +0.000 A 
ATOM     19  C   UNL     1      11.415  12.608  17.863  0.00  0.00    +0.000 A 
ATOM     20  C   UNL     1      11.239  13.315  19.052  0.00  0.00    +0.000 A 
ATOM     21  C   UNL     1      10.311  12.865  19.993  0.00  0.00    +0.000 A 
ATOM     22 CL   UNL     1      10.100  13.733  21.464  0.00  0.00    +0.000 Cl
ATOM     23  C   UNL     1       9.560  11.715  19.755  0.00  0.00    +0.000 A 
ENDBRANCH  16  17
ENDBRANCH   4  15
TORSDOF 3
ENDMDL
MODEL 7
REMARK VINA RESULT:      -8.1      1.158      1.459
REMARK  Name = 
REMARK  3 active torsions:
REMARK  status: ('A' for Active; 'I' for Inactive)
REMARK    1  A    between atoms: C_2  and  C_3
REMARK    2  A    between atoms: C_6  and  C_7
REMARK    3  A    between atoms: C_8  and  C_9
REMARK                            x       y       z     vdW  Elec       q    Type
REMARK                         _______ _______ _______ _____ _____    ______ ____
ROOT
ATOM      1  C   UNL     1       5.913   5.423  17.573  0.00  0.00    +0.000 A 
ATOM      2  C   UNL     1       5.417   6.600  17.015  0.00  0.00    +0.000 A 
ATOM      3  C   UNL     1       6.146   7.781  17.167  0.00  0.00    +0.000 A 
ATOM      4  C   UNL     1       7.352   7.751  17.861  0.00  0.00    +0.000 A 
ATOM      5  C   UNL     1       7.757   6.538  18.410  0.00  0.00    +0.000 A 
ATOM      6  N   UNL     1       7.070   5.373  18.285  0.00  0.00    +0.000 NA
ENDROOT
BRANCH   1   8
ATOM      7  O   UNL     1       5.492   3.595  16.179  0.00  0.00    +0.000 OA
ATOM      8  C   UNL     1       5.208   4.137  17.252  0.00  0.00    +0.000 C 
ATOM      9  N   UNL     1       4.264   3.585  18.117  0.00  0.00    +0.000 N 
ATOM     10  C   UNL     1       3.777   2.224  17.871  0.00  0.00    +0.000 C 
ATOM     11  C   UNL     1       2.255   2.147  18.008  0.00  0.00    +0.000 C 
ATOM     12  O   UNL     1       1.825   2.658  19.280  0.00  0.00    +0.000 OA
ATOM     13  C   UNL     1       2.223   4.029  19.429  0.00  0.00    +0.000 C 
ATOM     14  C   UNL     1       3.747   4.190  19.348  0.00  0.00    +0.000 C 
ENDBRANCH   1   8
BRANCH   4  15
ATOM     15  C   UNL     1       8.182   8.915  17.939  0.00  0.00    +0.000 C 
ATOM     16  C   UNL     1       8.840   9.912  18.066  0.00  0.00    +0.000 C 
BRANCH  16  17
ATOM     17  C   UNL     1       9.586  11.120  18.264  0.00  0.00    +0.000 A 
ATOM     18  C   UNL     1      10.899  11.066  18.741  0.00  0.00    +0.000 A 
ATOM     19  C   UNL     1      11.618  12.245  18.960  0.00  0.00    +0.000 A 
ATOM     20  C   UNL     1      11.023  13.481  18.705  0.00  0.00    +0.000 A 
ATOM     21  C   UNL     1       9.712  13.531  18.229  0.00  0.00    +0.000 A 
ATOM     22 CL   UNL     1       8.976  15.055  17.921  0.00  0.00    +0.000 Cl
ATOM     23  C   UNL     1       8.992  12.358  18.007  0.00  0.00    +0.000 A 
ENDBRANCH  16  17
ENDBRANCH   4  15
TORSDOF 3
ENDMDL
MODEL 8
REMARK VINA RESULT:      -7.8      5.957     10.215
REMARK  Name = 
REMARK  3 active torsions:
REMARK  status: ('A' for Active; 'I' for Inactive)
REMARK    1  A    between atoms: C_2  and  C_3
REMARK    2  A    between atoms: C_6  and  C_7
REMARK    3  A    between atoms: C_8  and  C_9
REMARK                            x       y       z     vdW  Elec       q    Type
REMARK                         _______ _______ _______ _____ _____    ______ ____
ROOT
ATOM      1  C   UNL     1      10.328  13.390  19.275  0.00  0.00    +0.000 A 
ATOM      2  C   UNL     1      10.592  12.778  18.051  0.00  0.00    +0.000 A 
ATOM      3  C   UNL     1      10.155  11.470  17.840  0.00  0.00    +0.000 A 
ATOM      4  C   UNL     1       9.456  10.815  18.850  0.00  0.00    +0.000 A 
ATOM      5  C   UNL     1       9.262  11.491  20.050  0.00  0.00    +0.000 A 
ATOM      6  N   UNL     1       9.679  12.761  20.291  0.00  0.00    +0.000 NA
ENDROOT
BRANCH   1   8
ATOM      7  O   UNL     1      11.626  15.140  20.120  0.00  0.00    +0.000 OA
ATOM      8  C   UNL     1      10.651  14.849  19.420  0.00  0.00    +0.000 C 
ATOM      9  N   UNL     1       9.880  15.833  18.803  0.00  0.00    +0.000 N 
ATOM     10  C   UNL     1      10.366  17.216  18.785  0.00  0.00    +0.000 C 
ATOM     11  C   UNL     1       9.254  18.199  19.156  0.00  0.00    +0.000 C 
ATOM     12  O   UNL     1       8.101  18.015  18.317  0.00  0.00    +0.000 OA
ATOM     13  C   UNL     1       7.590  16.681  18.455  0.00  0.00    +0.000 C 
ATOM     14  C   UNL     1       8.634  15.629  18.058  0.00  0.00    +0.000 C 
ENDBRANCH   1   8
BRANCH   4  15
ATOM     15  C   UNL     1       8.892   9.517  18.629  0.00  0.00    +0.000 C 
ATOM     16  C   UNL     1       8.380   8.458  18.385  0.00  0.00    +0.000 C 
BRANCH  16  17
ATOM     17  C   UNL     1       7.733   7.223  18.053  0.00  0.00    +0.000 A 
ATOM     18  C   UNL     1       7.935   6.087  18.844  0.00  0.00    +0.000 A 
ATOM     19  C   UNL     1       7.326   4.876  18.504  0.00  0.00    +0.000 A 
ATOM     20  C   UNL     1       6.516   4.797  17.372  0.00  0.00    +0.000 A 
ATOM     21  C   UNL     1       6.316   5.932  16.585  0.00  0.00    +0.000 A 
ATOM     22 CL   UNL     1       5.322   5.833  15.184  0.00  0.00    +0.000 Cl
ATOM     23  C   UNL     1       6.920   7.143  16.920  0.00  0.00    +0.000 A 
ENDBRANCH  16  17
ENDBRANCH   4  15
TORSDOF 3
ENDMDL
MODEL 9
REMARK VINA RESULT:      -7.4      5.974     10.615
REMARK  Name = 
REMARK  3 active torsions:
REMARK  status: ('A' for Active; 'I' for Inactive)
REMARK    1  A    between atoms: C_2  and  C_3
REMARK    2  A    between atoms: C_6  and  C_7
REMARK    3  A    between atoms: C_8  and  C_9
REMARK                            x       y       z     vdW  Elec       q    Type
REMARK                         _______ _______ _______ _____ _____    ______ ____
ROOT
ATOM      1  C   UNL     1       9.733  13.405  19.328  0.00  0.00    +0.000 A 
ATOM      2  C   UNL     1       9.042  13.163  18.142  0.00  0.00    +0.000 A 
ATOM      3  C   UNL     1       8.703  11.851  17.811  0.00  0.00    +0.000 A 
ATOM      4  C   UNL     1       9.051  10.819  18.678  0.00  0.00    +0.000 A 
ATOM      5  C   UNL     1       9.765  11.147  19.826  0.00  0.00    +0.000 A 
ATOM      6  N   UNL     1      10.116  12.412  20.175  0.00  0.00    +0.000 NA
ENDROOT
BRANCH   1   8
ATOM      7  O   UNL     1       9.179  15.269  20.624  0.00  0.00    +0.000 OA
ATOM      8  C   UNL     1       9.935  14.831  19.751  0.00  0.00    +0.000 C 
ATOM      9  N   UNL     1      10.922  15.631  19.176  0.00  0.00    +0.000 N 
ATOM     10  C   UNL     1      11.229  16.931  19.777  0.00  0.00    +0.000 C 
ATOM     11  C   UNL     1      11.341  18.023  18.711  0.00  0.00    +0.000 C 
ATOM     12  O   UNL     1      12.288  17.655  17.694  0.00  0.00    +0.000 OA
ATOM     13  C   UNL     1      11.885  16.436  17.053  0.00  0.00    +0.000 C 
ATOM     14  C   UNL     1      11.791  15.274  18.050  0.00  0.00    +0.000 C 
ENDBRANCH   1   8
BRANCH   4  15
ATOM     15  C   UNL     1       8.620   9.476  18.430  0.00  0.00    +0.000 C 
ATOM     16  C   UNL     1       8.198   8.378  18.186  0.00  0.00    +0.000 C 
BRANCH  16  17
ATOM     17  C   UNL     1       7.642   7.094  17.874  0.00  0.00    +0.000 A 
ATOM     18  C   UNL     1       7.895   5.997  18.704  0.00  0.00    +0.000 A 
ATOM     19  C   UNL     1       7.376   4.739  18.386  0.00  0.00    +0.000 A 
ATOM     20  C   UNL     1       6.605   4.575  17.235  0.00  0.00    +0.000 A 
ATOM     21  C   UNL     1       6.356   5.671  16.408  0.00  0.00    +0.000 A 
ATOM     22 CL   UNL     1       5.412   5.467  14.984  0.00  0.00    +0.000 Cl
ATOM     23  C   UNL     1       6.870   6.929  16.722  0.00  0.00    +0.000 A 
ENDBRANCH  16  17
ENDBRANCH   4  15
TORSDOF 3
ENDMDL
