MODEL 1
REMARK VINA RESULT:      -7.2      0.000      0.000
REMARK  Name = 
REMARK  3 active torsions:
REMARK  status: ('A' for Active; 'I' for Inactive)
REMARK    1  A    between atoms: O_1  and  C_2
REMARK    2  A    between atoms: C_5  and  C_6
REMARK    3  A    between atoms: C_9  and  C_10
REMARK                            x       y       z     vdW  Elec       q    Type
REMARK                         _______ _______ _______ _____ _____    ______ ____
ROOT
ATOM      1  C   UNL     1       5.011   4.026  17.681  0.00  0.00    +0.000 A 
ATOM      2  N   UNL     1       6.259   4.300  18.097  0.00  0.00    +0.000 NA
ATOM      3  O   UNL     1       6.970   4.486  16.909  0.00  0.00    +0.000 OA
ATOM      4  C   UNL     1       6.080   4.307  15.889  0.00  0.00    +0.000 A 
ATOM      5  N   UNL     1       4.865   4.027  16.311  0.00  0.00    +0.000 NA
ENDROOT
BRANCH   1   9
ATOM      6  C   UNL     1       1.753   3.192  20.293  0.00  0.00    +0.000 A 
ATOM      7  C   UNL     1       1.526   3.929  19.135  0.00  0.00    +0.000 A 
ATOM      8  C   UNL     1       2.595   4.209  18.276  0.00  0.00    +0.000 A 
ATOM      9  C   UNL     1       3.888   3.752  18.572  0.00  0.00    +0.000 A 
ATOM     10  C   UNL     1       4.091   3.015  19.750  0.00  0.00    +0.000 A 
ATOM     11  C   UNL     1       3.026   2.736  20.608  0.00  0.00    +0.000 A 
BRANCH   6  12
ATOM     12  O   UNL     1       0.741   2.889  21.153  0.00  0.00    +0.000 OA
ATOM     13  H   UNL     1      -0.093   2.864  20.657  0.00  0.00    +0.000 HD
ENDBRANCH   6  12
ENDBRANCH   1   9
BRANCH   4  14
ATOM     14  C   UNL     1       6.582   4.438  14.534  0.00  0.00    +0.000 A 
ATOM     15  C   UNL     1       6.057   3.662  13.507  0.00  0.00    +0.000 A 
ATOM     16  N   UNL     1       6.501   3.733  12.226  0.00  0.00    +0.000 NA
ATOM     17  C   UNL     1       7.498   4.619  12.013  0.00  0.00    +0.000 A 
ATOM     18  C   UNL     1       8.025   5.399  13.029  0.00  0.00    +0.000 A 
ATOM     19  N   UNL     1       7.583   5.330  14.306  0.00  0.00    +0.000 NA
ENDBRANCH   4  14
TORSDOF 3
ENDMDL
MODEL 2
REMARK VINA RESULT:      -7.2      0.045      1.140
REMARK  Name = 
REMARK  3 active torsions:
REMARK  status: ('A' for Active; 'I' for Inactive)
REMARK    1  A    between atoms: O_1  and  C_2
REMARK    2  A    between atoms: C_5  and  C_6
REMARK    3  A    between atoms: C_9  and  C_10
REMARK                            x       y       z     vdW  Elec       q    Type
REMARK                         _______ _______ _______ _____ _____    ______ ____
ROOT
ATOM      1  C   UNL     1       5.045   4.018  17.675  0.00  0.00    +0.000 A 
ATOM      2  N   UNL     1       6.287   4.318  18.089  0.00  0.00    +0.000 NA
ATOM      3  O   UNL     1       6.994   4.513  16.900  0.00  0.00    +0.000 OA
ATOM      4  C   UNL     1       6.106   4.313  15.881  0.00  0.00    +0.000 A 
ATOM      5  N   UNL     1       4.898   4.011  16.305  0.00  0.00    +0.000 NA
ENDROOT
BRANCH   1   9
ATOM      6  C   UNL     1       1.766   3.200  20.266  0.00  0.00    +0.000 A 
ATOM      7  C   UNL     1       3.031   2.722  20.597  0.00  0.00    +0.000 A 
ATOM      8  C   UNL     1       4.110   2.985  19.746  0.00  0.00    +0.000 A 
ATOM      9  C   UNL     1       3.928   3.726  18.568  0.00  0.00    +0.000 A 
ATOM     10  C   UNL     1       2.640   4.191  18.255  0.00  0.00    +0.000 A 
ATOM     11  C   UNL     1       1.563   3.928  19.102  0.00  0.00    +0.000 A 
BRANCH   6  12
ATOM     12  O   UNL     1       0.689   2.974  21.069  0.00  0.00    +0.000 OA
ATOM     13  H   UNL     1       0.980   2.990  21.995  0.00  0.00    +0.000 HD
ENDBRANCH   6  12
ENDBRANCH   1   9
BRANCH   4  14
ATOM     14  C   UNL     1       6.605   4.448  14.525  0.00  0.00    +0.000 A 
ATOM     15  C   UNL     1       6.081   3.671  13.498  0.00  0.00    +0.000 A 
ATOM     16  N   UNL     1       6.522   3.746  12.217  0.00  0.00    +0.000 NA
ATOM     17  C   UNL     1       7.515   4.637  12.002  0.00  0.00    +0.000 A 
ATOM     18  C   UNL     1       8.040   5.418  13.018  0.00  0.00    +0.000 A 
ATOM     19  N   UNL     1       7.601   5.345  14.297  0.00  0.00    +0.000 NA
ENDBRANCH   4  14
TORSDOF 3
ENDMDL
MODEL 3
REMARK VINA RESULT:      -6.8      0.653      1.136
REMARK  Name = 
REMARK  3 active torsions:
REMARK  status: ('A' for Active; 'I' for Inactive)
REMARK    1  A    between atoms: O_1  and  C_2
REMARK    2  A    between atoms: C_5  and  C_6
REMARK    3  A    between atoms: C_9  and  C_10
REMARK                            x       y       z     vdW  Elec       q    Type
REMARK                         _______ _______ _______ _____ _____    ______ ____
ROOT
ATOM      1  C   UNL     1       4.919   3.947  17.674  0.00  0.00    +0.000 A 
ATOM      2  N   UNL     1       6.171   4.215  18.081  0.00  0.00    +0.000 NA
ATOM      3  O   UNL     1       6.875   4.393  16.888  0.00  0.00    +0.000 OA
ATOM      4  C   UNL     1       5.977   4.215  15.874  0.00  0.00    +0.000 A 
ATOM      5  N   UNL     1       4.764   3.944  16.304  0.00  0.00    +0.000 NA
ENDROOT
BRANCH   1   9
ATOM      6  C   UNL     1       1.674   3.143  20.312  0.00  0.00    +0.000 A 
ATOM      7  C   UNL     1       1.426   3.792  19.106  0.00  0.00    +0.000 A 
ATOM      8  C   UNL     1       2.490   4.061  18.238  0.00  0.00    +0.000 A 
ATOM      9  C   UNL     1       3.800   3.682  18.572  0.00  0.00    +0.000 A 
ATOM     10  C   UNL     1       4.023   3.034  19.798  0.00  0.00    +0.000 A 
ATOM     11  C   UNL     1       2.962   2.766  20.665  0.00  0.00    +0.000 A 
BRANCH   6  12
ATOM     12  O   UNL     1       0.668   2.853  21.183  0.00  0.00    +0.000 OA
ATOM     13  H   UNL     1       0.343   3.682  21.571  0.00  0.00    +0.000 HD
ENDBRANCH   6  12
ENDBRANCH   1   9
BRANCH   4  14
ATOM     14  C   UNL     1       6.471   4.338  14.515  0.00  0.00    +0.000 A 
ATOM     15  C   UNL     1       7.431   5.291  14.195  0.00  0.00    +0.000 A 
ATOM     16  N   UNL     1       7.915   5.459  12.938  0.00  0.00    +0.000 NA
ATOM     17  C   UNL     1       7.397   4.628  12.008  0.00  0.00    +0.000 A 
ATOM     18  C   UNL     1       6.443   3.672  12.318  0.00  0.00    +0.000 A 
ATOM     19  N   UNL     1       5.960   3.504  13.571  0.00  0.00    +0.000 NA
ENDBRANCH   4  14
TORSDOF 3
ENDMDL
MODEL 4
REMARK VINA RESULT:      -6.7      1.096      1.136
REMARK  Name = 
REMARK  3 active torsions:
REMARK  status: ('A' for Active; 'I' for Inactive)
REMARK    1  A    between atoms: O_1  and  C_2
REMARK    2  A    between atoms: C_5  and  C_6
REMARK    3  A    between atoms: C_9  and  C_10
REMARK                            x       y       z     vdW  Elec       q    Type
REMARK                         _______ _______ _______ _____ _____    ______ ____
ROOT
ATOM      1  C   UNL     1       4.214   4.816  17.574  0.00  0.00    +0.000 A 
ATOM      2  N   UNL     1       4.441   6.126  17.382  0.00  0.00    +0.000 NA
ATOM      3  O   UNL     1       5.136   6.168  16.172  0.00  0.00    +0.000 OA
ATOM      4  C   UNL     1       5.261   4.875  15.749  0.00  0.00    +0.000 A 
ATOM      5  N   UNL     1       4.709   4.010  16.572  0.00  0.00    +0.000 NA
ENDROOT
BRANCH   1   9
ATOM      6  C   UNL     1       2.172   3.162  20.925  0.00  0.00    +0.000 A 
ATOM      7  C   UNL     1       1.604   4.234  20.243  0.00  0.00    +0.000 A 
ATOM      8  C   UNL     1       2.274   4.783  19.144  0.00  0.00    +0.000 A 
ATOM      9  C   UNL     1       3.508   4.262  18.725  0.00  0.00    +0.000 A 
ATOM     10  C   UNL     1       4.061   3.183  19.434  0.00  0.00    +0.000 A 
ATOM     11  C   UNL     1       3.394   2.636  20.532  0.00  0.00    +0.000 A 
BRANCH   6  12
ATOM     12  O   UNL     1       1.551   2.591  21.995  0.00  0.00    +0.000 OA
ATOM     13  H   UNL     1       2.210   2.440  22.693  0.00  0.00    +0.000 HD
ENDBRANCH   6  12
ENDBRANCH   1   9
BRANCH   4  14
ATOM     14  C   UNL     1       5.966   4.646  14.501  0.00  0.00    +0.000 A 
ATOM     15  C   UNL     1       5.486   3.727  13.575  0.00  0.00    +0.000 A 
ATOM     16  N   UNL     1       6.116   3.463  12.402  0.00  0.00    +0.000 NA
ATOM     17  C   UNL     1       7.252   4.162  12.190  0.00  0.00    +0.000 A 
ATOM     18  C   UNL     1       7.736   5.083  13.105  0.00  0.00    +0.000 A 
ATOM     19  N   UNL     1       7.110   5.347  14.275  0.00  0.00    +0.000 NA
ENDBRANCH   4  14
TORSDOF 3
ENDMDL
MODEL 5
REMARK VINA RESULT:      -6.7      5.502      8.458
REMARK  Name = 
REMARK  3 active torsions:
REMARK  status: ('A' for Active; 'I' for Inactive)
REMARK    1  A    between atoms: O_1  and  C_2
REMARK    2  A    between atoms: C_5  and  C_6
REMARK    3  A    between atoms: C_9  and  C_10
REMARK                            x       y       z     vdW  Elec       q    Type
REMARK                         _______ _______ _______ _____ _____    ______ ____
ROOT
ATOM      1  C   UNL     1       2.542   7.720  18.303  0.00  0.00    +0.000 A 
ATOM      2  N   UNL     1       2.136   8.765  17.563  0.00  0.00    +0.000 NA
ATOM      3  O   UNL     1       1.413   9.548  18.466  0.00  0.00    +0.000 OA
ATOM      4  C   UNL     1       1.454   8.899  19.667  0.00  0.00    +0.000 A 
ATOM      5  N   UNL     1       2.137   7.776  19.620  0.00  0.00    +0.000 NA
ENDROOT
BRANCH   1   9
ATOM      6  C   UNL     1       4.865   4.462  16.847  0.00  0.00    +0.000 A 
ATOM      7  C   UNL     1       5.319   5.763  16.651  0.00  0.00    +0.000 A 
ATOM      8  C   UNL     1       4.556   6.837  17.124  0.00  0.00    +0.000 A 
ATOM      9  C   UNL     1       3.343   6.612  17.794  0.00  0.00    +0.000 A 
ATOM     10  C   UNL     1       2.906   5.290  17.974  0.00  0.00    +0.000 A 
ATOM     11  C   UNL     1       3.665   4.218  17.500  0.00  0.00    +0.000 A 
BRANCH   6  12
ATOM     12  O   UNL     1       5.578   3.387  16.410  0.00  0.00    +0.000 OA
ATOM     13  H   UNL     1       6.035   3.629  15.587  0.00  0.00    +0.000 HD
ENDBRANCH   6  12
ENDBRANCH   1   9
BRANCH   4  14
ATOM     14  C   UNL     1       0.757   9.512  20.782  0.00  0.00    +0.000 A 
ATOM     15  C   UNL     1       1.096   9.192  22.091  0.00  0.00    +0.000 A 
ATOM     16  N   UNL     1       0.466   9.724  23.169  0.00  0.00    +0.000 NA
ATOM     17  C   UNL     1      -0.525  10.596  22.882  0.00  0.00    +0.000 A 
ATOM     18  C   UNL     1      -0.868  10.925  21.581  0.00  0.00    +0.000 A 
ATOM     19  N   UNL     1      -0.240  10.396  20.505  0.00  0.00    +0.000 NA
ENDBRANCH   4  14
TORSDOF 3
ENDMDL
MODEL 6
REMARK VINA RESULT:      -6.7      5.516      8.467
REMARK  Name = 
REMARK  3 active torsions:
REMARK  status: ('A' for Active; 'I' for Inactive)
REMARK    1  A    between atoms: O_1  and  C_2
REMARK    2  A    between atoms: C_5  and  C_6
REMARK    3  A    between atoms: C_9  and  C_10
REMARK                            x       y       z     vdW  Elec       q    Type
REMARK                         _______ _______ _______ _____ _____    ______ ____
ROOT
ATOM      1  C   UNL     1       2.542   7.709  18.329  0.00  0.00    +0.000 A 
ATOM      2  N   UNL     1       2.194   8.774  17.589  0.00  0.00    +0.000 NA
ATOM      3  O   UNL     1       1.475   9.575  18.479  0.00  0.00    +0.000 OA
ATOM      4  C   UNL     1       1.461   8.914  19.674  0.00  0.00    +0.000 A 
ATOM      5  N   UNL     1       2.104   7.767  19.635  0.00  0.00    +0.000 NA
ENDROOT
BRANCH   1   9
ATOM      6  C   UNL     1       4.819   4.431  16.844  0.00  0.00    +0.000 A 
ATOM      7  C   UNL     1       3.640   4.181  17.540  0.00  0.00    +0.000 A 
ATOM      8  C   UNL     1       2.891   5.255  18.034  0.00  0.00    +0.000 A 
ATOM      9  C   UNL     1       3.317   6.577  17.831  0.00  0.00    +0.000 A 
ATOM     10  C   UNL     1       4.513   6.801  17.129  0.00  0.00    +0.000 A 
ATOM     11  C   UNL     1       5.262   5.730  16.638  0.00  0.00    +0.000 A 
BRANCH   6  12
ATOM     12  O   UNL     1       5.575   3.416  16.340  0.00  0.00    +0.000 OA
ATOM     13  H   UNL     1       6.474   3.489  16.700  0.00  0.00    +0.000 HD
ENDBRANCH   6  12
ENDBRANCH   1   9
BRANCH   4  14
ATOM     14  C   UNL     1       0.756   9.542  20.776  0.00  0.00    +0.000 A 
ATOM     15  C   UNL     1       1.070   9.221  22.092  0.00  0.00    +0.000 A 
ATOM     16  N   UNL     1       0.431   9.767  23.158  0.00  0.00    +0.000 NA
ATOM     17  C   UNL     1      -0.541  10.654  22.852  0.00  0.00    +0.000 A 
ATOM     18  C   UNL     1      -0.858  10.983  21.545  0.00  0.00    +0.000 A 
ATOM     19  N   UNL     1      -0.222  10.440  20.481  0.00  0.00    +0.000 NA
ENDBRANCH   4  14
TORSDOF 3
ENDMDL
MODEL 7
REMARK VINA RESULT:      -6.7      1.387      2.127
REMARK  Name = 
REMARK  3 active torsions:
REMARK  status: ('A' for Active; 'I' for Inactive)
REMARK    1  A    between atoms: O_1  and  C_2
REMARK    2  A    between atoms: C_5  and  C_6
REMARK    3  A    between atoms: C_9  and  C_10
REMARK                            x       y       z     vdW  Elec       q    Type
REMARK                         _______ _______ _______ _____ _____    ______ ____
ROOT
ATOM      1  C   UNL     1       3.781   4.705  18.061  0.00  0.00    +0.000 A 
ATOM      2  N   UNL     1       3.770   6.024  17.805  0.00  0.00    +0.000 NA
ATOM      3  O   UNL     1       4.543   6.143  16.648  0.00  0.00    +0.000 OA
ATOM      4  C   UNL     1       4.947   4.882  16.317  0.00  0.00    +0.000 A 
ATOM      5  N   UNL     1       4.503   3.965  17.150  0.00  0.00    +0.000 NA
ENDROOT
BRANCH   1   9
ATOM      6  C   UNL     1       1.770   2.913  21.359  0.00  0.00    +0.000 A 
ATOM      7  C   UNL     1       3.067   2.512  21.053  0.00  0.00    +0.000 A 
ATOM      8  C   UNL     1       3.730   3.096  19.968  0.00  0.00    +0.000 A 
ATOM      9  C   UNL     1       3.100   4.079  19.189  0.00  0.00    +0.000 A 
ATOM     10  C   UNL     1       1.789   4.461  19.516  0.00  0.00    +0.000 A 
ATOM     11  C   UNL     1       1.126   3.878  20.598  0.00  0.00    +0.000 A 
BRANCH   6  12
ATOM     12  O   UNL     1       1.090   2.377  22.411  0.00  0.00    +0.000 OA
ATOM     13  H   UNL     1       0.508   3.059  22.785  0.00  0.00    +0.000 HD
ENDBRANCH   6  12
ENDBRANCH   1   9
BRANCH   4  14
ATOM     14  C   UNL     1       5.784   4.736  15.141  0.00  0.00    +0.000 A 
ATOM     15  C   UNL     1       6.967   5.457  15.021  0.00  0.00    +0.000 A 
ATOM     16  N   UNL     1       7.779   5.370  13.937  0.00  0.00    +0.000 NA
ATOM     17  C   UNL     1       7.356   4.526  12.970  0.00  0.00    +0.000 A 
ATOM     18  C   UNL     1       6.181   3.801  13.082  0.00  0.00    +0.000 A 
ATOM     19  N   UNL     1       5.372   3.886  14.163  0.00  0.00    +0.000 NA
ENDBRANCH   4  14
TORSDOF 3
ENDMDL
MODEL 8
REMARK VINA RESULT:      -6.7      5.661      8.402
REMARK  Name = 
REMARK  3 active torsions:
REMARK  status: ('A' for Active; 'I' for Inactive)
REMARK    1  A    between atoms: O_1  and  C_2
REMARK    2  A    between atoms: C_5  and  C_6
REMARK    3  A    between atoms: C_9  and  C_10
REMARK                            x       y       z     vdW  Elec       q    Type
REMARK                         _______ _______ _______ _____ _____    ______ ____
ROOT
ATOM      1  C   UNL     1       2.337   6.883  19.766  0.00  0.00    +0.000 A 
ATOM      2  N   UNL     1       2.287   7.730  18.724  0.00  0.00    +0.000 NA
ATOM      3  O   UNL     1       1.564   8.818  19.216  0.00  0.00    +0.000 OA
ATOM      4  C   UNL     1       1.247   8.522  20.511  0.00  0.00    +0.000 A 
ATOM      5  N   UNL     1       1.702   7.350  20.896  0.00  0.00    +0.000 NA
ENDROOT
BRANCH   1   9
ATOM      6  C   UNL     1       4.289   3.100  19.656  0.00  0.00    +0.000 A 
ATOM      7  C   UNL     1       3.030   3.200  20.240  0.00  0.00    +0.000 A 
ATOM      8  C   UNL     1       2.387   4.442  20.282  0.00  0.00    +0.000 A 
ATOM      9  C   UNL     1       2.999   5.583  19.740  0.00  0.00    +0.000 A 
ATOM     10  C   UNL     1       4.272   5.456  19.162  0.00  0.00    +0.000 A 
ATOM     11  C   UNL     1       4.916   4.217  19.121  0.00  0.00    +0.000 A 
BRANCH   6  12
ATOM     12  O   UNL     1       4.949   1.911  19.586  0.00  0.00    +0.000 OA
ATOM     13  H   UNL     1       5.895   2.086  19.455  0.00  0.00    +0.000 HD
ENDBRANCH   6  12
ENDBRANCH   1   9
BRANCH   4  14
ATOM     14  C   UNL     1       0.474   9.504  21.250  0.00  0.00    +0.000 A 
ATOM     15  C   UNL     1       0.390   9.440  22.636  0.00  0.00    +0.000 A 
ATOM     16  N   UNL     1      -0.332  10.322  23.374  0.00  0.00    +0.000 NA
ATOM     17  C   UNL     1      -0.969  11.278  22.663  0.00  0.00    +0.000 A 
ATOM     18  C   UNL     1      -0.888  11.352  21.283  0.00  0.00    +0.000 A 
ATOM     19  N   UNL     1      -0.169  10.474  20.546  0.00  0.00    +0.000 NA
ENDBRANCH   4  14
TORSDOF 3
ENDMDL
MODEL 9
REMARK VINA RESULT:      -6.7      2.366      7.173
REMARK  Name = 
REMARK  3 active torsions:
REMARK  status: ('A' for Active; 'I' for Inactive)
REMARK    1  A    between atoms: O_1  and  C_2
REMARK    2  A    between atoms: C_5  and  C_6
REMARK    3  A    between atoms: C_9  and  C_10
REMARK                            x       y       z     vdW  Elec       q    Type
REMARK                         _______ _______ _______ _____ _____    ______ ____
ROOT
ATOM      1  C   UNL     1       5.652   4.135  17.178  0.00  0.00    +0.000 A 
ATOM      2  N   UNL     1       6.437   4.361  18.245  0.00  0.00    +0.000 NA
ATOM      3  O   UNL     1       5.591   4.127  19.332  0.00  0.00    +0.000 OA
ATOM      4  C   UNL     1       4.376   3.781  18.814  0.00  0.00    +0.000 A 
ATOM      5  N   UNL     1       4.363   3.768  17.499  0.00  0.00    +0.000 NA
ENDROOT
BRANCH   1   9
ATOM      6  C   UNL     1       6.954   4.521  13.142  0.00  0.00    +0.000 A 
ATOM      7  C   UNL     1       5.864   3.706  13.431  0.00  0.00    +0.000 A 
ATOM      8  C   UNL     1       5.435   3.573  14.756  0.00  0.00    +0.000 A 
ATOM      9  C   UNL     1       6.093   4.254  15.793  0.00  0.00    +0.000 A 
ATOM     10  C   UNL     1       7.194   5.066  15.474  0.00  0.00    +0.000 A 
ATOM     11  C   UNL     1       7.623   5.198  14.152  0.00  0.00    +0.000 A 
BRANCH   6  12
ATOM     12  O   UNL     1       7.400   4.685  11.866  0.00  0.00    +0.000 OA
ATOM     13  H   UNL     1       7.783   3.847  11.559  0.00  0.00    +0.000 HD
ENDBRANCH   6  12
ENDBRANCH   1   9
BRANCH   4  14
ATOM     14  C   UNL     1       3.307   3.495  19.753  0.00  0.00    +0.000 A 
ATOM     15  C   UNL     1       3.559   2.773  20.914  0.00  0.00    +0.000 A 
ATOM     16  N   UNL     1       2.593   2.465  21.817  0.00  0.00    +0.000 NA
ATOM     17  C   UNL     1       1.356   2.912  21.509  0.00  0.00    +0.000 A 
ATOM     18  C   UNL     1       1.096   3.636  20.357  0.00  0.00    +0.000 A 
ATOM     19  N   UNL     1       2.058   3.944  19.457  0.00  0.00    +0.000 NA
ENDBRANCH   4  14
TORSDOF 3
ENDMDL
