MODEL 1
REMARK VINA RESULT:      -8.0      0.000      0.000
REMARK  Name = 
REMARK  6 active torsions:
REMARK  status: ('A' for Active; 'I' for Inactive)
REMARK    1  A    between atoms: O_1  and  C_2
REMARK    2  A    between atoms: C_7  and  C_8
REMARK    3  A    between atoms: C_15  and  C_16
REMARK    4  A    between atoms: C_16  and  N_17
REMARK    5  A    between atoms: C_20  and  O_21
REMARK    6  A    between atoms: C_20  and  C_22
REMARK                            x       y       z     vdW  Elec       q    Type
REMARK                         _______ _______ _______ _____ _____    ______ ____
ROOT
ATOM      1  C   UNL     1       3.364   2.902  20.209  0.00  0.00    +0.000 A 
ATOM      2  C   UNL     1       2.056   2.542  20.555  0.00  0.00    +0.000 A 
ATOM      3  C   UNL     1       1.075   3.513  20.756  0.00  0.00    +0.000 A 
ATOM      4  C   UNL     1       1.472   4.835  20.592  0.00  0.00    +0.000 A 
ATOM      5  N   UNL     1       0.786   6.014  20.712  0.00  0.00    +0.000 N 
ATOM      6  C   UNL     1       1.639   7.055  20.458  0.00  0.00    +0.000 A 
ATOM      7  N   UNL     1       2.836   6.604  20.145  0.00  0.00    +0.000 NA
ATOM      8  C   UNL     1       2.762   5.223  20.239  0.00  0.00    +0.000 A 
ATOM      9  C   UNL     1       3.764   4.244  20.041  0.00  0.00    +0.000 A 
ATOM     10  H   UNL     1      -0.184   6.118  20.967  0.00  0.00    +0.000 HD
ENDROOT
BRANCH   6  11
ATOM     11  C   UNL     1       1.254   8.435  20.544  0.00  0.00    +0.000 A 
ATOM     12  C   UNL     1       1.042   9.310  19.496  0.00  0.00    +0.000 A 
ATOM     13  C   UNL     1       0.673  10.616  19.936  0.00  0.00    +0.000 A 
ATOM     14  C   UNL     1       0.616  10.699  21.310  0.00  0.00    +0.000 A 
ATOM     15  S   UNL     1       1.005   9.214  22.056  0.00  0.00    +0.000 S 
ENDBRANCH   6  11
BRANCH   1  16
ATOM     16  O   UNL     1       4.285   1.909  19.995  0.00  0.00    +0.000 OA
ATOM     17  H   UNL     1       3.889   1.224  19.433  0.00  0.00    +0.000 HD
ENDBRANCH   1  16
BRANCH   9  18
ATOM     18  C   UNL     1       5.171   4.612  19.631  0.00  0.00    +0.000 C 
BRANCH  18  19
ATOM     19  N   UNL     1       5.605   4.151  18.279  0.00  0.00    +0.000 NA
ATOM     20  C   UNL     1       6.758   4.941  17.827  0.00  0.00    +0.000 C 
ATOM     21  C   UNL     1       7.153   4.692  16.373  0.00  0.00    +0.000 C 
ATOM     22  C   UNL     1       5.989   4.884  15.385  0.00  0.00    +0.000 C 
ATOM     23  C   UNL     1       4.793   4.062  15.895  0.00  0.00    +0.000 C 
ATOM     24  C   UNL     1       4.464   4.323  17.365  0.00  0.00    +0.000 C 
BRANCH  22  25
ATOM     25  C   UNL     1       6.387   4.535  13.939  0.00  0.00    +0.000 A 
ATOM     26  C   UNL     1       5.694   3.556  13.202  0.00  0.00    +0.000 A 
ATOM     27  C   UNL     1       6.089   3.199  11.909  0.00  0.00    +0.000 A 
ATOM     28  C   UNL     1       7.170   3.832  11.308  0.00  0.00    +0.000 A 
ATOM     29  C   UNL     1       7.842   4.839  11.992  0.00  0.00    +0.000 A 
ATOM     30  C   UNL     1       7.448   5.193  13.286  0.00  0.00    +0.000 A 
ENDBRANCH  22  25
BRANCH  22  31
ATOM     31  O   UNL     1       5.610   6.269  15.393  0.00  0.00    +0.000 OA
ATOM     32  H   UNL     1       6.415   6.786  15.571  0.00  0.00    +0.000 HD
ENDBRANCH  22  31
ENDBRANCH  18  19
ENDBRANCH   9  18
TORSDOF 6
ENDMDL
MODEL 2
REMARK VINA RESULT:      -7.8      3.126      8.569
REMARK  Name = 
REMARK  6 active torsions:
REMARK  status: ('A' for Active; 'I' for Inactive)
REMARK    1  A    between atoms: O_1  and  C_2
REMARK    2  A    between atoms: C_7  and  C_8
REMARK    3  A    between atoms: C_15  and  C_16
REMARK    4  A    between atoms: C_16  and  N_17
REMARK    5  A    between atoms: C_20  and  O_21
REMARK    6  A    between atoms: C_20  and  C_22
REMARK                            x       y       z     vdW  Elec       q    Type
REMARK                         _______ _______ _______ _____ _____    ______ ____
ROOT
ATOM      1  C   UNL     1       2.910   4.571  20.160  0.00  0.00    +0.000 A 
ATOM      2  C   UNL     1       2.989   3.174  20.128  0.00  0.00    +0.000 A 
ATOM      3  C   UNL     1       3.613   2.515  19.069  0.00  0.00    +0.000 A 
ATOM      4  C   UNL     1       4.144   3.321  18.067  0.00  0.00    +0.000 A 
ATOM      5  N   UNL     1       4.806   3.016  16.908  0.00  0.00    +0.000 N 
ATOM      6  C   UNL     1       5.113   4.178  16.251  0.00  0.00    +0.000 A 
ATOM      7  N   UNL     1       4.713   5.221  16.948  0.00  0.00    +0.000 NA
ATOM      8  C   UNL     1       4.089   4.713  18.076  0.00  0.00    +0.000 A 
ATOM      9  C   UNL     1       3.451   5.386  19.143  0.00  0.00    +0.000 A 
ATOM     10  H   UNL     1       5.020   2.092  16.567  0.00  0.00    +0.000 HD
ENDROOT
BRANCH   6  11
ATOM     11  C   UNL     1       5.769   4.218  14.975  0.00  0.00    +0.000 A 
ATOM     12  C   UNL     1       5.373   3.585  13.812  0.00  0.00    +0.000 A 
ATOM     13  C   UNL     1       6.261   3.831  12.722  0.00  0.00    +0.000 A 
ATOM     14  C   UNL     1       7.311   4.644  13.088  0.00  0.00    +0.000 A 
ATOM     15  S   UNL     1       7.222   5.103  14.730  0.00  0.00    +0.000 S 
ENDBRANCH   6  11
BRANCH   1  16
ATOM     16  O   UNL     1       2.310   5.172  21.236  0.00  0.00    +0.000 OA
ATOM     17  H   UNL     1       1.506   4.680  21.468  0.00  0.00    +0.000 HD
ENDBRANCH   1  16
BRANCH   9  18
ATOM     18  C   UNL     1       3.389   6.894  19.213  0.00  0.00    +0.000 C 
BRANCH  18  19
ATOM     19  N   UNL     1       2.032   7.506  19.095  0.00  0.00    +0.000 NA
ATOM     20  C   UNL     1       2.006   8.456  17.976  0.00  0.00    +0.000 C 
ATOM     21  C   UNL     1       0.728   9.288  17.894  0.00  0.00    +0.000 C 
ATOM     22  C   UNL     1       0.405  10.035  19.200  0.00  0.00    +0.000 C 
ATOM     23  C   UNL     1       0.458   9.019  20.354  0.00  0.00    +0.000 C 
ATOM     24  C   UNL     1       1.742   8.188  20.366  0.00  0.00    +0.000 C 
BRANCH  22  25
ATOM     25  C   UNL     1      -0.936  10.789  19.124  0.00  0.00    +0.000 A 
ATOM     26  C   UNL     1      -1.302  11.737  20.098  0.00  0.00    +0.000 A 
ATOM     27  C   UNL     1      -2.542  12.382  20.060  0.00  0.00    +0.000 A 
ATOM     28  C   UNL     1      -3.438  12.116  19.031  0.00  0.00    +0.000 A 
ATOM     29  C   UNL     1      -3.083  11.222  18.027  0.00  0.00    +0.000 A 
ATOM     30  C   UNL     1      -1.844  10.576  18.068  0.00  0.00    +0.000 A 
ENDBRANCH  22  25
BRANCH  22  31
ATOM     31  O   UNL     1       1.426  11.018  19.427  0.00  0.00    +0.000 OA
ATOM     32  H   UNL     1       1.970  10.701  20.168  0.00  0.00    +0.000 HD
ENDBRANCH  22  31
ENDBRANCH  18  19
ENDBRANCH   9  18
TORSDOF 6
ENDMDL
MODEL 3
REMARK VINA RESULT:      -7.7      1.034      1.446
REMARK  Name = 
REMARK  6 active torsions:
REMARK  status: ('A' for Active; 'I' for Inactive)
REMARK    1  A    between atoms: O_1  and  C_2
REMARK    2  A    between atoms: C_7  and  C_8
REMARK    3  A    between atoms: C_15  and  C_16
REMARK    4  A    between atoms: C_16  and  N_17
REMARK    5  A    between atoms: C_20  and  O_21
REMARK    6  A    between atoms: C_20  and  C_22
REMARK                            x       y       z     vdW  Elec       q    Type
REMARK                         _______ _______ _______ _____ _____    ______ ____
ROOT
ATOM      1  C   UNL     1       3.702   3.262  19.815  0.00  0.00    +0.000 A 
ATOM      2  C   UNL     1       2.429   2.710  20.004  0.00  0.00    +0.000 A 
ATOM      3  C   UNL     1       1.331   3.522  20.288  0.00  0.00    +0.000 A 
ATOM      4  C   UNL     1       1.576   4.888  20.368  0.00  0.00    +0.000 A 
ATOM      5  N   UNL     1       0.751   5.948  20.627  0.00  0.00    +0.000 N 
ATOM      6  C   UNL     1       1.487   7.104  20.607  0.00  0.00    +0.000 A 
ATOM      7  N   UNL     1       2.744   6.843  20.312  0.00  0.00    +0.000 NA
ATOM      8  C   UNL     1       2.829   5.467  20.176  0.00  0.00    +0.000 A 
ATOM      9  C   UNL     1       3.948   4.649  19.895  0.00  0.00    +0.000 A 
ATOM     10  H   UNL     1      -0.236   5.903  20.826  0.00  0.00    +0.000 HD
ENDROOT
BRANCH   6  11
ATOM     11  C   UNL     1       0.937   8.399  20.887  0.00  0.00    +0.000 A 
ATOM     12  C   UNL     1       0.433   8.851  22.092  0.00  0.00    +0.000 A 
ATOM     13  C   UNL     1      -0.042  10.195  22.020  0.00  0.00    +0.000 A 
ATOM     14  C   UNL     1       0.112  10.728  20.760  0.00  0.00    +0.000 A 
ATOM     15  S   UNL     1       0.823   9.616  19.678  0.00  0.00    +0.000 S 
ENDBRANCH   6  11
BRANCH   1  16
ATOM     16  O   UNL     1       4.744   2.425  19.510  0.00  0.00    +0.000 OA
ATOM     17  H   UNL     1       4.476   1.508  19.685  0.00  0.00    +0.000 HD
ENDBRANCH   1  16
BRANCH   9  18
ATOM     18  C   UNL     1       5.322   5.230  19.651  0.00  0.00    +0.000 C 
BRANCH  18  19
ATOM     19  N   UNL     1       5.700   5.454  18.225  0.00  0.00    +0.000 NA
ATOM     20  C   UNL     1       4.587   5.076  17.346  0.00  0.00    +0.000 C 
ATOM     21  C   UNL     1       4.939   5.070  15.860  0.00  0.00    +0.000 C 
ATOM     22  C   UNL     1       6.164   4.199  15.529  0.00  0.00    +0.000 C 
ATOM     23  C   UNL     1       7.306   4.605  16.477  0.00  0.00    +0.000 C 
ATOM     24  C   UNL     1       6.887   4.629  17.948  0.00  0.00    +0.000 C 
BRANCH  22  25
ATOM     25  C   UNL     1       6.557   4.286  14.043  0.00  0.00    +0.000 A 
ATOM     26  C   UNL     1       5.987   3.432  13.080  0.00  0.00    +0.000 A 
ATOM     27  C   UNL     1       6.383   3.473  11.740  0.00  0.00    +0.000 A 
ATOM     28  C   UNL     1       7.340   4.390  11.321  0.00  0.00    +0.000 A 
ATOM     29  C   UNL     1       7.883   5.281  12.239  0.00  0.00    +0.000 A 
ATOM     30  C   UNL     1       7.489   5.237  13.580  0.00  0.00    +0.000 A 
ENDBRANCH  22  25
BRANCH  22  31
ATOM     31  O   UNL     1       5.832   2.828  15.795  0.00  0.00    +0.000 OA
ATOM     32  H   UNL     1       5.809   2.366  14.940  0.00  0.00    +0.000 HD
ENDBRANCH  22  31
ENDBRANCH  18  19
ENDBRANCH   9  18
TORSDOF 6
ENDMDL
MODEL 4
REMARK VINA RESULT:      -7.7      3.207      8.555
REMARK  Name = 
REMARK  6 active torsions:
REMARK  status: ('A' for Active; 'I' for Inactive)
REMARK    1  A    between atoms: O_1  and  C_2
REMARK    2  A    between atoms: C_7  and  C_8
REMARK    3  A    between atoms: C_15  and  C_16
REMARK    4  A    between atoms: C_16  and  N_17
REMARK    5  A    between atoms: C_20  and  O_21
REMARK    6  A    between atoms: C_20  and  C_22
REMARK                            x       y       z     vdW  Elec       q    Type
REMARK                         _______ _______ _______ _____ _____    ______ ____
ROOT
ATOM      1  C   UNL     1       2.982   4.544  20.083  0.00  0.00    +0.000 A 
ATOM      2  C   UNL     1       3.093   3.150  20.022  0.00  0.00    +0.000 A 
ATOM      3  C   UNL     1       3.758   2.529  18.964  0.00  0.00    +0.000 A 
ATOM      4  C   UNL     1       4.296   3.369  17.995  0.00  0.00    +0.000 A 
ATOM      5  N   UNL     1       4.993   3.106  16.847  0.00  0.00    +0.000 N 
ATOM      6  C   UNL     1       5.292   4.289  16.224  0.00  0.00    +0.000 A 
ATOM      7  N   UNL     1       4.851   5.307  16.935  0.00  0.00    +0.000 NA
ATOM      8  C   UNL     1       4.210   4.759  18.034  0.00  0.00    +0.000 A 
ATOM      9  C   UNL     1       3.530   5.394  19.100  0.00  0.00    +0.000 A 
ATOM     10  H   UNL     1       5.237   2.195  16.491  0.00  0.00    +0.000 HD
ENDROOT
BRANCH   6  11
ATOM     11  C   UNL     1       5.979   4.372  14.967  0.00  0.00    +0.000 A 
ATOM     12  C   UNL     1       7.159   5.041  14.702  0.00  0.00    +0.000 A 
ATOM     13  C   UNL     1       7.562   4.924  13.338  0.00  0.00    +0.000 A 
ATOM     14  C   UNL     1       6.676   4.170  12.602  0.00  0.00    +0.000 A 
ATOM     15  S   UNL     1       5.371   3.611  13.551  0.00  0.00    +0.000 S 
ENDBRANCH   6  11
BRANCH   1  16
ATOM     16  O   UNL     1       2.342   5.107  21.157  0.00  0.00    +0.000 OA
ATOM     17  H   UNL     1       2.554   6.054  21.192  0.00  0.00    +0.000 HD
ENDBRANCH   1  16
BRANCH   9  18
ATOM     18  C   UNL     1       3.434   6.898  19.202  0.00  0.00    +0.000 C 
BRANCH  18  19
ATOM     19  N   UNL     1       2.064   7.481  19.090  0.00  0.00    +0.000 NA
ATOM     20  C   UNL     1       2.011   8.427  17.969  0.00  0.00    +0.000 C 
ATOM     21  C   UNL     1       0.716   9.232  17.893  0.00  0.00    +0.000 C 
ATOM     22  C   UNL     1       0.384   9.976  19.199  0.00  0.00    +0.000 C 
ATOM     23  C   UNL     1       0.466   8.964  20.355  0.00  0.00    +0.000 C 
ATOM     24  C   UNL     1       1.767   8.160  20.361  0.00  0.00    +0.000 C 
BRANCH  22  25
ATOM     25  C   UNL     1      -0.972  10.701  19.129  0.00  0.00    +0.000 A 
ATOM     26  C   UNL     1      -1.925  10.383  18.144  0.00  0.00    +0.000 A 
ATOM     27  C   UNL     1      -3.135  11.078  18.046  0.00  0.00    +0.000 A 
ATOM     28  C   UNL     1      -3.434  12.092  18.948  0.00  0.00    +0.000 A 
ATOM     29  C   UNL     1      -2.534  12.394  19.963  0.00  0.00    +0.000 A 
ATOM     30  C   UNL     1      -1.323  11.700  20.058  0.00  0.00    +0.000 A 
ENDBRANCH  22  25
BRANCH  22  31
ATOM     31  O   UNL     1       1.387  10.980  19.417  0.00  0.00    +0.000 OA
ATOM     32  H   UNL     1       0.922  11.815  19.598  0.00  0.00    +0.000 HD
ENDBRANCH  22  31
ENDBRANCH  18  19
ENDBRANCH   9  18
TORSDOF 6
ENDMDL
MODEL 5
REMARK VINA RESULT:      -7.3      3.161      9.143
REMARK  Name = 
REMARK  6 active torsions:
REMARK  status: ('A' for Active; 'I' for Inactive)
REMARK    1  A    between atoms: O_1  and  C_2
REMARK    2  A    between atoms: C_7  and  C_8
REMARK    3  A    between atoms: C_15  and  C_16
REMARK    4  A    between atoms: C_16  and  N_17
REMARK    5  A    between atoms: C_20  and  O_21
REMARK    6  A    between atoms: C_20  and  C_22
REMARK                            x       y       z     vdW  Elec       q    Type
REMARK                         _______ _______ _______ _____ _____    ______ ____
ROOT
ATOM      1  C   UNL     1       1.529   4.668  19.864  0.00  0.00    +0.000 A 
ATOM      2  C   UNL     1       1.342   3.317  19.550  0.00  0.00    +0.000 A 
ATOM      3  C   UNL     1       2.076   2.709  18.532  0.00  0.00    +0.000 A 
ATOM      4  C   UNL     1       2.991   3.515  17.864  0.00  0.00    +0.000 A 
ATOM      5  N   UNL     1       3.856   3.253  16.836  0.00  0.00    +0.000 N 
ATOM      6  C   UNL     1       4.541   4.398  16.525  0.00  0.00    +0.000 A 
ATOM      7  N   UNL     1       4.185   5.379  17.328  0.00  0.00    +0.000 NA
ATOM      8  C   UNL     1       3.207   4.859  18.161  0.00  0.00    +0.000 A 
ATOM      9  C   UNL     1       2.460   5.484  19.186  0.00  0.00    +0.000 A 
ATOM     10  H   UNL     1       3.967   2.373  16.358  0.00  0.00    +0.000 HD
ENDROOT
BRANCH   6  11
ATOM     11  C   UNL     1       5.496   4.486  15.458  0.00  0.00    +0.000 A 
ATOM     12  C   UNL     1       5.348   4.024  14.164  0.00  0.00    +0.000 A 
ATOM     13  C   UNL     1       6.499   4.270  13.357  0.00  0.00    +0.000 A 
ATOM     14  C   UNL     1       7.494   4.910  14.062  0.00  0.00    +0.000 A 
ATOM     15  S   UNL     1       7.039   5.210  15.680  0.00  0.00    +0.000 S 
ENDBRANCH   6  11
BRANCH   1  16
ATOM     16  O   UNL     1       0.803   5.213  20.891  0.00  0.00    +0.000 OA
ATOM     17  H   UNL     1       1.145   4.877  21.735  0.00  0.00    +0.000 HD
ENDBRANCH   1  16
BRANCH   9  18
ATOM     18  C   UNL     1       2.676   6.931  19.564  0.00  0.00    +0.000 C 
BRANCH  18  19
ATOM     19  N   UNL     1       1.449   7.720  19.882  0.00  0.00    +0.000 NA
ATOM     20  C   UNL     1       1.424   8.951  19.084  0.00  0.00    +0.000 C 
ATOM     21  C   UNL     1       0.320   9.929  19.480  0.00  0.00    +0.000 C 
ATOM     22  C   UNL     1       0.339  10.295  20.974  0.00  0.00    +0.000 C 
ATOM     23  C   UNL     1       0.384   8.987  21.783  0.00  0.00    +0.000 C 
ATOM     24  C   UNL     1       1.484   8.030  21.320  0.00  0.00    +0.000 C 
BRANCH  22  25
ATOM     25  C   UNL     1      -0.840  11.205  21.367  0.00  0.00    +0.000 A 
ATOM     26  C   UNL     1      -1.579  11.909  20.399  0.00  0.00    +0.000 A 
ATOM     27  C   UNL     1      -2.615  12.777  20.759  0.00  0.00    +0.000 A 
ATOM     28  C   UNL     1      -2.957  12.943  22.095  0.00  0.00    +0.000 A 
ATOM     29  C   UNL     1      -2.278  12.221  23.070  0.00  0.00    +0.000 A 
ATOM     30  C   UNL     1      -1.240  11.355  22.710  0.00  0.00    +0.000 A 
ENDBRANCH  22  25
BRANCH  22  31
ATOM     31  O   UNL     1       1.543  11.027  21.248  0.00  0.00    +0.000 OA
ATOM     32  H   UNL     1       1.562  11.201  22.205  0.00  0.00    +0.000 HD
ENDBRANCH  22  31
ENDBRANCH  18  19
ENDBRANCH   9  18
TORSDOF 6
ENDMDL
MODEL 6
REMARK VINA RESULT:      -7.2      3.101      8.892
REMARK  Name = 
REMARK  6 active torsions:
REMARK  status: ('A' for Active; 'I' for Inactive)
REMARK    1  A    between atoms: O_1  and  C_2
REMARK    2  A    between atoms: C_7  and  C_8
REMARK    3  A    between atoms: C_15  and  C_16
REMARK    4  A    between atoms: C_16  and  N_17
REMARK    5  A    between atoms: C_20  and  O_21
REMARK    6  A    between atoms: C_20  and  C_22
REMARK                            x       y       z     vdW  Elec       q    Type
REMARK                         _______ _______ _______ _____ _____    ______ ____
ROOT
ATOM      1  C   UNL     1       1.299   4.165  19.778  0.00  0.00    +0.000 A 
ATOM      2  C   UNL     1       1.071   2.890  19.246  0.00  0.00    +0.000 A 
ATOM      3  C   UNL     1       1.836   2.410  18.182  0.00  0.00    +0.000 A 
ATOM      4  C   UNL     1       2.821   3.262  17.696  0.00  0.00    +0.000 A 
ATOM      5  N   UNL     1       3.731   3.119  16.683  0.00  0.00    +0.000 N 
ATOM      6  C   UNL     1       4.481   4.262  16.591  0.00  0.00    +0.000 A 
ATOM      7  N   UNL     1       4.123   5.123  17.521  0.00  0.00    +0.000 NA
ATOM      8  C   UNL     1       3.078   4.531  18.211  0.00  0.00    +0.000 A 
ATOM      9  C   UNL     1       2.301   5.026  19.284  0.00  0.00    +0.000 A 
ATOM     10  H   UNL     1       3.831   2.319  16.078  0.00  0.00    +0.000 HD
ENDROOT
BRANCH   6  11
ATOM     11  C   UNL     1       5.498   4.465  15.600  0.00  0.00    +0.000 A 
ATOM     12  C   UNL     1       5.459   4.084  14.272  0.00  0.00    +0.000 A 
ATOM     13  C   UNL     1       6.646   4.436  13.563  0.00  0.00    +0.000 A 
ATOM     14  C   UNL     1       7.559   5.074  14.374  0.00  0.00    +0.000 A 
ATOM     15  S   UNL     1       6.984   5.245  15.972  0.00  0.00    +0.000 S 
ENDBRANCH   6  11
BRANCH   1  16
ATOM     16  O   UNL     1       0.539   4.580  20.841  0.00  0.00    +0.000 OA
ATOM     17  H   UNL     1      -0.329   4.870  20.517  0.00  0.00    +0.000 HD
ENDBRANCH   1  16
BRANCH   9  18
ATOM     18  C   UNL     1       2.557   6.384  19.896  0.00  0.00    +0.000 C 
BRANCH  18  19
ATOM     19  N   UNL     1       1.401   7.329  19.914  0.00  0.00    +0.000 NA
ATOM     20  C   UNL     1       1.759   8.572  19.221  0.00  0.00    +0.000 C 
ATOM     21  C   UNL     1       0.722   9.684  19.360  0.00  0.00    +0.000 C 
ATOM     22  C   UNL     1       0.365  10.005  20.822  0.00  0.00    +0.000 C 
ATOM     23  C   UNL     1       0.013   8.682  21.525  0.00  0.00    +0.000 C 
ATOM     24  C   UNL     1       1.068   7.593  21.323  0.00  0.00    +0.000 C 
BRANCH  22  25
ATOM     25  C   UNL     1      -0.751  11.059  20.933  0.00  0.00    +0.000 A 
ATOM     26  C   UNL     1      -1.131  11.600  22.175  0.00  0.00    +0.000 A 
ATOM     27  C   UNL     1      -2.181  12.517  22.283  0.00  0.00    +0.000 A 
ATOM     28  C   UNL     1      -2.860  12.940  21.147  0.00  0.00    +0.000 A 
ATOM     29  C   UNL     1      -2.474  12.463  19.900  0.00  0.00    +0.000 A 
ATOM     30  C   UNL     1      -1.425  11.543  19.794  0.00  0.00    +0.000 A 
ENDBRANCH  22  25
BRANCH  22  31
ATOM     31  O   UNL     1       1.526  10.553  21.464  0.00  0.00    +0.000 OA
ATOM     32  H   UNL     1       2.187  10.717  20.770  0.00  0.00    +0.000 HD
ENDBRANCH  22  31
ENDBRANCH  18  19
ENDBRANCH   9  18
TORSDOF 6
ENDMDL
MODEL 7
REMARK VINA RESULT:      -7.2      3.710      6.123
REMARK  Name = 
REMARK  6 active torsions:
REMARK  status: ('A' for Active; 'I' for Inactive)
REMARK    1  A    between atoms: O_1  and  C_2
REMARK    2  A    between atoms: C_7  and  C_8
REMARK    3  A    between atoms: C_15  and  C_16
REMARK    4  A    between atoms: C_16  and  N_17
REMARK    5  A    between atoms: C_20  and  O_21
REMARK    6  A    between atoms: C_20  and  C_22
REMARK                            x       y       z     vdW  Elec       q    Type
REMARK                         _______ _______ _______ _____ _____    ______ ____
ROOT
ATOM      1  C   UNL     1       0.699  10.294  21.863  0.00  0.00    +0.000 A 
ATOM      2  C   UNL     1       0.360  11.647  21.980  0.00  0.00    +0.000 A 
ATOM      3  C   UNL     1      -0.464  12.264  21.039  0.00  0.00    +0.000 A 
ATOM      4  C   UNL     1      -0.919  11.463  19.997  0.00  0.00    +0.000 A 
ATOM      5  N   UNL     1      -1.722  11.735  18.923  0.00  0.00    +0.000 N 
ATOM      6  C   UNL     1      -1.863  10.598  18.171  0.00  0.00    +0.000 A 
ATOM      7  N   UNL     1      -1.218   9.595  18.729  0.00  0.00    +0.000 NA
ATOM      8  C   UNL     1      -0.606  10.113  19.859  0.00  0.00    +0.000 A 
ATOM      9  C   UNL     1       0.235   9.483  20.806  0.00  0.00    +0.000 A 
ATOM     10  H   UNL     1      -2.132  12.627  18.693  0.00  0.00    +0.000 HD
ENDROOT
BRANCH   6  11
ATOM     11  C   UNL     1      -2.606  10.546  16.945  0.00  0.00    +0.000 A 
ATOM     12  C   UNL     1      -2.277   9.850  15.797  0.00  0.00    +0.000 A 
ATOM     13  C   UNL     1      -3.237  10.021  14.755  0.00  0.00    +0.000 A 
ATOM     14  C   UNL     1      -4.271  10.847  15.139  0.00  0.00    +0.000 A 
ATOM     15  S   UNL     1      -4.081  11.406  16.741  0.00  0.00    +0.000 S 
ENDBRANCH   6  11
BRANCH   1  16
ATOM     16  O   UNL     1       1.489   9.728  22.829  0.00  0.00    +0.000 OA
ATOM     17  H   UNL     1       0.964   9.084  23.332  0.00  0.00    +0.000 HD
ENDBRANCH   1  16
BRANCH   9  18
ATOM     18  C   UNL     1       0.581   8.015  20.716  0.00  0.00    +0.000 C 
BRANCH  18  19
ATOM     19  N   UNL     1       1.908   7.686  20.116  0.00  0.00    +0.000 NA
ATOM     20  C   UNL     1       1.889   7.965  18.675  0.00  0.00    +0.000 C 
ATOM     21  C   UNL     1       3.125   7.471  17.927  0.00  0.00    +0.000 C 
ATOM     22  C   UNL     1       3.413   5.976  18.149  0.00  0.00    +0.000 C 
ATOM     23  C   UNL     1       3.408   5.712  19.665  0.00  0.00    +0.000 C 
ATOM     24  C   UNL     1       2.165   6.259  20.368  0.00  0.00    +0.000 C 
BRANCH  22  25
ATOM     25  C   UNL     1       4.716   5.525  17.464  0.00  0.00    +0.000 A 
ATOM     26  C   UNL     1       5.929   6.208  17.669  0.00  0.00    +0.000 A 
ATOM     27  C   UNL     1       7.102   5.833  17.006  0.00  0.00    +0.000 A 
ATOM     28  C   UNL     1       7.098   4.746  16.141  0.00  0.00    +0.000 A 
ATOM     29  C   UNL     1       5.927   4.020  15.958  0.00  0.00    +0.000 A 
ATOM     30  C   UNL     1       4.754   4.398  16.619  0.00  0.00    +0.000 A 
ENDBRANCH  22  25
BRANCH  22  31
ATOM     31  O   UNL     1       2.346   5.215  17.563  0.00  0.00    +0.000 OA
ATOM     32  H   UNL     1       2.753   4.481  17.072  0.00  0.00    +0.000 HD
ENDBRANCH  22  31
ENDBRANCH  18  19
ENDBRANCH   9  18
TORSDOF 6
ENDMDL
MODEL 8
REMARK VINA RESULT:      -6.9      5.298      9.390
REMARK  Name = 
REMARK  6 active torsions:
REMARK  status: ('A' for Active; 'I' for Inactive)
REMARK    1  A    between atoms: O_1  and  C_2
REMARK    2  A    between atoms: C_7  and  C_8
REMARK    3  A    between atoms: C_15  and  C_16
REMARK    4  A    between atoms: C_16  and  N_17
REMARK    5  A    between atoms: C_20  and  O_21
REMARK    6  A    between atoms: C_20  and  C_22
REMARK                            x       y       z     vdW  Elec       q    Type
REMARK                         _______ _______ _______ _____ _____    ______ ____
ROOT
ATOM      1  C   UNL     1      -2.874  13.786  23.124  0.00  0.00    +0.000 A 
ATOM      2  C   UNL     1      -3.996  14.535  22.751  0.00  0.00    +0.000 A 
ATOM      3  C   UNL     1      -4.576  14.379  21.492  0.00  0.00    +0.000 A 
ATOM      4  C   UNL     1      -3.980  13.447  20.648  0.00  0.00    +0.000 A 
ATOM      5  N   UNL     1      -4.279  13.051  19.373  0.00  0.00    +0.000 N 
ATOM      6  C   UNL     1      -3.372  12.104  18.975  0.00  0.00    +0.000 A 
ATOM      7  N   UNL     1      -2.523  11.843  19.948  0.00  0.00    +0.000 NA
ATOM      8  C   UNL     1      -2.870  12.681  20.996  0.00  0.00    +0.000 A 
ATOM      9  C   UNL     1      -2.273  12.840  22.268  0.00  0.00    +0.000 A 
ATOM     10  H   UNL     1      -5.026  13.405  18.796  0.00  0.00    +0.000 HD
ENDROOT
BRANCH   6  11
ATOM     11  C   UNL     1      -3.368  11.508  17.670  0.00  0.00    +0.000 A 
ATOM     12  C   UNL     1      -2.318  10.856  17.052  0.00  0.00    +0.000 A 
ATOM     13  C   UNL     1      -2.654  10.388  15.746  0.00  0.00    +0.000 A 
ATOM     14  C   UNL     1      -3.951  10.700  15.405  0.00  0.00    +0.000 A 
ATOM     15  S   UNL     1      -4.753  11.549  16.651  0.00  0.00    +0.000 S 
ENDBRANCH   6  11
BRANCH   1  16
ATOM     16  O   UNL     1      -2.358  13.956  24.383  0.00  0.00    +0.000 OA
ATOM     17  H   UNL     1      -1.435  13.656  24.391  0.00  0.00    +0.000 HD
ENDBRANCH   1  16
BRANCH   9  18
ATOM     18  C   UNL     1      -1.084  12.014  22.702  0.00  0.00    +0.000 C 
BRANCH  18  19
ATOM     19  N   UNL     1      -0.755  10.833  21.849  0.00  0.00    +0.000 NA
ATOM     20  C   UNL     1      -0.655   9.627  22.679  0.00  0.00    +0.000 C 
ATOM     21  C   UNL     1      -0.121   8.403  21.940  0.00  0.00    +0.000 C 
ATOM     22  C   UNL     1       1.230   8.652  21.247  0.00  0.00    +0.000 C 
ATOM     23  C   UNL     1       1.100   9.931  20.401  0.00  0.00    +0.000 C 
ATOM     24  C   UNL     1       0.526  11.114  21.181  0.00  0.00    +0.000 C 
BRANCH  22  25
ATOM     25  C   UNL     1       1.701   7.436  20.430  0.00  0.00    +0.000 A 
ATOM     26  C   UNL     1       1.567   6.124  20.921  0.00  0.00    +0.000 A 
ATOM     27  C   UNL     1       2.043   5.022  20.204  0.00  0.00    +0.000 A 
ATOM     28  C   UNL     1       2.641   5.201  18.963  0.00  0.00    +0.000 A 
ATOM     29  C   UNL     1       2.741   6.480  18.428  0.00  0.00    +0.000 A 
ATOM     30  C   UNL     1       2.267   7.582  19.148  0.00  0.00    +0.000 A 
ENDBRANCH  22  25
BRANCH  22  31
ATOM     31  O   UNL     1       2.222   8.888  22.258  0.00  0.00    +0.000 OA
ATOM     32  H   UNL     1       2.238   8.105  22.834  0.00  0.00    +0.000 HD
ENDBRANCH  22  31
ENDBRANCH  18  19
ENDBRANCH   9  18
TORSDOF 6
ENDMDL
MODEL 9
REMARK VINA RESULT:      -6.9      5.197      9.393
REMARK  Name = 
REMARK  6 active torsions:
REMARK  status: ('A' for Active; 'I' for Inactive)
REMARK    1  A    between atoms: O_1  and  C_2
REMARK    2  A    between atoms: C_7  and  C_8
REMARK    3  A    between atoms: C_15  and  C_16
REMARK    4  A    between atoms: C_16  and  N_17
REMARK    5  A    between atoms: C_20  and  O_21
REMARK    6  A    between atoms: C_20  and  C_22
REMARK                            x       y       z     vdW  Elec       q    Type
REMARK                         _______ _______ _______ _____ _____    ______ ____
ROOT
ATOM      1  C   UNL     1      -2.833  13.826  23.029  0.00  0.00    +0.000 A 
ATOM      2  C   UNL     1      -3.934  14.594  22.631  0.00  0.00    +0.000 A 
ATOM      3  C   UNL     1      -4.516  14.415  21.376  0.00  0.00    +0.000 A 
ATOM      4  C   UNL     1      -3.945  13.443  20.563  0.00  0.00    +0.000 A 
ATOM      5  N   UNL     1      -4.254  13.017  19.299  0.00  0.00    +0.000 N 
ATOM      6  C   UNL     1      -3.373  12.034  18.932  0.00  0.00    +0.000 A 
ATOM      7  N   UNL     1      -2.532  11.779  19.913  0.00  0.00    +0.000 NA
ATOM      8  C   UNL     1      -2.856  12.658  20.934  0.00  0.00    +0.000 A 
ATOM      9  C   UNL     1      -2.256  12.839  22.202  0.00  0.00    +0.000 A 
ATOM     10  H   UNL     1      -4.991  13.373  18.711  0.00  0.00    +0.000 HD
ENDROOT
BRANCH   6  11
ATOM     11  C   UNL     1      -3.384  11.399  17.645  0.00  0.00    +0.000 A 
ATOM     12  C   UNL     1      -4.347  11.523  16.660  0.00  0.00    +0.000 A 
ATOM     13  C   UNL     1      -4.049  10.747  15.500  0.00  0.00    +0.000 A 
ATOM     14  C   UNL     1      -2.868  10.051  15.635  0.00  0.00    +0.000 A 
ATOM     15  S   UNL     1      -2.129  10.335  17.148  0.00  0.00    +0.000 S 
ENDBRANCH   6  11
BRANCH   1  16
ATOM     16  O   UNL     1      -2.313  14.021  24.282  0.00  0.00    +0.000 OA
ATOM     17  H   UNL     1      -2.386  13.195  24.788  0.00  0.00    +0.000 HD
ENDBRANCH   1  16
BRANCH   9  18
ATOM     18  C   UNL     1      -1.091  11.995  22.663  0.00  0.00    +0.000 C 
BRANCH  18  19
ATOM     19  N   UNL     1      -0.761  10.808  21.818  0.00  0.00    +0.000 NA
ATOM     20  C   UNL     1      -0.679   9.605  22.655  0.00  0.00    +0.000 C 
ATOM     21  C   UNL     1      -0.146   8.374  21.926  0.00  0.00    +0.000 C 
ATOM     22  C   UNL     1       1.214   8.611  21.245  0.00  0.00    +0.000 C 
ATOM     23  C   UNL     1       1.101   9.887  20.392  0.00  0.00    +0.000 C 
ATOM     24  C   UNL     1       0.528  11.077  21.162  0.00  0.00    +0.000 C 
BRANCH  22  25
ATOM     25  C   UNL     1       1.683   7.387  20.438  0.00  0.00    +0.000 A 
ATOM     26  C   UNL     1       2.307   7.529  19.184  0.00  0.00    +0.000 A 
ATOM     27  C   UNL     1       2.684   6.417  18.425  0.00  0.00    +0.000 A 
ATOM     28  C   UNL     1       2.474   5.133  18.913  0.00  0.00    +0.000 A 
ATOM     29  C   UNL     1       1.907   4.962  20.170  0.00  0.00    +0.000 A 
ATOM     30  C   UNL     1       1.527   6.075  20.927  0.00  0.00    +0.000 A 
ENDBRANCH  22  25
BRANCH  22  31
ATOM     31  O   UNL     1       2.198   8.844  22.264  0.00  0.00    +0.000 OA
ATOM     32  H   UNL     1       1.846   8.477  23.093  0.00  0.00    +0.000 HD
ENDBRANCH  22  31
ENDBRANCH  18  19
ENDBRANCH   9  18
TORSDOF 6
ENDMDL
