MODEL 1
REMARK VINA RESULT:      -6.9      0.000      0.000
REMARK  Name = 
REMARK  5 active torsions:
REMARK  status: ('A' for Active; 'I' for Inactive)
REMARK    1  A    between atoms: C_2  and  C_3
REMARK    2  A    between atoms: C_8  and  N_9
REMARK    3  A    between atoms: C_14  and  C_16
REMARK    4  A    between atoms: C_16  and  C_17
REMARK    5  A    between atoms: C_17  and  C_18
REMARK                            x       y       z     vdW  Elec       q    Type
REMARK                         _______ _______ _______ _____ _____    ______ ____
ROOT
ATOM      1  N   UNL     1       4.513   4.368  18.335  0.00  0.00    +0.000 N 
ATOM      2  C   UNL     1       4.745   5.563  19.169  0.00  0.00    +0.000 C 
ATOM      3  C   UNL     1       6.083   5.474  19.885  0.00  0.00    +0.000 C 
ATOM      4  C   UNL     1       7.290   5.161  19.013  0.00  0.00    +0.000 C 
ATOM      5  N   UNL     1       7.159   5.579  17.619  0.00  0.00    +0.000 N 
ATOM      6  C   UNL     1       7.548   6.823  17.122  0.00  0.00    +0.000 C 
ATOM      7  O   UNL     1       7.355   7.154  15.954  0.00  0.00    +0.000 OA
ATOM      8  C   UNL     1       6.465   4.620  16.741  0.00  0.00    +0.000 C 
ATOM      9  C   UNL     1       4.929   4.562  16.911  0.00  0.00    +0.000 C 
ENDROOT
BRANCH   1  15
ATOM     10  C   UNL     1       3.191   2.556  19.369  0.00  0.00    +0.000 A 
ATOM     11  C   UNL     1       1.973   1.861  19.515  0.00  0.00    +0.000 A 
ATOM     12  C   UNL     1       0.834   2.273  18.831  0.00  0.00    +0.000 A 
ATOM     13  C   UNL     1       0.906   3.376  17.996  0.00  0.00    +0.000 A 
ATOM     14  C   UNL     1       2.121   4.050  17.821  0.00  0.00    +0.000 A 
ATOM     15  C   UNL     1       3.298   3.668  18.496  0.00  0.00    +0.000 A 
BRANCH  10  17
ATOM     16  N   UNL     1       5.179   1.770  20.849  0.00  0.00    +0.000 NA
ATOM     17  C   UNL     1       4.301   2.120  20.171  0.00  0.00    +0.000 C 
ENDBRANCH  10  17
ENDBRANCH   1  15
BRANCH   6  18
ATOM     18  C   UNL     1       8.217   7.757  18.117  0.00  0.00    +0.000 C 
BRANCH  18  19
ATOM     19  C   UNL     1       7.949   9.238  17.857  0.00  0.00    +0.000 C 
BRANCH  19  20
ATOM     20  C   UNL     1       8.977  10.079  18.534  0.00  0.00    +0.000 A 
ATOM     21  C   UNL     1       9.294  10.321  19.854  0.00  0.00    +0.000 A 
ATOM     22  C   UNL     1      10.360  11.252  19.847  0.00  0.00    +0.000 A 
ATOM     23  C   UNL     1      10.628  11.519  18.525  0.00  0.00    +0.000 A 
ATOM     24  O   UNL     1       9.796  10.808  17.721  0.00  0.00    +0.000 OA
ENDBRANCH  19  20
ENDBRANCH  18  19
ENDBRANCH   6  18
TORSDOF 5
ENDMDL
MODEL 2
REMARK VINA RESULT:      -6.4      3.623      5.944
REMARK  Name = 
REMARK  5 active torsions:
REMARK  status: ('A' for Active; 'I' for Inactive)
REMARK    1  A    between atoms: C_2  and  C_3
REMARK    2  A    between atoms: C_8  and  N_9
REMARK    3  A    between atoms: C_14  and  C_16
REMARK    4  A    between atoms: C_16  and  C_17
REMARK    5  A    between atoms: C_17  and  C_18
REMARK                            x       y       z     vdW  Elec       q    Type
REMARK                         _______ _______ _______ _____ _____    ______ ____
ROOT
ATOM      1  N   UNL     1       4.104   4.432  18.717  0.00  0.00    +0.000 N 
ATOM      2  C   UNL     1       3.755   4.321  17.288  0.00  0.00    +0.000 C 
ATOM      3  C   UNL     1       3.901   5.661  16.587  0.00  0.00    +0.000 C 
ATOM      4  C   UNL     1       5.230   6.377  16.781  0.00  0.00    +0.000 C 
ATOM      5  N   UNL     1       6.362   5.496  17.059  0.00  0.00    +0.000 N 
ATOM      6  C   UNL     1       7.191   4.938  16.087  0.00  0.00    +0.000 C 
ATOM      7  O   UNL     1       8.091   4.147  16.366  0.00  0.00    +0.000 OA
ATOM      8  C   UNL     1       6.529   5.121  18.474  0.00  0.00    +0.000 C 
ATOM      9  C   UNL     1       5.526   4.066  19.000  0.00  0.00    +0.000 C 
ENDROOT
BRANCH   1  15
ATOM     10  C   UNL     1       2.282   4.821  20.339  0.00  0.00    +0.000 A 
ATOM     11  C   UNL     1       1.368   4.328  21.293  0.00  0.00    +0.000 A 
ATOM     12  C   UNL     1       1.300   2.967  21.575  0.00  0.00    +0.000 A 
ATOM     13  C   UNL     1       2.147   2.094  20.910  0.00  0.00    +0.000 A 
ATOM     14  C   UNL     1       3.079   2.582  19.986  0.00  0.00    +0.000 A 
ATOM     15  C   UNL     1       3.179   3.951  19.669  0.00  0.00    +0.000 A 
BRANCH  10  17
ATOM     16  N   UNL     1       2.175   7.357  19.777  0.00  0.00    +0.000 NA
ATOM     17  C   UNL     1       2.235   6.226  20.044  0.00  0.00    +0.000 C 
ENDBRANCH  10  17
ENDBRANCH   1  15
BRANCH   6  18
ATOM     18  C   UNL     1       6.911   5.355  14.653  0.00  0.00    +0.000 C 
BRANCH  18  19
ATOM     19  C   UNL     1       7.478   4.400  13.605  0.00  0.00    +0.000 C 
BRANCH  19  20
ATOM     20  C   UNL     1       6.376   3.791  12.807  0.00  0.00    +0.000 A 
ATOM     21  C   UNL     1       5.024   4.042  12.699  0.00  0.00    +0.000 A 
ATOM     22  C   UNL     1       4.509   3.086  11.790  0.00  0.00    +0.000 A 
ATOM     23  C   UNL     1       5.578   2.313  11.400  0.00  0.00    +0.000 A 
ATOM     24  O   UNL     1       6.715   2.736  12.009  0.00  0.00    +0.000 OA
ENDBRANCH  19  20
ENDBRANCH  18  19
ENDBRANCH   6  18
TORSDOF 5
ENDMDL
MODEL 3
REMARK VINA RESULT:      -6.4      1.217      1.358
REMARK  Name = 
REMARK  5 active torsions:
REMARK  status: ('A' for Active; 'I' for Inactive)
REMARK    1  A    between atoms: C_2  and  C_3
REMARK    2  A    between atoms: C_8  and  N_9
REMARK    3  A    between atoms: C_14  and  C_16
REMARK    4  A    between atoms: C_16  and  C_17
REMARK    5  A    between atoms: C_17  and  C_18
REMARK                            x       y       z     vdW  Elec       q    Type
REMARK                         _______ _______ _______ _____ _____    ______ ____
ROOT
ATOM      1  N   UNL     1       4.132   4.284  18.909  0.00  0.00    +0.000 N 
ATOM      2  C   UNL     1       4.667   5.594  19.329  0.00  0.00    +0.000 C 
ATOM      3  C   UNL     1       6.162   5.511  19.590  0.00  0.00    +0.000 C 
ATOM      4  C   UNL     1       7.003   4.896  18.481  0.00  0.00    +0.000 C 
ATOM      5  N   UNL     1       6.435   5.027  17.142  0.00  0.00    +0.000 N 
ATOM      6  C   UNL     1       6.680   6.092  16.275  0.00  0.00    +0.000 C 
ATOM      7  O   UNL     1       6.126   6.192  15.182  0.00  0.00    +0.000 OA
ATOM      8  C   UNL     1       5.458   3.988  16.772  0.00  0.00    +0.000 C 
ATOM      9  C   UNL     1       4.062   4.133  17.423  0.00  0.00    +0.000 C 
ENDROOT
BRANCH   1  15
ATOM     10  C   UNL     1       3.129   2.654  20.470  0.00  0.00    +0.000 A 
ATOM     11  C   UNL     1       2.003   2.144  21.149  0.00  0.00    +0.000 A 
ATOM     12  C   UNL     1       0.756   2.745  21.008  0.00  0.00    +0.000 A 
ATOM     13  C   UNL     1       0.626   3.853  20.186  0.00  0.00    +0.000 A 
ATOM     14  C   UNL     1       1.734   4.344  19.484  0.00  0.00    +0.000 A 
ATOM     15  C   UNL     1       3.015   3.767  19.600  0.00  0.00    +0.000 A 
BRANCH  10  17
ATOM     16  N   UNL     1       5.425   1.542  20.974  0.00  0.00    +0.000 NA
ATOM     17  C   UNL     1       4.396   2.030  20.731  0.00  0.00    +0.000 C 
ENDBRANCH  10  17
ENDBRANCH   1  15
BRANCH   6  18
ATOM     18  C   UNL     1       7.672   7.135  16.766  0.00  0.00    +0.000 C 
BRANCH  18  19
ATOM     19  C   UNL     1       7.022   8.344  17.434  0.00  0.00    +0.000 C 
BRANCH  19  20
ATOM     20  C   UNL     1       8.064   9.252  17.993  0.00  0.00    +0.000 A 
ATOM     21  C   UNL     1       8.990   9.131  19.008  0.00  0.00    +0.000 A 
ATOM     22  C   UNL     1       9.677  10.367  19.075  0.00  0.00    +0.000 A 
ATOM     23  C   UNL     1       9.129  11.163  18.096  0.00  0.00    +0.000 A 
ATOM     24  O   UNL     1       8.153  10.493  17.432  0.00  0.00    +0.000 OA
ENDBRANCH  19  20
ENDBRANCH  18  19
ENDBRANCH   6  18
TORSDOF 5
ENDMDL
MODEL 4
REMARK VINA RESULT:      -6.1      1.569      2.185
REMARK  Name = 
REMARK  5 active torsions:
REMARK  status: ('A' for Active; 'I' for Inactive)
REMARK    1  A    between atoms: C_2  and  C_3
REMARK    2  A    between atoms: C_8  and  N_9
REMARK    3  A    between atoms: C_14  and  C_16
REMARK    4  A    between atoms: C_16  and  C_17
REMARK    5  A    between atoms: C_17  and  C_18
REMARK                            x       y       z     vdW  Elec       q    Type
REMARK                         _______ _______ _______ _____ _____    ______ ____
ROOT
ATOM      1  N   UNL     1       4.927   5.172  18.097  0.00  0.00    +0.000 N 
ATOM      2  C   UNL     1       5.583   5.639  19.333  0.00  0.00    +0.000 C 
ATOM      3  C   UNL     1       7.064   5.299  19.323  0.00  0.00    +0.000 C 
ATOM      4  C   UNL     1       7.841   5.724  18.085  0.00  0.00    +0.000 C 
ATOM      5  N   UNL     1       7.284   6.878  17.383  0.00  0.00    +0.000 N 
ATOM      6  C   UNL     1       7.627   8.205  17.639  0.00  0.00    +0.000 C 
ATOM      7  O   UNL     1       7.081   9.148  17.068  0.00  0.00    +0.000 OA
ATOM      8  C   UNL     1       6.213   6.567  16.420  0.00  0.00    +0.000 C 
ATOM      9  C   UNL     1       4.839   6.233  17.047  0.00  0.00    +0.000 C 
ENDROOT
BRANCH   1  15
ATOM     10  C   UNL     1       2.578   4.878  18.803  0.00  0.00    +0.000 A 
ATOM     11  C   UNL     1       1.428   4.070  18.922  0.00  0.00    +0.000 A 
ATOM     12  C   UNL     1       1.423   2.766  18.435  0.00  0.00    +0.000 A 
ATOM     13  C   UNL     1       2.564   2.264  17.831  0.00  0.00    +0.000 A 
ATOM     14  C   UNL     1       3.719   3.051  17.739  0.00  0.00    +0.000 A 
ATOM     15  C   UNL     1       3.767   4.375  18.217  0.00  0.00    +0.000 A 
BRANCH  10  17
ATOM     16  N   UNL     1       2.407   7.329  19.655  0.00  0.00    +0.000 NA
ATOM     17  C   UNL     1       2.479   6.238  19.256  0.00  0.00    +0.000 C 
ENDBRANCH  10  17
ENDBRANCH   1  15
BRANCH   6  18
ATOM     18  C   UNL     1       8.713   8.423  18.681  0.00  0.00    +0.000 C 
BRANCH  18  19
ATOM     19  C   UNL     1       8.617   9.762  19.408  0.00  0.00    +0.000 C 
BRANCH  19  20
ATOM     20  C   UNL     1       9.774  10.631  19.053  0.00  0.00    +0.000 A 
ATOM     21  C   UNL     1      10.757  11.261  19.788  0.00  0.00    +0.000 A 
ATOM     22  C   UNL     1      11.555  11.976  18.863  0.00  0.00    +0.000 A 
ATOM     23  C   UNL     1      11.011  11.738  17.623  0.00  0.00    +0.000 A 
ATOM     24  O   UNL     1       9.933  10.920  17.728  0.00  0.00    +0.000 OA
ENDBRANCH  19  20
ENDBRANCH  18  19
ENDBRANCH   6  18
TORSDOF 5
ENDMDL
MODEL 5
REMARK VINA RESULT:      -6.0      1.656      2.301
REMARK  Name = 
REMARK  5 active torsions:
REMARK  status: ('A' for Active; 'I' for Inactive)
REMARK    1  A    between atoms: C_2  and  C_3
REMARK    2  A    between atoms: C_8  and  N_9
REMARK    3  A    between atoms: C_14  and  C_16
REMARK    4  A    between atoms: C_16  and  C_17
REMARK    5  A    between atoms: C_17  and  C_18
REMARK                            x       y       z     vdW  Elec       q    Type
REMARK                         _______ _______ _______ _____ _____    ______ ____
ROOT
ATOM      1  N   UNL     1       4.985   5.189  18.107  0.00  0.00    +0.000 N 
ATOM      2  C   UNL     1       5.534   5.758  19.352  0.00  0.00    +0.000 C 
ATOM      3  C   UNL     1       7.028   5.498  19.457  0.00  0.00    +0.000 C 
ATOM      4  C   UNL     1       7.863   5.895  18.248  0.00  0.00    +0.000 C 
ATOM      5  N   UNL     1       7.297   6.977  17.445  0.00  0.00    +0.000 N 
ATOM      6  C   UNL     1       7.555   8.333  17.644  0.00  0.00    +0.000 C 
ATOM      7  O   UNL     1       7.003   9.212  16.986  0.00  0.00    +0.000 OA
ATOM      8  C   UNL     1       6.310   6.557  16.436  0.00  0.00    +0.000 C 
ATOM      9  C   UNL     1       4.915   6.185  16.993  0.00  0.00    +0.000 C 
ENDROOT
BRANCH   1  15
ATOM     10  C   UNL     1       2.636   4.787  18.754  0.00  0.00    +0.000 A 
ATOM     11  C   UNL     1       1.523   3.926  18.846  0.00  0.00    +0.000 A 
ATOM     12  C   UNL     1       1.590   2.623  18.362  0.00  0.00    +0.000 A 
ATOM     13  C   UNL     1       2.768   2.174  17.788  0.00  0.00    +0.000 A 
ATOM     14  C   UNL     1       3.887   3.014  17.723  0.00  0.00    +0.000 A 
ATOM     15  C   UNL     1       3.861   4.340  18.199  0.00  0.00    +0.000 A 
BRANCH  10  17
ATOM     16  N   UNL     1       2.303   7.246  19.533  0.00  0.00    +0.000 NA
ATOM     17  C   UNL     1       2.462   6.141  19.201  0.00  0.00    +0.000 C 
ENDBRANCH  10  17
ENDBRANCH   1  15
BRANCH   6  18
ATOM     18  C   UNL     1       8.558   8.666  18.738  0.00  0.00    +0.000 C 
BRANCH  18  19
ATOM     19  C   UNL     1       9.417   9.893  18.441  0.00  0.00    +0.000 C 
BRANCH  19  20
ATOM     20  C   UNL     1       9.298  10.890  19.543  0.00  0.00    +0.000 A 
ATOM     21  C   UNL     1       9.305  10.798  20.919  0.00  0.00    +0.000 A 
ATOM     22  C   UNL     1       9.113  12.112  21.411  0.00  0.00    +0.000 A 
ATOM     23  C   UNL     1       9.003  12.923  20.305  0.00  0.00    +0.000 A 
ATOM     24  O   UNL     1       9.118  12.191  19.168  0.00  0.00    +0.000 OA
ENDBRANCH  19  20
ENDBRANCH  18  19
ENDBRANCH   6  18
TORSDOF 5
ENDMDL
MODEL 6
REMARK VINA RESULT:      -5.9      4.190      6.652
REMARK  Name = 
REMARK  5 active torsions:
REMARK  status: ('A' for Active; 'I' for Inactive)
REMARK    1  A    between atoms: C_2  and  C_3
REMARK    2  A    between atoms: C_8  and  N_9
REMARK    3  A    between atoms: C_14  and  C_16
REMARK    4  A    between atoms: C_16  and  C_17
REMARK    5  A    between atoms: C_17  and  C_18
REMARK                            x       y       z     vdW  Elec       q    Type
REMARK                         _______ _______ _______ _____ _____    ______ ____
ROOT
ATOM      1  N   UNL     1       2.385   7.353  19.353  0.00  0.00    +0.000 N 
ATOM      2  C   UNL     1       2.322   7.346  17.879  0.00  0.00    +0.000 C 
ATOM      3  C   UNL     1       3.692   7.609  17.276  0.00  0.00    +0.000 C 
ATOM      4  C   UNL     1       4.829   6.736  17.789  0.00  0.00    +0.000 C 
ATOM      5  N   UNL     1       4.415   5.425  18.284  0.00  0.00    +0.000 N 
ATOM      6  C   UNL     1       4.332   4.272  17.505  0.00  0.00    +0.000 C 
ATOM      7  O   UNL     1       3.913   3.205  17.951  0.00  0.00    +0.000 OA
ATOM      8  C   UNL     1       3.963   5.400  19.686  0.00  0.00    +0.000 C 
ATOM      9  C   UNL     1       2.553   5.985  19.936  0.00  0.00    +0.000 C 
ENDROOT
BRANCH   1  15
ATOM     10  C   UNL     1       1.228   9.514  19.657  0.00  0.00    +0.000 A 
ATOM     11  C   UNL     1       0.326  10.328  20.371  0.00  0.00    +0.000 A 
ATOM     12  C   UNL     1      -0.369   9.827  21.468  0.00  0.00    +0.000 A 
ATOM     13  C   UNL     1      -0.162   8.513  21.858  0.00  0.00    +0.000 A 
ATOM     14  C   UNL     1       0.757   7.710  21.172  0.00  0.00    +0.000 A 
ATOM     15  C   UNL     1       1.479   8.177  20.056  0.00  0.00    +0.000 A 
BRANCH  10  17
ATOM     16  N   UNL     1       2.316  10.560  17.540  0.00  0.00    +0.000 NA
ATOM     17  C   UNL     1       1.844  10.079  18.488  0.00  0.00    +0.000 C 
ENDBRANCH  10  17
ENDBRANCH   1  15
BRANCH   6  18
ATOM     18  C   UNL     1       4.782   4.411  16.059  0.00  0.00    +0.000 C 
BRANCH  18  19
ATOM     19  C   UNL     1       6.242   4.032  15.823  0.00  0.00    +0.000 C 
BRANCH  19  20
ATOM     20  C   UNL     1       6.611   4.249  14.395  0.00  0.00    +0.000 A 
ATOM     21  C   UNL     1       6.225   3.659  13.209  0.00  0.00    +0.000 A 
ATOM     22  C   UNL     1       6.969   4.292  12.184  0.00  0.00    +0.000 A 
ATOM     23  C   UNL     1       7.760   5.228  12.808  0.00  0.00    +0.000 A 
ATOM     24  O   UNL     1       7.547   5.212  14.148  0.00  0.00    +0.000 OA
ENDBRANCH  19  20
ENDBRANCH  18  19
ENDBRANCH   6  18
TORSDOF 5
ENDMDL
MODEL 7
REMARK VINA RESULT:      -5.8      4.763      7.101
REMARK  Name = 
REMARK  5 active torsions:
REMARK  status: ('A' for Active; 'I' for Inactive)
REMARK    1  A    between atoms: C_2  and  C_3
REMARK    2  A    between atoms: C_8  and  N_9
REMARK    3  A    between atoms: C_14  and  C_16
REMARK    4  A    between atoms: C_16  and  C_17
REMARK    5  A    between atoms: C_17  and  C_18
REMARK                            x       y       z     vdW  Elec       q    Type
REMARK                         _______ _______ _______ _____ _____    ______ ____
ROOT
ATOM      1  N   UNL     1       1.325   8.117  20.162  0.00  0.00    +0.000 N 
ATOM      2  C   UNL     1       2.051   7.002  20.799  0.00  0.00    +0.000 C 
ATOM      3  C   UNL     1       1.683   5.675  20.156  0.00  0.00    +0.000 C 
ATOM      4  C   UNL     1       1.789   5.614  18.639  0.00  0.00    +0.000 C 
ATOM      5  N   UNL     1       2.761   6.538  18.058  0.00  0.00    +0.000 N 
ATOM      6  C   UNL     1       4.103   6.238  17.826  0.00  0.00    +0.000 C 
ATOM      7  O   UNL     1       4.899   7.071  17.398  0.00  0.00    +0.000 OA
ATOM      8  C   UNL     1       2.260   7.903  17.818  0.00  0.00    +0.000 C 
ATOM      9  C   UNL     1       2.114   8.784  19.081  0.00  0.00    +0.000 C 
ENDROOT
BRANCH   1  15
ATOM     10  C   UNL     1      -0.285   9.967  20.452  0.00  0.00    +0.000 A 
ATOM     11  C   UNL     1      -0.992  10.853  21.290  0.00  0.00    +0.000 A 
ATOM     12  C   UNL     1      -0.858  10.782  22.674  0.00  0.00    +0.000 A 
ATOM     13  C   UNL     1      -0.015   9.830  23.224  0.00  0.00    +0.000 A 
ATOM     14  C   UNL     1       0.714   8.969  22.395  0.00  0.00    +0.000 A 
ATOM     15  C   UNL     1       0.606   9.006  20.990  0.00  0.00    +0.000 A 
BRANCH  10  17
ATOM     16  N   UNL     1      -0.746  10.152  17.899  0.00  0.00    +0.000 NA
ATOM     17  C   UNL     1      -0.540  10.050  19.040  0.00  0.00    +0.000 C 
ENDBRANCH  10  17
ENDBRANCH   1  15
BRANCH   6  18
ATOM     18  C   UNL     1       4.531   4.815  18.146  0.00  0.00    +0.000 C 
BRANCH  18  19
ATOM     19  C   UNL     1       4.420   3.852  16.966  0.00  0.00    +0.000 C 
BRANCH  19  20
ATOM     20  C   UNL     1       5.411   4.207  15.910  0.00  0.00    +0.000 A 
ATOM     21  C   UNL     1       5.346   4.311  14.536  0.00  0.00    +0.000 A 
ATOM     22  C   UNL     1       6.647   4.656  14.098  0.00  0.00    +0.000 A 
ATOM     23  C   UNL     1       7.423   4.743  15.230  0.00  0.00    +0.000 A 
ATOM     24  O   UNL     1       6.681   4.476  16.335  0.00  0.00    +0.000 OA
ENDBRANCH  19  20
ENDBRANCH  18  19
ENDBRANCH   6  18
TORSDOF 5
ENDMDL
MODEL 8
REMARK VINA RESULT:      -5.7      4.106      6.648
REMARK  Name = 
REMARK  5 active torsions:
REMARK  status: ('A' for Active; 'I' for Inactive)
REMARK    1  A    between atoms: C_2  and  C_3
REMARK    2  A    between atoms: C_8  and  N_9
REMARK    3  A    between atoms: C_14  and  C_16
REMARK    4  A    between atoms: C_16  and  C_17
REMARK    5  A    between atoms: C_17  and  C_18
REMARK                            x       y       z     vdW  Elec       q    Type
REMARK                         _______ _______ _______ _____ _____    ______ ____
ROOT
ATOM      1  N   UNL     1       4.243   4.327  16.710  0.00  0.00    +0.000 N 
ATOM      2  C   UNL     1       3.979   5.520  17.536  0.00  0.00    +0.000 C 
ATOM      3  C   UNL     1       2.503   5.882  17.512  0.00  0.00    +0.000 C 
ATOM      4  C   UNL     1       1.532   4.755  17.835  0.00  0.00    +0.000 C 
ATOM      5  N   UNL     1       2.081   3.703  18.687  0.00  0.00    +0.000 N 
ATOM      6  C   UNL     1       2.020   3.698  20.081  0.00  0.00    +0.000 C 
ATOM      7  O   UNL     1       2.556   2.823  20.759  0.00  0.00    +0.000 OA
ATOM      8  C   UNL     1       2.831   2.652  17.980  0.00  0.00    +0.000 C 
ATOM      9  C   UNL     1       4.245   3.058  17.501  0.00  0.00    +0.000 C 
ENDROOT
BRANCH   1  15
ATOM     10  C   UNL     1       6.605   4.681  16.079  0.00  0.00    +0.000 A 
ATOM     11  C   UNL     1       7.609   4.761  15.092  0.00  0.00    +0.000 A 
ATOM     12  C   UNL     1       7.307   4.536  13.752  0.00  0.00    +0.000 A 
ATOM     13  C   UNL     1       6.003   4.234  13.393  0.00  0.00    +0.000 A 
ATOM     14  C   UNL     1       4.997   4.185  14.365  0.00  0.00    +0.000 A 
ATOM     15  C   UNL     1       5.259   4.405  15.732  0.00  0.00    +0.000 A 
BRANCH  10  17
ATOM     16  N   UNL     1       7.357   4.948  18.554  0.00  0.00    +0.000 NA
ATOM     17  C   UNL     1       7.010   4.845  17.448  0.00  0.00    +0.000 C 
ENDBRANCH  10  17
ENDBRANCH   1  15
BRANCH   6  18
ATOM     18  C   UNL     1       1.259   4.849  20.719  0.00  0.00    +0.000 C 
BRANCH  18  19
ATOM     19  C   UNL     1       2.146   6.009  21.166  0.00  0.00    +0.000 C 
BRANCH  19  20
ATOM     20  C   UNL     1       1.474   7.311  20.894  0.00  0.00    +0.000 A 
ATOM     21  C   UNL     1       0.460   8.011  21.515  0.00  0.00    +0.000 A 
ATOM     22  C   UNL     1       0.250   9.181  20.746  0.00  0.00    +0.000 A 
ATOM     23  C   UNL     1       1.148   9.123  19.706  0.00  0.00    +0.000 A 
ATOM     24  O   UNL     1       1.898   7.995  19.790  0.00  0.00    +0.000 OA
ENDBRANCH  19  20
ENDBRANCH  18  19
ENDBRANCH   6  18
TORSDOF 5
ENDMDL
MODEL 9
REMARK VINA RESULT:      -5.6      5.974      8.309
REMARK  Name = 
REMARK  5 active torsions:
REMARK  status: ('A' for Active; 'I' for Inactive)
REMARK    1  A    between atoms: C_2  and  C_3
REMARK    2  A    between atoms: C_8  and  N_9
REMARK    3  A    between atoms: C_14  and  C_16
REMARK    4  A    between atoms: C_16  and  C_17
REMARK    5  A    between atoms: C_17  and  C_18
REMARK                            x       y       z     vdW  Elec       q    Type
REMARK                         _______ _______ _______ _____ _____    ______ ____
ROOT
ATOM      1  N   UNL     1       0.639   9.958  19.536  0.00  0.00    +0.000 N 
ATOM      2  C   UNL     1       0.459   9.228  18.267  0.00  0.00    +0.000 C 
ATOM      3  C   UNL     1       1.802   8.886  17.642  0.00  0.00    +0.000 C 
ATOM      4  C   UNL     1       2.805   8.188  18.550  0.00  0.00    +0.000 C 
ATOM      5  N   UNL     1       2.208   7.408  19.631  0.00  0.00    +0.000 N 
ATOM      6  C   UNL     1       1.863   6.059  19.541  0.00  0.00    +0.000 C 
ATOM      7  O   UNL     1       1.300   5.461  20.456  0.00  0.00    +0.000 OA
ATOM      8  C   UNL     1       1.871   8.174  20.843  0.00  0.00    +0.000 C 
ATOM      9  C   UNL     1       0.610   9.063  20.733  0.00  0.00    +0.000 C 
ENDROOT
BRANCH   1  15
ATOM     10  C   UNL     1       0.505  12.411  19.279  0.00  0.00    +0.000 A 
ATOM     11  C   UNL     1      -0.191  13.624  19.461  0.00  0.00    +0.000 A 
ATOM     12  C   UNL     1      -1.459  13.636  20.035  0.00  0.00    +0.000 A 
ATOM     13  C   UNL     1      -2.035  12.440  20.432  0.00  0.00    +0.000 A 
ATOM     14  C   UNL     1      -1.334  11.237  20.284  0.00  0.00    +0.000 A 
ATOM     15  C   UNL     1      -0.050  11.179  19.706  0.00  0.00    +0.000 A 
BRANCH  10  17
ATOM     16  N   UNL     1       2.783  12.512  18.028  0.00  0.00    +0.000 NA
ATOM     17  C   UNL     1       1.772  12.472  18.605  0.00  0.00    +0.000 C 
ENDBRANCH  10  17
ENDBRANCH   1  15
BRANCH   6  18
ATOM     18  C   UNL     1       2.215   5.369  18.233  0.00  0.00    +0.000 C 
BRANCH  18  19
ATOM     19  C   UNL     1       3.462   4.492  18.309  0.00  0.00    +0.000 C 
BRANCH  19  20
ATOM     20  C   UNL     1       4.324   4.710  17.112  0.00  0.00    +0.000 A 
ATOM     21  C   UNL     1       5.034   3.868  16.281  0.00  0.00    +0.000 A 
ATOM     22  C   UNL     1       5.688   4.695  15.335  0.00  0.00    +0.000 A 
ATOM     23  C   UNL     1       5.335   5.987  15.647  0.00  0.00    +0.000 A 
ATOM     24  O   UNL     1       4.504   6.005  16.721  0.00  0.00    +0.000 OA
ENDBRANCH  19  20
ENDBRANCH  18  19
ENDBRANCH   6  18
TORSDOF 5
ENDMDL
