MODEL 1
REMARK VINA RESULT:      -7.0      0.000      0.000
REMARK  Name = 
REMARK  7 active torsions:
REMARK  status: ('A' for Active; 'I' for Inactive)
REMARK    1  A    between atoms: C_2  and  C_17
REMARK    2  A    between atoms: N_3  and  C_4
REMARK    3  A    between atoms: C_4  and  C_5
REMARK    4  A    between atoms: C_5  and  S_6
REMARK    5  A    between atoms: S_6  and  C_9
REMARK    6  A    between atoms: C_9  and  C_10
REMARK    7  A    between atoms: C_14  and  O_15
REMARK                            x       y       z     vdW  Elec       q    Type
REMARK                         _______ _______ _______ _____ _____    ______ ____
ROOT
ATOM      1  C   UNL     1       7.265   4.452  17.752  0.00  0.00    +0.000 C 
ENDROOT
BRANCH   1   4
ATOM      2  O   UNL     1       5.661   5.508  19.751  0.00  0.00    +0.000 OA
ATOM      3  C   UNL     1       5.156   4.663  19.016  0.00  0.00    +0.000 C 
ATOM      4  N   UNL     1       5.862   4.117  17.963  0.00  0.00    +0.000 N 
ATOM      5  H   UNL     1       5.541   3.226  17.593  0.00  0.00    +0.000 HD
BRANCH   3   6
ATOM      6  C   UNL     1       3.758   4.205  19.248  0.00  0.00    +0.000 A 
ATOM      7  C   UNL     1       3.524   2.931  19.806  0.00  0.00    +0.000 A 
ATOM      8 CL   UNL     1       4.772   1.877  20.393  0.00  0.00    +0.000 Cl
ATOM      9  C   UNL     1       2.214   2.449  19.967  0.00  0.00    +0.000 A 
ATOM     10  C   UNL     1       1.127   3.224  19.594  0.00  0.00    +0.000 A 
ATOM     11  C   UNL     1       1.339   4.490  19.058  0.00  0.00    +0.000 A 
ATOM     12  C   UNL     1       2.641   4.981  18.878  0.00  0.00    +0.000 A 
ATOM     13 CL   UNL     1       2.742   6.551  18.151  0.00  0.00    +0.000 Cl
ENDBRANCH   3   6
ENDBRANCH   1   4
BRANCH   1  14
ATOM     14  C   UNL     1       7.569   4.805  16.302  0.00  0.00    +0.000 C 
BRANCH  14  15
ATOM     15  S   UNL     1       6.154   4.478  15.272  0.00  0.00    +0.000 S 
ATOM     16  O   UNL     1       5.769   3.095  15.495  0.00  0.00    +0.000 OA
ATOM     17  O   UNL     1       5.217   5.559  15.508  0.00  0.00    +0.000 OA
BRANCH  15  18
ATOM     18  C   UNL     1       6.821   4.628  13.612  0.00  0.00    +0.000 C 
BRANCH  18  19
ATOM     19  C   UNL     1       6.086   3.721  12.652  0.00  0.00    +0.000 A 
ATOM     20  C   UNL     1       4.790   4.039  12.221  0.00  0.00    +0.000 A 
ATOM     21  C   UNL     1       4.088   3.185  11.362  0.00  0.00    +0.000 A 
ATOM     22  C   UNL     1       4.672   2.000  10.918  0.00  0.00    +0.000 A 
ATOM     23  C   UNL     1       5.957   1.680  11.341  0.00  0.00    +0.000 A 
ATOM     24  C   UNL     1       6.664   2.524  12.198  0.00  0.00    +0.000 A 
BRANCH  23  25
ATOM     25  O   UNL     1       6.562   0.525  10.938  0.00  0.00    +0.000 OA
ATOM     26  H   UNL     1       7.001   0.686  10.086  0.00  0.00    +0.000 HD
ENDBRANCH  23  25
ENDBRANCH  18  19
ENDBRANCH  15  18
ENDBRANCH  14  15
ENDBRANCH   1  14
TORSDOF 7
ENDMDL
MODEL 2
REMARK VINA RESULT:      -6.9      1.076      1.076
REMARK  Name = 
REMARK  7 active torsions:
REMARK  status: ('A' for Active; 'I' for Inactive)
REMARK    1  A    between atoms: C_2  and  C_17
REMARK    2  A    between atoms: N_3  and  C_4
REMARK    3  A    between atoms: C_4  and  C_5
REMARK    4  A    between atoms: C_5  and  S_6
REMARK    5  A    between atoms: S_6  and  C_9
REMARK    6  A    between atoms: C_9  and  C_10
REMARK    7  A    between atoms: C_14  and  O_15
REMARK                            x       y       z     vdW  Elec       q    Type
REMARK                         _______ _______ _______ _____ _____    ______ ____
ROOT
ATOM      1  C   UNL     1       6.499   5.400  17.943  0.00  0.00    +0.000 C 
ENDROOT
BRANCH   1   4
ATOM      2  O   UNL     1       5.552   3.548  19.775  0.00  0.00    +0.000 OA
ATOM      3  C   UNL     1       4.727   4.075  19.033  0.00  0.00    +0.000 C 
ATOM      4  N   UNL     1       5.097   5.044  18.123  0.00  0.00    +0.000 N 
ATOM      5  H   UNL     1       4.475   5.215  17.338  0.00  0.00    +0.000 HD
BRANCH   3   6
ATOM      6  C   UNL     1       3.293   3.674  19.102  0.00  0.00    +0.000 A 
ATOM      7  C   UNL     1       2.896   2.412  18.610  0.00  0.00    +0.000 A 
ATOM      8 CL   UNL     1       3.996   1.195  18.045  0.00  0.00    +0.000 Cl
ATOM      9  C   UNL     1       1.542   2.043  18.598  0.00  0.00    +0.000 A 
ATOM     10  C   UNL     1       0.570   2.905  19.083  0.00  0.00    +0.000 A 
ATOM     11  C   UNL     1       0.946   4.146  19.586  0.00  0.00    +0.000 A 
ATOM     12  C   UNL     1       2.294   4.537  19.593  0.00  0.00    +0.000 A 
ATOM     13 CL   UNL     1       2.595   6.131  20.203  0.00  0.00    +0.000 Cl
ENDBRANCH   3   6
ENDBRANCH   1   4
BRANCH   1  14
ATOM     14  C   UNL     1       7.092   4.813  16.669  0.00  0.00    +0.000 C 
BRANCH  14  15
ATOM     15  S   UNL     1       5.886   4.826  15.358  0.00  0.00    +0.000 S 
ATOM     16  O   UNL     1       5.020   3.676  15.558  0.00  0.00    +0.000 OA
ATOM     17  O   UNL     1       5.342   6.170  15.316  0.00  0.00    +0.000 OA
BRANCH  15  18
ATOM     18  C   UNL     1       6.883   4.548  13.892  0.00  0.00    +0.000 C 
BRANCH  18  19
ATOM     19  C   UNL     1       6.119   3.740  12.867  0.00  0.00    +0.000 A 
ATOM     20  C   UNL     1       4.834   4.133  12.463  0.00  0.00    +0.000 A 
ATOM     21  C   UNL     1       4.106   3.370  11.543  0.00  0.00    +0.000 A 
ATOM     22  C   UNL     1       4.651   2.204  11.009  0.00  0.00    +0.000 A 
ATOM     23  C   UNL     1       5.923   1.810  11.405  0.00  0.00    +0.000 A 
ATOM     24  C   UNL     1       6.658   2.563  12.323  0.00  0.00    +0.000 A 
BRANCH  23  25
ATOM     25  O   UNL     1       6.490   0.669  10.915  0.00  0.00    +0.000 OA
ATOM     26  H   UNL     1       7.440   0.828  10.782  0.00  0.00    +0.000 HD
ENDBRANCH  23  25
ENDBRANCH  18  19
ENDBRANCH  15  18
ENDBRANCH  14  15
ENDBRANCH   1  14
TORSDOF 7
ENDMDL
MODEL 3
REMARK VINA RESULT:      -6.8      0.699      2.001
REMARK  Name = 
REMARK  7 active torsions:
REMARK  status: ('A' for Active; 'I' for Inactive)
REMARK    1  A    between atoms: C_2  and  C_17
REMARK    2  A    between atoms: N_3  and  C_4
REMARK    3  A    between atoms: C_4  and  C_5
REMARK    4  A    between atoms: C_5  and  S_6
REMARK    5  A    between atoms: S_6  and  C_9
REMARK    6  A    between atoms: C_9  and  C_10
REMARK    7  A    between atoms: C_14  and  O_15
REMARK                            x       y       z     vdW  Elec       q    Type
REMARK                         _______ _______ _______ _____ _____    ______ ____
ROOT
ATOM      1  C   UNL     1       6.900   4.275  17.435  0.00  0.00    +0.000 C 
ENDROOT
BRANCH   1   4
ATOM      2  O   UNL     1       5.868   5.434  19.732  0.00  0.00    +0.000 OA
ATOM      3  C   UNL     1       5.157   4.620  19.147  0.00  0.00    +0.000 C 
ATOM      4  N   UNL     1       5.566   4.029  17.969  0.00  0.00    +0.000 N 
ATOM      5  H   UNL     1       5.116   3.158  17.699  0.00  0.00    +0.000 HD
BRANCH   3   6
ATOM      6  C   UNL     1       3.825   4.251  19.703  0.00  0.00    +0.000 A 
ATOM      7  C   UNL     1       2.774   5.192  19.680  0.00  0.00    +0.000 A 
ATOM      8 CL   UNL     1       2.867   6.742  18.905  0.00  0.00    +0.000 Cl
ATOM      9  C   UNL     1       1.532   4.892  20.263  0.00  0.00    +0.000 A 
ATOM     10  C   UNL     1       1.311   3.659  20.858  0.00  0.00    +0.000 A 
ATOM     11  C   UNL     1       2.331   2.715  20.875  0.00  0.00    +0.000 A 
ATOM     12  C   UNL     1       3.583   3.003  20.310  0.00  0.00    +0.000 A 
ATOM     13 CL   UNL     1       4.765   1.744  20.457  0.00  0.00    +0.000 Cl
ENDBRANCH   3   6
ENDBRANCH   1   4
BRANCH   1  14
ATOM     14  C   UNL     1       6.940   5.472  16.494  0.00  0.00    +0.000 C 
BRANCH  14  15
ATOM     15  S   UNL     1       5.806   5.238  15.141  0.00  0.00    +0.000 S 
ATOM     16  O   UNL     1       4.946   4.120  15.489  0.00  0.00    +0.000 OA
ATOM     17  O   UNL     1       5.249   6.542  14.843  0.00  0.00    +0.000 OA
BRANCH  15  18
ATOM     18  C   UNL     1       6.884   4.735  13.796  0.00  0.00    +0.000 C 
BRANCH  18  19
ATOM     19  C   UNL     1       6.147   3.849  12.818  0.00  0.00    +0.000 A 
ATOM     20  C   UNL     1       4.857   4.187  12.381  0.00  0.00    +0.000 A 
ATOM     21  C   UNL     1       4.154   3.352  11.506  0.00  0.00    +0.000 A 
ATOM     22  C   UNL     1       4.729   2.167  11.049  0.00  0.00    +0.000 A 
ATOM     23  C   UNL     1       6.007   1.828  11.478  0.00  0.00    +0.000 A 
ATOM     24  C   UNL     1       6.717   2.653  12.352  0.00  0.00    +0.000 A 
BRANCH  23  25
ATOM     25  O   UNL     1       6.603   0.672  11.063  0.00  0.00    +0.000 OA
ATOM     26  H   UNL     1       5.960   0.160  10.545  0.00  0.00    +0.000 HD
ENDBRANCH  23  25
ENDBRANCH  18  19
ENDBRANCH  15  18
ENDBRANCH  14  15
ENDBRANCH   1  14
TORSDOF 7
ENDMDL
MODEL 4
REMARK VINA RESULT:      -6.6      4.972      7.237
REMARK  Name = 
REMARK  7 active torsions:
REMARK  status: ('A' for Active; 'I' for Inactive)
REMARK    1  A    between atoms: C_2  and  C_17
REMARK    2  A    between atoms: N_3  and  C_4
REMARK    3  A    between atoms: C_4  and  C_5
REMARK    4  A    between atoms: C_5  and  S_6
REMARK    5  A    between atoms: S_6  and  C_9
REMARK    6  A    between atoms: C_9  and  C_10
REMARK    7  A    between atoms: C_14  and  O_15
REMARK                            x       y       z     vdW  Elec       q    Type
REMARK                         _______ _______ _______ _____ _____    ______ ____
ROOT
ATOM      1  C   UNL     1       1.723   6.105  20.621  0.00  0.00    +0.000 C 
ENDROOT
BRANCH   1   4
ATOM      2  O   UNL     1      -0.547   7.555  21.278  0.00  0.00    +0.000 OA
ATOM      3  C   UNL     1       0.434   8.191  20.900  0.00  0.00    +0.000 C 
ATOM      4  N   UNL     1       1.624   7.560  20.597  0.00  0.00    +0.000 N 
ATOM      5  H   UNL     1       2.282   8.056  20.003  0.00  0.00    +0.000 HD
BRANCH   3   6
ATOM      6  C   UNL     1       0.358   9.672  20.757  0.00  0.00    +0.000 A 
ATOM      7  C   UNL     1       0.037  10.466  21.878  0.00  0.00    +0.000 A 
ATOM      8 CL   UNL     1      -0.143   9.851  23.491  0.00  0.00    +0.000 Cl
ATOM      9  C   UNL     1      -0.110  11.856  21.751  0.00  0.00    +0.000 A 
ATOM     10  C   UNL     1       0.072  12.477  20.525  0.00  0.00    +0.000 A 
ATOM     11  C   UNL     1       0.404  11.711  19.413  0.00  0.00    +0.000 A 
ATOM     12  C   UNL     1       0.543  10.318  19.519  0.00  0.00    +0.000 A 
ATOM     13 CL   UNL     1       0.908   9.500  18.036  0.00  0.00    +0.000 Cl
ENDBRANCH   3   6
ENDBRANCH   1   4
BRANCH   1  14
ATOM     14  C   UNL     1       3.002   5.597  19.969  0.00  0.00    +0.000 C 
BRANCH  14  15
ATOM     15  S   UNL     1       2.906   5.764  18.198  0.00  0.00    +0.000 S 
ATOM     16  O   UNL     1       1.689   5.096  17.769  0.00  0.00    +0.000 OA
ATOM     17  O   UNL     1       3.128   7.167  17.907  0.00  0.00    +0.000 OA
BRANCH  15  18
ATOM     18  C   UNL     1       4.317   4.812  17.628  0.00  0.00    +0.000 C 
BRANCH  18  19
ATOM     19  C   UNL     1       5.613   5.502  17.988  0.00  0.00    +0.000 A 
ATOM     20  C   UNL     1       6.168   6.468  17.135  0.00  0.00    +0.000 A 
ATOM     21  C   UNL     1       7.386   7.083  17.444  0.00  0.00    +0.000 A 
ATOM     22  C   UNL     1       8.069   6.746  18.612  0.00  0.00    +0.000 A 
ATOM     23  C   UNL     1       7.522   5.791  19.461  0.00  0.00    +0.000 A 
ATOM     24  C   UNL     1       6.308   5.170  19.162  0.00  0.00    +0.000 A 
BRANCH  23  25
ATOM     25  O   UNL     1       8.162   5.424  20.609  0.00  0.00    +0.000 OA
ATOM     26  H   UNL     1       8.937   5.999  20.729  0.00  0.00    +0.000 HD
ENDBRANCH  23  25
ENDBRANCH  18  19
ENDBRANCH  15  18
ENDBRANCH  14  15
ENDBRANCH   1  14
TORSDOF 7
ENDMDL
MODEL 5
REMARK VINA RESULT:      -6.6      0.923      1.337
REMARK  Name = 
REMARK  7 active torsions:
REMARK  status: ('A' for Active; 'I' for Inactive)
REMARK    1  A    between atoms: C_2  and  C_17
REMARK    2  A    between atoms: N_3  and  C_4
REMARK    3  A    between atoms: C_4  and  C_5
REMARK    4  A    between atoms: C_5  and  S_6
REMARK    5  A    between atoms: S_6  and  C_9
REMARK    6  A    between atoms: C_9  and  C_10
REMARK    7  A    between atoms: C_14  and  O_15
REMARK                            x       y       z     vdW  Elec       q    Type
REMARK                         _______ _______ _______ _____ _____    ______ ____
ROOT
ATOM      1  C   UNL     1       7.180   4.573  17.727  0.00  0.00    +0.000 C 
ENDROOT
BRANCH   1   4
ATOM      2  O   UNL     1       5.456   5.469  19.705  0.00  0.00    +0.000 OA
ATOM      3  C   UNL     1       5.027   4.616  18.932  0.00  0.00    +0.000 C 
ATOM      4  N   UNL     1       5.796   4.145  17.887  0.00  0.00    +0.000 N 
ATOM      5  H   UNL     1       5.543   3.247  17.484  0.00  0.00    +0.000 HD
BRANCH   3   6
ATOM      6  C   UNL     1       3.655   4.065  19.109  0.00  0.00    +0.000 A 
ATOM      7  C   UNL     1       3.484   2.781  19.669  0.00  0.00    +0.000 A 
ATOM      8 CL   UNL     1       4.775   1.819  20.317  0.00  0.00    +0.000 Cl
ATOM      9  C   UNL     1       2.205   2.212  19.779  0.00  0.00    +0.000 A 
ATOM     10  C   UNL     1       1.084   2.908  19.354  0.00  0.00    +0.000 A 
ATOM     11  C   UNL     1       1.232   4.181  18.815  0.00  0.00    +0.000 A 
ATOM     12  C   UNL     1       2.505   4.760  18.686  0.00  0.00    +0.000 A 
ATOM     13 CL   UNL     1       2.529   6.328  17.949  0.00  0.00    +0.000 Cl
ENDBRANCH   3   6
ENDBRANCH   1   4
BRANCH   1  14
ATOM     14  C   UNL     1       7.617   4.608  16.268  0.00  0.00    +0.000 C 
BRANCH  14  15
ATOM     15  S   UNL     1       6.198   4.729  15.198  0.00  0.00    +0.000 S 
ATOM     16  O   UNL     1       5.483   3.467  15.288  0.00  0.00    +0.000 OA
ATOM     17  O   UNL     1       5.544   5.981  15.525  0.00  0.00    +0.000 OA
BRANCH  15  18
ATOM     18  C   UNL     1       6.936   4.857  13.566  0.00  0.00    +0.000 C 
BRANCH  18  19
ATOM     19  C   UNL     1       6.383   3.797  12.641  0.00  0.00    +0.000 A 
ATOM     20  C   UNL     1       7.212   2.780  12.144  0.00  0.00    +0.000 A 
ATOM     21  C   UNL     1       6.717   1.818  11.258  0.00  0.00    +0.000 A 
ATOM     22  C   UNL     1       5.382   1.853  10.855  0.00  0.00    +0.000 A 
ATOM     23  C   UNL     1       4.556   2.856  11.346  0.00  0.00    +0.000 A 
ATOM     24  C   UNL     1       5.041   3.822  12.230  0.00  0.00    +0.000 A 
BRANCH  23  25
ATOM     25  O   UNL     1       3.246   2.934  10.970  0.00  0.00    +0.000 OA
ATOM     26  H   UNL     1       2.925   3.834  11.150  0.00  0.00    +0.000 HD
ENDBRANCH  23  25
ENDBRANCH  18  19
ENDBRANCH  15  18
ENDBRANCH  14  15
ENDBRANCH   1  14
TORSDOF 7
ENDMDL
MODEL 6
REMARK VINA RESULT:      -6.6      2.469      3.213
REMARK  Name = 
REMARK  7 active torsions:
REMARK  status: ('A' for Active; 'I' for Inactive)
REMARK    1  A    between atoms: C_2  and  C_17
REMARK    2  A    between atoms: N_3  and  C_4
REMARK    3  A    between atoms: C_4  and  C_5
REMARK    4  A    between atoms: C_5  and  S_6
REMARK    5  A    between atoms: S_6  and  C_9
REMARK    6  A    between atoms: C_9  and  C_10
REMARK    7  A    between atoms: C_14  and  O_15
REMARK                            x       y       z     vdW  Elec       q    Type
REMARK                         _______ _______ _______ _____ _____    ______ ____
ROOT
ATOM      1  C   UNL     1       4.848   6.525  16.986  0.00  0.00    +0.000 C 
ENDROOT
BRANCH   1   4
ATOM      2  O   UNL     1       2.165   6.590  17.679  0.00  0.00    +0.000 OA
ATOM      3  C   UNL     1       2.826   5.639  18.089  0.00  0.00    +0.000 C 
ATOM      4  N   UNL     1       4.158   5.496  17.754  0.00  0.00    +0.000 N 
ATOM      5  H   UNL     1       4.731   4.903  18.348  0.00  0.00    +0.000 HD
BRANCH   3   6
ATOM      6  C   UNL     1       2.199   4.610  18.964  0.00  0.00    +0.000 A 
ATOM      7  C   UNL     1       1.746   4.970  20.251  0.00  0.00    +0.000 A 
ATOM      8 CL   UNL     1       1.731   6.595  20.862  0.00  0.00    +0.000 Cl
ATOM      9  C   UNL     1       1.217   4.003  21.120  0.00  0.00    +0.000 A 
ATOM     10  C   UNL     1       1.117   2.678  20.725  0.00  0.00    +0.000 A 
ATOM     11  C   UNL     1       1.543   2.309  19.454  0.00  0.00    +0.000 A 
ATOM     12  C   UNL     1       2.086   3.260  18.577  0.00  0.00    +0.000 A 
ATOM     13 CL   UNL     1       2.620   2.635  17.051  0.00  0.00    +0.000 Cl
ENDBRANCH   3   6
ENDBRANCH   1   4
BRANCH   1  14
ATOM     14  C   UNL     1       6.356   6.310  16.944  0.00  0.00    +0.000 C 
BRANCH  14  15
ATOM     15  S   UNL     1       6.744   4.588  17.181  0.00  0.00    +0.000 S 
ATOM     16  O   UNL     1       8.148   4.414  16.850  0.00  0.00    +0.000 OA
ATOM     17  O   UNL     1       6.237   4.230  18.491  0.00  0.00    +0.000 OA
BRANCH  15  18
ATOM     18  C   UNL     1       5.753   3.776  15.923  0.00  0.00    +0.000 C 
BRANCH  18  19
ATOM     19  C   UNL     1       6.289   4.073  14.541  0.00  0.00    +0.000 A 
ATOM     20  C   UNL     1       5.777   3.404  13.418  0.00  0.00    +0.000 A 
ATOM     21  C   UNL     1       6.293   3.646  12.141  0.00  0.00    +0.000 A 
ATOM     22  C   UNL     1       7.329   4.562  11.962  0.00  0.00    +0.000 A 
ATOM     23  C   UNL     1       7.839   5.228  13.070  0.00  0.00    +0.000 A 
ATOM     24  C   UNL     1       7.331   4.994  14.349  0.00  0.00    +0.000 A 
BRANCH  23  25
ATOM     25  O   UNL     1       8.859   6.126  12.942  0.00  0.00    +0.000 OA
ATOM     26  H   UNL     1       8.834   6.733  13.701  0.00  0.00    +0.000 HD
ENDBRANCH  23  25
ENDBRANCH  18  19
ENDBRANCH  15  18
ENDBRANCH  14  15
ENDBRANCH   1  14
TORSDOF 7
ENDMDL
MODEL 7
REMARK VINA RESULT:      -6.5      1.349      2.298
REMARK  Name = 
REMARK  7 active torsions:
REMARK  status: ('A' for Active; 'I' for Inactive)
REMARK    1  A    between atoms: C_2  and  C_17
REMARK    2  A    between atoms: N_3  and  C_4
REMARK    3  A    between atoms: C_4  and  C_5
REMARK    4  A    between atoms: C_5  and  S_6
REMARK    5  A    between atoms: S_6  and  C_9
REMARK    6  A    between atoms: C_9  and  C_10
REMARK    7  A    between atoms: C_14  and  O_15
REMARK                            x       y       z     vdW  Elec       q    Type
REMARK                         _______ _______ _______ _____ _____    ______ ____
ROOT
ATOM      1  C   UNL     1       6.641   5.317  17.775  0.00  0.00    +0.000 C 
ENDROOT
BRANCH   1   4
ATOM      2  O   UNL     1       5.607   3.660  19.742  0.00  0.00    +0.000 OA
ATOM      3  C   UNL     1       4.820   4.093  18.904  0.00  0.00    +0.000 C 
ATOM      4  N   UNL     1       5.233   4.964  17.916  0.00  0.00    +0.000 N 
ATOM      5  H   UNL     1       4.655   5.041  17.084  0.00  0.00    +0.000 HD
BRANCH   3   6
ATOM      6  C   UNL     1       3.388   3.684  18.937  0.00  0.00    +0.000 A 
ATOM      7  C   UNL     1       2.416   4.581  19.428  0.00  0.00    +0.000 A 
ATOM      8 CL   UNL     1       2.744   6.225  19.878  0.00  0.00    +0.000 Cl
ATOM      9  C   UNL     1       1.071   4.192  19.535  0.00  0.00    +0.000 A 
ATOM     10  C   UNL     1       0.671   2.923  19.147  0.00  0.00    +0.000 A 
ATOM     11  C   UNL     1       1.613   2.031  18.646  0.00  0.00    +0.000 A 
ATOM     12  C   UNL     1       2.963   2.399  18.544  0.00  0.00    +0.000 A 
ATOM     13 CL   UNL     1       4.021   1.162  17.950  0.00  0.00    +0.000 Cl
ENDBRANCH   3   6
ENDBRANCH   1   4
BRANCH   1  14
ATOM     14  C   UNL     1       7.225   4.867  16.442  0.00  0.00    +0.000 C 
BRANCH  14  15
ATOM     15  S   UNL     1       5.970   4.876  15.179  0.00  0.00    +0.000 S 
ATOM     16  O   UNL     1       5.193   3.659  15.336  0.00  0.00    +0.000 OA
ATOM     17  O   UNL     1       5.337   6.178  15.240  0.00  0.00    +0.000 OA
BRANCH  15  18
ATOM     18  C   UNL     1       6.926   4.756  13.663  0.00  0.00    +0.000 C 
BRANCH  18  19
ATOM     19  C   UNL     1       6.314   3.745  12.720  0.00  0.00    +0.000 A 
ATOM     20  C   UNL     1       7.083   2.687  12.211  0.00  0.00    +0.000 A 
ATOM     21  C   UNL     1       6.534   1.770  11.308  0.00  0.00    +0.000 A 
ATOM     22  C   UNL     1       5.206   1.892  10.901  0.00  0.00    +0.000 A 
ATOM     23  C   UNL     1       4.440   2.937  11.403  0.00  0.00    +0.000 A 
ATOM     24  C   UNL     1       4.978   3.858  12.303  0.00  0.00    +0.000 A 
BRANCH  23  25
ATOM     25  O   UNL     1       3.139   3.099  11.023  0.00  0.00    +0.000 OA
ATOM     26  H   UNL     1       2.565   2.778  11.739  0.00  0.00    +0.000 HD
ENDBRANCH  23  25
ENDBRANCH  18  19
ENDBRANCH  15  18
ENDBRANCH  14  15
ENDBRANCH   1  14
TORSDOF 7
ENDMDL
MODEL 8
REMARK VINA RESULT:      -6.5      4.308      6.722
REMARK  Name = 
REMARK  7 active torsions:
REMARK  status: ('A' for Active; 'I' for Inactive)
REMARK    1  A    between atoms: C_2  and  C_17
REMARK    2  A    between atoms: N_3  and  C_4
REMARK    3  A    between atoms: C_4  and  C_5
REMARK    4  A    between atoms: C_5  and  S_6
REMARK    5  A    between atoms: S_6  and  C_9
REMARK    6  A    between atoms: C_9  and  C_10
REMARK    7  A    between atoms: C_14  and  O_15
REMARK                            x       y       z     vdW  Elec       q    Type
REMARK                         _______ _______ _______ _____ _____    ______ ____
ROOT
ATOM      1  C   UNL     1       3.931   6.872  17.172  0.00  0.00    +0.000 C 
ENDROOT
BRANCH   1   4
ATOM      2  O   UNL     1       1.868   8.723  17.173  0.00  0.00    +0.000 OA
ATOM      3  C   UNL     1       2.237   8.295  18.264  0.00  0.00    +0.000 C 
ATOM      4  N   UNL     1       3.224   7.335  18.360  0.00  0.00    +0.000 N 
ATOM      5  H   UNL     1       3.710   7.246  19.248  0.00  0.00    +0.000 HD
BRANCH   3   6
ATOM      6  C   UNL     1       1.621   8.809  19.519  0.00  0.00    +0.000 A 
ATOM      7  C   UNL     1       1.356  10.188  19.653  0.00  0.00    +0.000 A 
ATOM      8 CL   UNL     1       1.564  11.351  18.382  0.00  0.00    +0.000 Cl
ATOM      9  C   UNL     1       0.842  10.705  20.854  0.00  0.00    +0.000 A 
ATOM     10  C   UNL     1       0.573   9.867  21.925  0.00  0.00    +0.000 A 
ATOM     11  C   UNL     1       0.813   8.503  21.804  0.00  0.00    +0.000 A 
ATOM     12  C   UNL     1       1.338   7.971  20.616  0.00  0.00    +0.000 A 
ATOM     13 CL   UNL     1       1.630   6.263  20.640  0.00  0.00    +0.000 Cl
ENDBRANCH   3   6
ENDBRANCH   1   4
BRANCH   1  14
ATOM     14  C   UNL     1       5.386   6.521  17.458  0.00  0.00    +0.000 C 
BRANCH  14  15
ATOM     15  S   UNL     1       5.483   5.095  18.521  0.00  0.00    +0.000 S 
ATOM     16  O   UNL     1       6.853   4.613  18.470  0.00  0.00    +0.000 OA
ATOM     17  O   UNL     1       4.876   5.481  19.780  0.00  0.00    +0.000 OA
BRANCH  15  18
ATOM     18  C   UNL     1       4.423   3.905  17.695  0.00  0.00    +0.000 C 
BRANCH  18  19
ATOM     19  C   UNL     1       3.287   3.479  18.597  0.00  0.00    +0.000 A 
ATOM     20  C   UNL     1       1.964   3.488  18.131  0.00  0.00    +0.000 A 
ATOM     21  C   UNL     1       0.904   3.131  18.972  0.00  0.00    +0.000 A 
ATOM     22  C   UNL     1       1.148   2.756  20.292  0.00  0.00    +0.000 A 
ATOM     23  C   UNL     1       2.457   2.744  20.758  0.00  0.00    +0.000 A 
ATOM     24  C   UNL     1       3.522   3.099  19.928  0.00  0.00    +0.000 A 
BRANCH  23  25
ATOM     25  O   UNL     1       2.740   2.392  22.047  0.00  0.00    +0.000 OA
ATOM     26  H   UNL     1       3.706   2.334  22.147  0.00  0.00    +0.000 HD
ENDBRANCH  23  25
ENDBRANCH  18  19
ENDBRANCH  15  18
ENDBRANCH  14  15
ENDBRANCH   1  14
TORSDOF 7
ENDMDL
MODEL 9
REMARK VINA RESULT:      -6.4      4.159      6.097
REMARK  Name = 
REMARK  7 active torsions:
REMARK  status: ('A' for Active; 'I' for Inactive)
REMARK    1  A    between atoms: C_2  and  C_17
REMARK    2  A    between atoms: N_3  and  C_4
REMARK    3  A    between atoms: C_4  and  C_5
REMARK    4  A    between atoms: C_5  and  S_6
REMARK    5  A    between atoms: S_6  and  C_9
REMARK    6  A    between atoms: C_9  and  C_10
REMARK    7  A    between atoms: C_14  and  O_15
REMARK                            x       y       z     vdW  Elec       q    Type
REMARK                         _______ _______ _______ _____ _____    ______ ____
ROOT
ATOM      1  C   UNL     1       4.690   6.716  16.948  0.00  0.00    +0.000 C 
ENDROOT
BRANCH   1   4
ATOM      2  O   UNL     1       2.035   6.220  17.574  0.00  0.00    +0.000 OA
ATOM      3  C   UNL     1       2.621   7.063  18.247  0.00  0.00    +0.000 C 
ATOM      4  N   UNL     1       3.957   7.342  18.041  0.00  0.00    +0.000 N 
ATOM      5  H   UNL     1       4.310   8.234  18.379  0.00  0.00    +0.000 HD
BRANCH   3   6
ATOM      6  C   UNL     1       1.895   7.811  19.311  0.00  0.00    +0.000 A 
ATOM      7  C   UNL     1       1.542   9.161  19.100  0.00  0.00    +0.000 A 
ATOM      8 CL   UNL     1       1.767  10.006  17.601  0.00  0.00    +0.000 Cl
ATOM      9  C   UNL     1       0.922   9.906  20.116  0.00  0.00    +0.000 A 
ATOM     10  C   UNL     1       0.630   9.324  21.340  0.00  0.00    +0.000 A 
ATOM     11  C   UNL     1       0.956   7.991  21.559  0.00  0.00    +0.000 A 
ATOM     12  C   UNL     1       1.588   7.235  20.560  0.00  0.00    +0.000 A 
ATOM     13 CL   UNL     1       1.976   5.605  21.004  0.00  0.00    +0.000 Cl
ENDBRANCH   3   6
ENDBRANCH   1   4
BRANCH   1  14
ATOM     14  C   UNL     1       6.132   6.397  17.318  0.00  0.00    +0.000 C 
BRANCH  14  15
ATOM     15  S   UNL     1       6.198   4.982  18.398  0.00  0.00    +0.000 S 
ATOM     16  O   UNL     1       7.574   4.514  18.412  0.00  0.00    +0.000 OA
ATOM     17  O   UNL     1       5.531   5.372  19.625  0.00  0.00    +0.000 OA
BRANCH  15  18
ATOM     18  C   UNL     1       5.189   3.772  17.537  0.00  0.00    +0.000 C 
BRANCH  18  19
ATOM     19  C   UNL     1       4.085   3.258  18.432  0.00  0.00    +0.000 A 
ATOM     20  C   UNL     1       4.370   2.810  19.731  0.00  0.00    +0.000 A 
ATOM     21  C   UNL     1       3.359   2.297  20.551  0.00  0.00    +0.000 A 
ATOM     22  C   UNL     1       2.046   2.226  20.090  0.00  0.00    +0.000 A 
ATOM     23  C   UNL     1       1.758   2.669  18.804  0.00  0.00    +0.000 A 
ATOM     24  C   UNL     1       2.759   3.182  17.977  0.00  0.00    +0.000 A 
BRANCH  23  25
ATOM     25  O   UNL     1       0.487   2.609  18.309  0.00  0.00    +0.000 OA
ATOM     26  H   UNL     1       0.497   2.075  17.496  0.00  0.00    +0.000 HD
ENDBRANCH  23  25
ENDBRANCH  18  19
ENDBRANCH  15  18
ENDBRANCH  14  15
ENDBRANCH   1  14
TORSDOF 7
ENDMDL
