MODEL 1
REMARK VINA RESULT:      -7.8      0.000      0.000
REMARK  Name = 
REMARK  8 active torsions:
REMARK  status: ('A' for Active; 'I' for Inactive)
REMARK    1  A    between atoms: C_1  and  O_2
REMARK    2  A    between atoms: O_2  and  C_3
REMARK    3  A    between atoms: C_5  and  C_6
REMARK    4  A    between atoms: C_12  and  C_13
REMARK    5  A    between atoms: C_22  and  O_23
REMARK    6  A    between atoms: O_23  and  C_24
REMARK    7  A    between atoms: C_25  and  O_26
REMARK    8  A    between atoms: O_26  and  C_27
REMARK                            x       y       z     vdW  Elec       q    Type
REMARK                         _______ _______ _______ _____ _____    ______ ____
ROOT
ATOM      1  C   UNL     1       2.172   8.105  17.915  0.00  0.00    +0.000 C 
ATOM      2  C   UNL     1       1.591   8.480  19.068  0.00  0.00    +0.000 C 
ATOM      3  C   UNL     1       1.867   7.825  20.386  0.00  0.00    +0.000 C 
ATOM      4  C   UNL     1       0.850   8.205  21.452  0.00  0.00    +0.000 C 
ATOM      5  C   UNL     1       0.759   9.721  21.559  0.00  0.00    +0.000 C 
ATOM      6  C   UNL     1       0.304  10.332  20.264  0.00  0.00    +0.000 C 
ATOM      7  C   UNL     1      -0.368  11.500  20.171  0.00  0.00    +0.000 C 
ATOM      8  C   UNL     1       0.624   9.628  18.980  0.00  0.00    +0.000 C 
ATOM      9  O   UNL     1       0.137   9.978  17.912  0.00  0.00    +0.000 OA
ENDROOT
BRANCH   1  12
ATOM     10  C   UNL     1       3.715   4.709  17.450  0.00  0.00    +0.000 A 
ATOM     11  C   UNL     1       2.845   5.721  17.895  0.00  0.00    +0.000 A 
ATOM     12  C   UNL     1       3.187   7.060  17.763  0.00  0.00    +0.000 A 
ATOM     13  C   UNL     1       4.470   7.389  17.345  0.00  0.00    +0.000 A 
ATOM     14  C   UNL     1       5.396   6.396  16.985  0.00  0.00    +0.000 A 
ATOM     15  C   UNL     1       5.022   5.033  17.018  0.00  0.00    +0.000 A 
BRANCH  10  17
ATOM     16  C   UNL     1       3.465   2.691  18.659  0.00  0.00    +0.000 C 
ATOM     17  O   UNL     1       3.280   3.406  17.433  0.00  0.00    +0.000 OA
ENDBRANCH  10  17
BRANCH  14  18
ATOM     18  O   UNL     1       6.583   6.957  16.580  0.00  0.00    +0.000 OA
ATOM     19  C   UNL     1       7.501   7.441  17.545  0.00  0.00    +0.000 C 
ENDBRANCH  14  18
BRANCH  15  20
ATOM     20  O   UNL     1       5.986   4.150  16.618  0.00  0.00    +0.000 OA
ATOM     21  C   UNL     1       6.162   3.800  15.257  0.00  0.00    +0.000 C 
ENDBRANCH  15  20
ENDBRANCH   1  12
BRANCH   7  22
ATOM     22  C   UNL     1      -0.664  12.367  21.316  0.00  0.00    +0.000 A 
ATOM     23  C   UNL     1      -1.714  12.031  22.178  0.00  0.00    +0.000 A 
ATOM     24  C   UNL     1      -2.034  12.860  23.257  0.00  0.00    +0.000 A 
ATOM     25  C   UNL     1      -1.308  14.029  23.477  0.00  0.00    +0.000 A 
ATOM     26  C   UNL     1      -0.259  14.370  22.620  0.00  0.00    +0.000 A 
ATOM     27  C   UNL     1       0.064  13.539  21.543  0.00  0.00    +0.000 A 
ENDBRANCH   7  22
TORSDOF 5
ENDMDL
MODEL 2
REMARK VINA RESULT:      -7.6      5.633      9.248
REMARK  Name = 
REMARK  8 active torsions:
REMARK  status: ('A' for Active; 'I' for Inactive)
REMARK    1  A    between atoms: C_1  and  O_2
REMARK    2  A    between atoms: O_2  and  C_3
REMARK    3  A    between atoms: C_5  and  C_6
REMARK    4  A    between atoms: C_12  and  C_13
REMARK    5  A    between atoms: C_22  and  O_23
REMARK    6  A    between atoms: O_23  and  C_24
REMARK    7  A    between atoms: C_25  and  O_26
REMARK    8  A    between atoms: O_26  and  C_27
REMARK                            x       y       z     vdW  Elec       q    Type
REMARK                         _______ _______ _______ _____ _____    ______ ____
ROOT
ATOM      1  C   UNL     1       7.913   9.028  17.685  0.00  0.00    +0.000 C 
ATOM      2  C   UNL     1       7.571   7.765  17.992  0.00  0.00    +0.000 C 
ATOM      3  C   UNL     1       8.229   6.969  19.076  0.00  0.00    +0.000 C 
ATOM      4  C   UNL     1       7.896   5.487  18.996  0.00  0.00    +0.000 C 
ATOM      5  C   UNL     1       6.385   5.299  18.967  0.00  0.00    +0.000 C 
ATOM      6  C   UNL     1       5.777   5.962  17.764  0.00  0.00    +0.000 C 
ATOM      7  C   UNL     1       4.633   5.558  17.172  0.00  0.00    +0.000 C 
ATOM      8  C   UNL     1       6.457   7.165  17.180  0.00  0.00    +0.000 C 
ATOM      9  O   UNL     1       6.113   7.644  16.107  0.00  0.00    +0.000 OA
ENDROOT
BRANCH   1  12
ATOM     10  C   UNL     1      10.686  11.503  18.249  0.00  0.00    +0.000 A 
ATOM     11  C   UNL     1       9.916  10.486  17.655  0.00  0.00    +0.000 A 
ATOM     12  C   UNL     1       8.921   9.839  18.374  0.00  0.00    +0.000 A 
ATOM     13  C   UNL     1       8.806  10.083  19.736  0.00  0.00    +0.000 A 
ATOM     14  C   UNL     1       9.627  11.026  20.379  0.00  0.00    +0.000 A 
ATOM     15  C   UNL     1      10.574  11.764  19.634  0.00  0.00    +0.000 A 
BRANCH  10  17
ATOM     16  C   UNL     1      10.959  13.404  16.867  0.00  0.00    +0.000 C 
ATOM     17  O   UNL     1      11.541  12.243  17.469  0.00  0.00    +0.000 OA
ENDBRANCH  10  17
BRANCH  14  18
ATOM     18  O   UNL     1       9.315  11.117  21.713  0.00  0.00    +0.000 OA
ATOM     19  C   UNL     1       8.288  11.997  22.141  0.00  0.00    +0.000 C 
ENDBRANCH  14  18
BRANCH  15  20
ATOM     20  O   UNL     1      11.300  12.677  20.348  0.00  0.00    +0.000 OA
ATOM     21  C   UNL     1      10.896  14.029  20.463  0.00  0.00    +0.000 C 
ENDBRANCH  15  20
ENDBRANCH   1  12
BRANCH   7  22
ATOM     22  C   UNL     1       3.789   4.472  17.679  0.00  0.00    +0.000 A 
ATOM     23  C   UNL     1       4.159   3.144  17.438  0.00  0.00    +0.000 A 
ATOM     24  C   UNL     1       3.353   2.094  17.885  0.00  0.00    +0.000 A 
ATOM     25  C   UNL     1       2.171   2.367  18.572  0.00  0.00    +0.000 A 
ATOM     26  C   UNL     1       1.796   3.689  18.816  0.00  0.00    +0.000 A 
ATOM     27  C   UNL     1       2.605   4.740  18.372  0.00  0.00    +0.000 A 
ENDBRANCH   7  22
TORSDOF 5
ENDMDL
MODEL 3
REMARK VINA RESULT:      -7.6      1.692      3.151
REMARK  Name = 
REMARK  8 active torsions:
REMARK  status: ('A' for Active; 'I' for Inactive)
REMARK    1  A    between atoms: C_1  and  O_2
REMARK    2  A    between atoms: O_2  and  C_3
REMARK    3  A    between atoms: C_5  and  C_6
REMARK    4  A    between atoms: C_12  and  C_13
REMARK    5  A    between atoms: C_22  and  O_23
REMARK    6  A    between atoms: O_23  and  C_24
REMARK    7  A    between atoms: C_25  and  O_26
REMARK    8  A    between atoms: O_26  and  C_27
REMARK                            x       y       z     vdW  Elec       q    Type
REMARK                         _______ _______ _______ _____ _____    ______ ____
ROOT
ATOM      1  C   UNL     1       2.438   7.489  18.144  0.00  0.00    +0.000 C 
ATOM      2  C   UNL     1       1.801   8.137  19.135  0.00  0.00    +0.000 C 
ATOM      3  C   UNL     1       1.707   7.618  20.537  0.00  0.00    +0.000 C 
ATOM      4  C   UNL     1       0.667   8.358  21.365  0.00  0.00    +0.000 C 
ATOM      5  C   UNL     1       0.937   9.855  21.311  0.00  0.00    +0.000 C 
ATOM      6  C   UNL     1       0.845  10.375  19.905  0.00  0.00    +0.000 C 
ATOM      7  C   UNL     1       0.504  11.642  19.585  0.00  0.00    +0.000 C 
ATOM      8  C   UNL     1       1.171   9.452  18.770  0.00  0.00    +0.000 C 
ATOM      9  O   UNL     1       0.951   9.757  17.604  0.00  0.00    +0.000 OA
ENDROOT
BRANCH   1  12
ATOM     10  C   UNL     1       5.093   5.028  19.159  0.00  0.00    +0.000 A 
ATOM     11  C   UNL     1       4.484   6.224  18.734  0.00  0.00    +0.000 A 
ATOM     12  C   UNL     1       3.175   6.229  18.274  0.00  0.00    +0.000 A 
ATOM     13  C   UNL     1       2.527   5.018  18.073  0.00  0.00    +0.000 A 
ATOM     14  C   UNL     1       3.145   3.799  18.398  0.00  0.00    +0.000 A 
ATOM     15  C   UNL     1       4.440   3.789  18.964  0.00  0.00    +0.000 A 
BRANCH  10  17
ATOM     16  C   UNL     1       7.375   5.621  18.967  0.00  0.00    +0.000 C 
ATOM     17  O   UNL     1       6.322   5.078  19.770  0.00  0.00    +0.000 OA
ENDBRANCH  10  17
BRANCH  14  18
ATOM     18  O   UNL     1       2.306   2.741  18.141  0.00  0.00    +0.000 OA
ATOM     19  C   UNL     1       1.134   2.563  18.919  0.00  0.00    +0.000 C 
ENDBRANCH  14  18
BRANCH  15  20
ATOM     20  O   UNL     1       4.937   2.554  19.273  0.00  0.00    +0.000 OA
ATOM     21  C   UNL     1       4.626   1.905  20.492  0.00  0.00    +0.000 C 
ENDBRANCH  15  20
ENDBRANCH   1  12
BRANCH   7  22
ATOM     22  C   UNL     1       0.262  12.698  20.572  0.00  0.00    +0.000 A 
ATOM     23  C   UNL     1       1.292  13.591  20.889  0.00  0.00    +0.000 A 
ATOM     24  C   UNL     1       1.094  14.586  21.850  0.00  0.00    +0.000 A 
ATOM     25  C   UNL     1      -0.135  14.690  22.501  0.00  0.00    +0.000 A 
ATOM     26  C   UNL     1      -1.166  13.803  22.190  0.00  0.00    +0.000 A 
ATOM     27  C   UNL     1      -0.968  12.810  21.226  0.00  0.00    +0.000 A 
ENDBRANCH   7  22
TORSDOF 5
ENDMDL
MODEL 4
REMARK VINA RESULT:      -7.5      2.736      9.383
REMARK  Name = 
REMARK  8 active torsions:
REMARK  status: ('A' for Active; 'I' for Inactive)
REMARK    1  A    between atoms: C_1  and  O_2
REMARK    2  A    between atoms: O_2  and  C_3
REMARK    3  A    between atoms: C_5  and  C_6
REMARK    4  A    between atoms: C_12  and  C_13
REMARK    5  A    between atoms: C_22  and  O_23
REMARK    6  A    between atoms: O_23  and  C_24
REMARK    7  A    between atoms: C_25  and  O_26
REMARK    8  A    between atoms: O_26  and  C_27
REMARK                            x       y       z     vdW  Elec       q    Type
REMARK                         _______ _______ _______ _____ _____    ______ ____
ROOT
ATOM      1  C   UNL     1      -0.079  10.858  18.495  0.00  0.00    +0.000 C 
ATOM      2  C   UNL     1       0.558   9.877  19.158  0.00  0.00    +0.000 C 
ATOM      3  C   UNL     1       0.225   9.475  20.561  0.00  0.00    +0.000 C 
ATOM      4  C   UNL     1       1.295   8.590  21.184  0.00  0.00    +0.000 C 
ATOM      5  C   UNL     1       1.564   7.395  20.281  0.00  0.00    +0.000 C 
ATOM      6  C   UNL     1       2.070   7.832  18.935  0.00  0.00    +0.000 C 
ATOM      7  C   UNL     1       2.871   7.085  18.147  0.00  0.00    +0.000 C 
ATOM      8  C   UNL     1       1.651   9.171  18.405  0.00  0.00    +0.000 C 
ATOM      9  O   UNL     1       2.160   9.658  17.404  0.00  0.00    +0.000 OA
ENDROOT
BRANCH   1  12
ATOM     10  C   UNL     1      -3.618  11.922  19.190  0.00  0.00    +0.000 A 
ATOM     11  C   UNL     1      -2.493  11.415  18.511  0.00  0.00    +0.000 A 
ATOM     12  C   UNL     1      -1.212  11.641  18.996  0.00  0.00    +0.000 A 
ATOM     13  C   UNL     1      -1.039  12.515  20.061  0.00  0.00    +0.000 A 
ATOM     14  C   UNL     1      -2.139  13.112  20.699  0.00  0.00    +0.000 A 
ATOM     15  C   UNL     1      -3.453  12.809  20.278  0.00  0.00    +0.000 A 
BRANCH  10  17
ATOM     16  C   UNL     1      -5.243  11.962  17.470  0.00  0.00    +0.000 C 
ATOM     17  O   UNL     1      -4.875  11.539  18.788  0.00  0.00    +0.000 OA
ENDBRANCH  10  17
BRANCH  14  18
ATOM     18  O   UNL     1      -1.727  13.912  21.737  0.00  0.00    +0.000 OA
ATOM     19  C   UNL     1      -1.162  13.328  22.899  0.00  0.00    +0.000 C 
ENDBRANCH  14  18
BRANCH  15  20
ATOM     20  O   UNL     1      -4.452  13.418  20.985  0.00  0.00    +0.000 OA
ATOM     21  C   UNL     1      -5.043  12.812  22.120  0.00  0.00    +0.000 C 
ENDBRANCH  15  20
ENDBRANCH   1  12
BRANCH   7  22
ATOM     22  C   UNL     1       3.283   5.714  18.463  0.00  0.00    +0.000 A 
ATOM     23  C   UNL     1       4.540   5.490  19.038  0.00  0.00    +0.000 A 
ATOM     24  C   UNL     1       4.965   4.188  19.319  0.00  0.00    +0.000 A 
ATOM     25  C   UNL     1       4.138   3.106  19.023  0.00  0.00    +0.000 A 
ATOM     26  C   UNL     1       2.884   3.323  18.450  0.00  0.00    +0.000 A 
ATOM     27  C   UNL     1       2.456   4.625  18.172  0.00  0.00    +0.000 A 
ENDBRANCH   7  22
TORSDOF 5
ENDMDL
MODEL 5
REMARK VINA RESULT:      -7.5      2.770      9.595
REMARK  Name = 
REMARK  8 active torsions:
REMARK  status: ('A' for Active; 'I' for Inactive)
REMARK    1  A    between atoms: C_1  and  O_2
REMARK    2  A    between atoms: O_2  and  C_3
REMARK    3  A    between atoms: C_5  and  C_6
REMARK    4  A    between atoms: C_12  and  C_13
REMARK    5  A    between atoms: C_22  and  O_23
REMARK    6  A    between atoms: O_23  and  C_24
REMARK    7  A    between atoms: C_25  and  O_26
REMARK    8  A    between atoms: O_26  and  C_27
REMARK                            x       y       z     vdW  Elec       q    Type
REMARK                         _______ _______ _______ _____ _____    ______ ____
ROOT
ATOM      1  C   UNL     1      -0.192  10.729  18.764  0.00  0.00    +0.000 C 
ATOM      2  C   UNL     1       0.537   9.749  19.326  0.00  0.00    +0.000 C 
ATOM      3  C   UNL     1       0.299   9.230  20.710  0.00  0.00    +0.000 C 
ATOM      4  C   UNL     1       1.451   8.378  21.220  0.00  0.00    +0.000 C 
ATOM      5  C   UNL     1       1.752   7.268  20.222  0.00  0.00    +0.000 C 
ATOM      6  C   UNL     1       2.163   7.830  18.891  0.00  0.00    +0.000 C 
ATOM      7  C   UNL     1       2.972   7.195  18.016  0.00  0.00    +0.000 C 
ATOM      8  C   UNL     1       1.635   9.171  18.478  0.00  0.00    +0.000 C 
ATOM      9  O   UNL     1       2.064   9.759  17.492  0.00  0.00    +0.000 OA
ENDROOT
BRANCH   1  12
ATOM     10  C   UNL     1      -2.207  13.133  20.836  0.00  0.00    +0.000 A 
ATOM     11  C   UNL     1      -1.179  12.253  20.449  0.00  0.00    +0.000 A 
ATOM     12  C   UNL     1      -1.347  11.398  19.369  0.00  0.00    +0.000 A 
ATOM     13  C   UNL     1      -2.600  11.294  18.780  0.00  0.00    +0.000 A 
ATOM     14  C   UNL     1      -3.674  12.092  19.209  0.00  0.00    +0.000 A 
ATOM     15  C   UNL     1      -3.486  13.040  20.240  0.00  0.00    +0.000 A 
BRANCH  10  17
ATOM     16  C   UNL     1      -1.248  13.613  22.945  0.00  0.00    +0.000 C 
ATOM     17  O   UNL     1      -1.953  14.086  21.792  0.00  0.00    +0.000 OA
ENDBRANCH  10  17
BRANCH  14  18
ATOM     18  O   UNL     1      -4.801  11.837  18.465  0.00  0.00    +0.000 OA
ATOM     19  C   UNL     1      -4.702  11.699  17.057  0.00  0.00    +0.000 C 
ENDBRANCH  14  18
BRANCH  15  20
ATOM     20  O   UNL     1      -4.585  13.787  20.559  0.00  0.00    +0.000 OA
ATOM     21  C   UNL     1      -5.461  13.418  21.609  0.00  0.00    +0.000 C 
ENDBRANCH  15  20
ENDBRANCH   1  12
BRANCH   7  22
ATOM     22  C   UNL     1       3.485   5.836  18.215  0.00  0.00    +0.000 A 
ATOM     23  C   UNL     1       2.744   4.746  17.745  0.00  0.00    +0.000 A 
ATOM     24  C   UNL     1       3.198   3.440  17.950  0.00  0.00    +0.000 A 
ATOM     25  C   UNL     1       4.395   3.219  18.630  0.00  0.00    +0.000 A 
ATOM     26  C   UNL     1       5.140   4.302  19.102  0.00  0.00    +0.000 A 
ATOM     27  C   UNL     1       4.686   5.608  18.892  0.00  0.00    +0.000 A 
ENDBRANCH   7  22
TORSDOF 5
ENDMDL
MODEL 6
REMARK VINA RESULT:      -7.4      1.973      3.838
REMARK  Name = 
REMARK  8 active torsions:
REMARK  status: ('A' for Active; 'I' for Inactive)
REMARK    1  A    between atoms: C_1  and  O_2
REMARK    2  A    between atoms: O_2  and  C_3
REMARK    3  A    between atoms: C_5  and  C_6
REMARK    4  A    between atoms: C_12  and  C_13
REMARK    5  A    between atoms: C_22  and  O_23
REMARK    6  A    between atoms: O_23  and  C_24
REMARK    7  A    between atoms: C_25  and  O_26
REMARK    8  A    between atoms: O_26  and  C_27
REMARK                            x       y       z     vdW  Elec       q    Type
REMARK                         _______ _______ _______ _____ _____    ______ ____
ROOT
ATOM      1  C   UNL     1       1.385   7.810  21.195  0.00  0.00    +0.000 C 
ATOM      2  C   UNL     1       0.796   8.986  20.917  0.00  0.00    +0.000 C 
ATOM      3  C   UNL     1       0.404   9.410  19.535  0.00  0.00    +0.000 C 
ATOM      4  C   UNL     1       0.074  10.892  19.450  0.00  0.00    +0.000 C 
ATOM      5  C   UNL     1      -0.979  11.245  20.492  0.00  0.00    +0.000 C 
ATOM      6  C   UNL     1      -0.481  10.974  21.883  0.00  0.00    +0.000 C 
ATOM      7  C   UNL     1      -0.902  11.636  22.982  0.00  0.00    +0.000 C 
ATOM      8  C   UNL     1       0.532   9.888  22.090  0.00  0.00    +0.000 C 
ATOM      9  O   UNL     1       1.103   9.734  23.162  0.00  0.00    +0.000 OA
ENDROOT
BRANCH   1  12
ATOM     10  C   UNL     1       3.065   5.926  18.409  0.00  0.00    +0.000 A 
ATOM     11  C   UNL     1       2.522   6.991  19.153  0.00  0.00    +0.000 A 
ATOM     12  C   UNL     1       1.683   6.748  20.231  0.00  0.00    +0.000 A 
ATOM     13  C   UNL     1       1.246   5.451  20.465  0.00  0.00    +0.000 A 
ATOM     14  C   UNL     1       1.696   4.377  19.678  0.00  0.00    +0.000 A 
ATOM     15  C   UNL     1       2.631   4.601  18.642  0.00  0.00    +0.000 A 
BRANCH  10  17
ATOM     16  C   UNL     1       5.375   6.111  17.931  0.00  0.00    +0.000 C 
ATOM     17  O   UNL     1       4.025   6.187  17.461  0.00  0.00    +0.000 OA
ENDBRANCH  10  17
BRANCH  14  18
ATOM     18  O   UNL     1       1.153   3.192  20.111  0.00  0.00    +0.000 OA
ATOM     19  C   UNL     1       1.445   2.714  21.414  0.00  0.00    +0.000 C 
ENDBRANCH  14  18
BRANCH  15  20
ATOM     20  O   UNL     1       3.027   3.486  17.958  0.00  0.00    +0.000 OA
ATOM     21  C   UNL     1       4.035   2.624  18.452  0.00  0.00    +0.000 C 
ENDBRANCH  15  20
ENDBRANCH   1  12
BRANCH   7  22
ATOM     22  C   UNL     1      -1.964  12.647  22.971  0.00  0.00    +0.000 A 
ATOM     23  C   UNL     1      -1.631  13.991  22.765  0.00  0.00    +0.000 A 
ATOM     24  C   UNL     1      -2.623  14.975  22.782  0.00  0.00    +0.000 A 
ATOM     25  C   UNL     1      -3.952  14.620  23.010  0.00  0.00    +0.000 A 
ATOM     26  C   UNL     1      -4.291  13.282  23.217  0.00  0.00    +0.000 A 
ATOM     27  C   UNL     1      -3.298  12.297  23.195  0.00  0.00    +0.000 A 
ENDBRANCH   7  22
TORSDOF 5
ENDMDL
MODEL 7
REMARK VINA RESULT:      -7.4      2.023      2.738
REMARK  Name = 
REMARK  8 active torsions:
REMARK  status: ('A' for Active; 'I' for Inactive)
REMARK    1  A    between atoms: C_1  and  O_2
REMARK    2  A    between atoms: O_2  and  C_3
REMARK    3  A    between atoms: C_5  and  C_6
REMARK    4  A    between atoms: C_12  and  C_13
REMARK    5  A    between atoms: C_22  and  O_23
REMARK    6  A    between atoms: O_23  and  C_24
REMARK    7  A    between atoms: C_25  and  O_26
REMARK    8  A    between atoms: O_26  and  C_27
REMARK                            x       y       z     vdW  Elec       q    Type
REMARK                         _______ _______ _______ _____ _____    ______ ____
ROOT
ATOM      1  C   UNL     1       2.642   7.190  18.601  0.00  0.00    +0.000 C 
ATOM      2  C   UNL     1       1.899   8.043  19.328  0.00  0.00    +0.000 C 
ATOM      3  C   UNL     1       1.470   7.773  20.737  0.00  0.00    +0.000 C 
ATOM      4  C   UNL     1       0.378   8.722  21.207  0.00  0.00    +0.000 C 
ATOM      5  C   UNL     1       0.823  10.163  20.997  0.00  0.00    +0.000 C 
ATOM      6  C   UNL     1       1.072  10.448  19.543  0.00  0.00    +0.000 C 
ATOM      7  C   UNL     1       0.948  11.668  18.978  0.00  0.00    +0.000 C 
ATOM      8  C   UNL     1       1.509   9.326  18.650  0.00  0.00    +0.000 C 
ATOM      9  O   UNL     1       1.561   9.452  17.432  0.00  0.00    +0.000 OA
ENDROOT
BRANCH   1  12
ATOM     10  C   UNL     1       2.808   3.603  19.715  0.00  0.00    +0.000 A 
ATOM     11  C   UNL     1       2.351   4.926  19.562  0.00  0.00    +0.000 A 
ATOM     12  C   UNL     1       3.190   5.914  19.066  0.00  0.00    +0.000 A 
ATOM     13  C   UNL     1       4.536   5.625  18.883  0.00  0.00    +0.000 A 
ATOM     14  C   UNL     1       5.043   4.336  19.119  0.00  0.00    +0.000 A 
ATOM     15  C   UNL     1       4.175   3.297  19.526  0.00  0.00    +0.000 A 
BRANCH  10  17
ATOM     16  C   UNL     1       1.464   2.629  21.401  0.00  0.00    +0.000 C 
ATOM     17  O   UNL     1       1.912   2.614  20.041  0.00  0.00    +0.000 OA
ENDBRANCH  10  17
BRANCH  14  18
ATOM     18  O   UNL     1       6.388   4.281  18.845  0.00  0.00    +0.000 OA
ATOM     19  C   UNL     1       6.867   4.681  17.571  0.00  0.00    +0.000 C 
ENDBRANCH  14  18
BRANCH  15  20
ATOM     20  O   UNL     1       4.763   2.075  19.698  0.00  0.00    +0.000 OA
ATOM     21  C   UNL     1       5.057   1.559  20.984  0.00  0.00    +0.000 C 
ENDBRANCH  15  20
ENDBRANCH   1  12
BRANCH   7  22
ATOM     22  C   UNL     1       0.637  12.889  19.727  0.00  0.00    +0.000 A 
ATOM     23  C   UNL     1       1.662  13.558  20.406  0.00  0.00    +0.000 A 
ATOM     24  C   UNL     1       1.383  14.707  21.152  0.00  0.00    +0.000 A 
ATOM     25  C   UNL     1       0.077  15.189  21.224  0.00  0.00    +0.000 A 
ATOM     26  C   UNL     1      -0.950  14.527  20.549  0.00  0.00    +0.000 A 
ATOM     27  C   UNL     1      -0.669  13.380  19.800  0.00  0.00    +0.000 A 
ENDBRANCH   7  22
TORSDOF 5
ENDMDL
MODEL 8
REMARK VINA RESULT:      -7.4      2.536      9.080
REMARK  Name = 
REMARK  8 active torsions:
REMARK  status: ('A' for Active; 'I' for Inactive)
REMARK    1  A    between atoms: C_1  and  O_2
REMARK    2  A    between atoms: O_2  and  C_3
REMARK    3  A    between atoms: C_5  and  C_6
REMARK    4  A    between atoms: C_12  and  C_13
REMARK    5  A    between atoms: C_22  and  O_23
REMARK    6  A    between atoms: O_23  and  C_24
REMARK    7  A    between atoms: C_25  and  O_26
REMARK    8  A    between atoms: O_26  and  C_27
REMARK                            x       y       z     vdW  Elec       q    Type
REMARK                         _______ _______ _______ _____ _____    ______ ____
ROOT
ATOM      1  C   UNL     1       0.945  10.166  18.241  0.00  0.00    +0.000 C 
ATOM      2  C   UNL     1       1.354   9.072  18.906  0.00  0.00    +0.000 C 
ATOM      3  C   UNL     1       0.866   8.701  20.272  0.00  0.00    +0.000 C 
ATOM      4  C   UNL     1       1.719   7.625  20.925  0.00  0.00    +0.000 C 
ATOM      5  C   UNL     1       1.830   6.422  19.998  0.00  0.00    +0.000 C 
ATOM      6  C   UNL     1       2.490   6.795  18.701  0.00  0.00    +0.000 C 
ATOM      7  C   UNL     1       3.196   5.935  17.935  0.00  0.00    +0.000 C 
ATOM      8  C   UNL     1       2.351   8.199  18.195  0.00  0.00    +0.000 C 
ATOM      9  O   UNL     1       3.002   8.611  17.243  0.00  0.00    +0.000 OA
ENDROOT
BRANCH   1  12
ATOM     10  C   UNL     1      -2.404  11.713  18.966  0.00  0.00    +0.000 A 
ATOM     11  C   UNL     1      -1.383  11.009  18.299  0.00  0.00    +0.000 A 
ATOM     12  C   UNL     1      -0.061  11.127  18.702  0.00  0.00    +0.000 A 
ATOM     13  C   UNL     1       0.270  12.079  19.657  0.00  0.00    +0.000 A 
ATOM     14  C   UNL     1      -0.717  12.867  20.273  0.00  0.00    +0.000 A 
ATOM     15  C   UNL     1      -2.079  12.682  19.943  0.00  0.00    +0.000 A 
BRANCH  10  17
ATOM     16  C   UNL     1      -4.026  11.450  17.264  0.00  0.00    +0.000 C 
ATOM     17  O   UNL     1      -3.717  11.446  18.662  0.00  0.00    +0.000 OA
ENDBRANCH  10  17
BRANCH  14  18
ATOM     18  O   UNL     1      -0.159  13.714  21.200  0.00  0.00    +0.000 OA
ATOM     19  C   UNL     1       1.242  13.929  21.208  0.00  0.00    +0.000 C 
ENDBRANCH  14  18
BRANCH  15  20
ATOM     20  O   UNL     1      -2.960  13.476  20.622  0.00  0.00    +0.000 OA
ATOM     21  C   UNL     1      -3.547  13.069  21.844  0.00  0.00    +0.000 C 
ENDBRANCH  15  20
ENDBRANCH   1  12
BRANCH   7  22
ATOM     22  C   UNL     1       3.337   4.506  18.227  0.00  0.00    +0.000 A 
ATOM     23  C   UNL     1       2.544   3.582  17.536  0.00  0.00    +0.000 A 
ATOM     24  C   UNL     1       2.640   2.217  17.820  0.00  0.00    +0.000 A 
ATOM     25  C   UNL     1       3.526   1.770  18.799  0.00  0.00    +0.000 A 
ATOM     26  C   UNL     1       4.320   2.686  19.492  0.00  0.00    +0.000 A 
ATOM     27  C   UNL     1       4.227   4.051  19.204  0.00  0.00    +0.000 A 
ENDBRANCH   7  22
TORSDOF 5
ENDMDL
MODEL 9
REMARK VINA RESULT:      -7.3      2.497      9.191
REMARK  Name = 
REMARK  8 active torsions:
REMARK  status: ('A' for Active; 'I' for Inactive)
REMARK    1  A    between atoms: C_1  and  O_2
REMARK    2  A    between atoms: O_2  and  C_3
REMARK    3  A    between atoms: C_5  and  C_6
REMARK    4  A    between atoms: C_12  and  C_13
REMARK    5  A    between atoms: C_22  and  O_23
REMARK    6  A    between atoms: O_23  and  C_24
REMARK    7  A    between atoms: C_25  and  O_26
REMARK    8  A    between atoms: O_26  and  C_27
REMARK                            x       y       z     vdW  Elec       q    Type
REMARK                         _______ _______ _______ _____ _____    ______ ____
ROOT
ATOM      1  C   UNL     1       0.843  10.231  18.473  0.00  0.00    +0.000 C 
ATOM      2  C   UNL     1       1.286   9.119  19.085  0.00  0.00    +0.000 C 
ATOM      3  C   UNL     1       0.891   8.726  20.475  0.00  0.00    +0.000 C 
ATOM      4  C   UNL     1       1.777   7.627  21.044  0.00  0.00    +0.000 C 
ATOM      5  C   UNL     1       1.808   6.444  20.087  0.00  0.00    +0.000 C 
ATOM      6  C   UNL     1       2.380   6.836  18.754  0.00  0.00    +0.000 C 
ATOM      7  C   UNL     1       3.020   5.986  17.924  0.00  0.00    +0.000 C 
ATOM      8  C   UNL     1       2.220   8.252  18.288  0.00  0.00    +0.000 C 
ATOM      9  O   UNL     1       2.807   8.677  17.300  0.00  0.00    +0.000 OA
ENDROOT
BRANCH   1  12
ATOM     10  C   UNL     1      -2.410  11.983  19.169  0.00  0.00    +0.000 A 
ATOM     11  C   UNL     1      -1.386  11.311  18.475  0.00  0.00    +0.000 A 
ATOM     12  C   UNL     1      -0.117  11.192  19.023  0.00  0.00    +0.000 A 
ATOM     13  C   UNL     1       0.182  11.889  20.186  0.00  0.00    +0.000 A 
ATOM     14  C   UNL     1      -0.795  12.648  20.852  0.00  0.00    +0.000 A 
ATOM     15  C   UNL     1      -2.118  12.693  20.356  0.00  0.00    +0.000 A 
BRANCH  10  17
ATOM     16  C   UNL     1      -3.980  10.824  17.831  0.00  0.00    +0.000 C 
ATOM     17  O   UNL     1      -3.695  11.937  18.685  0.00  0.00    +0.000 OA
ENDBRANCH  10  17
BRANCH  14  18
ATOM     18  O   UNL     1      -0.278  13.223  21.988  0.00  0.00    +0.000 OA
ATOM     19  C   UNL     1       0.238  14.543  21.941  0.00  0.00    +0.000 C 
ENDBRANCH  14  18
BRANCH  15  20
ATOM     20  O   UNL     1      -2.997  13.434  21.096  0.00  0.00    +0.000 OA
ATOM     21  C   UNL     1      -3.820  12.848  22.088  0.00  0.00    +0.000 C 
ENDBRANCH  15  20
ENDBRANCH   1  12
BRANCH   7  22
ATOM     22  C   UNL     1       3.166   4.550  18.176  0.00  0.00    +0.000 A 
ATOM     23  C   UNL     1       4.161   4.103  19.053  0.00  0.00    +0.000 A 
ATOM     24  C   UNL     1       4.337   2.736  19.284  0.00  0.00    +0.000 A 
ATOM     25  C   UNL     1       3.523   1.810  18.636  0.00  0.00    +0.000 A 
ATOM     26  C   UNL     1       2.528   2.248  17.760  0.00  0.00    +0.000 A 
ATOM     27  C   UNL     1       2.349   3.616  17.532  0.00  0.00    +0.000 A 
ENDBRANCH   7  22
TORSDOF 5
ENDMDL
