MODEL 1
REMARK VINA RESULT:      -6.9      0.000      0.000
REMARK  Name = 
REMARK  10 active torsions:
REMARK  status: ('A' for Active; 'I' for Inactive)
REMARK    1  A    between atoms: N_5  and  C_6
REMARK    2  A    between atoms: C_8  and  C_9
REMARK    3  A    between atoms: C_9  and  O_10
REMARK    4  A    between atoms: O_10  and  P_11
REMARK    5  A    between atoms: P_11  and  O_13
REMARK    6  A    between atoms: P_11  and  C_14
REMARK    7  A    between atoms: C_14  and  C_15
REMARK    8  A    between atoms: C_15  and  O_17
REMARK    9  A    between atoms: C_18  and  O_19
REMARK   10  A    between atoms: C_20  and  O_21
REMARK                            x       y       z     vdW  Elec       q    Type
REMARK                         _______ _______ _______ _____ _____    ______ ____
ROOT
ATOM      1  C   UNL     1       2.570   5.381  20.065  0.00  0.00    +0.000 C 
ATOM      2  O   UNL     1       3.869   4.881  19.659  0.00  0.00    +0.000 OA
ATOM      3  C   UNL     1       3.757   3.485  19.290  0.00  0.00    +0.000 C 
ATOM      4  C   UNL     1       2.402   3.026  19.821  0.00  0.00    +0.000 C 
ATOM      5  C   UNL     1       1.544   4.280  19.731  0.00  0.00    +0.000 C 
ENDROOT
BRANCH   1  10
ATOM      6  N   UNL     1       1.548  10.350  17.886  0.00  0.00    +0.000 N 
ATOM      7  C   UNL     1       1.789   9.100  18.389  0.00  0.00    +0.000 A 
ATOM      8  C   UNL     1       2.443   8.090  17.545  0.00  0.00    +0.000 A 
ATOM      9  C   UNL     1       2.664   6.908  18.115  0.00  0.00    +0.000 A 
ATOM     10  N   UNL     1       2.309   6.667  19.426  0.00  0.00    +0.000 N 
ATOM     11  C   UNL     1       1.666   7.649  20.191  0.00  0.00    +0.000 A 
ATOM     12  O   UNL     1       1.351   7.439  21.361  0.00  0.00    +0.000 OA
ATOM     13  N   UNL     1       1.429   8.878  19.617  0.00  0.00    +0.000 NA
ATOM     14  H   UNL     1       2.219  10.709  17.216  0.00  0.00    +0.000 HD
ATOM     15  H   UNL     1       1.317  11.016  18.615  0.00  0.00    +0.000 HD
ENDBRANCH   1  10
BRANCH   4  16
ATOM     16  O   UNL     1       2.492   2.627  21.203  0.00  0.00    +0.000 OA
ATOM     17  H   UNL     1       3.380   2.848  21.541  0.00  0.00    +0.000 HD
ENDBRANCH   4  16
BRANCH   5  18
ATOM     18  O   UNL     1       0.437   4.199  20.618  0.00  0.00    +0.000 OA
ATOM     19  H   UNL     1       0.786   3.898  21.480  0.00  0.00    +0.000 HD
ENDBRANCH   5  18
BRANCH   3  20
ATOM     20  C   UNL     1       3.875   3.315  17.770  0.00  0.00    +0.000 C 
BRANCH  20  21
ATOM     21  O   UNL     1       4.510   4.457  17.178  0.00  0.00    +0.000 OA
BRANCH  21  22
ATOM     22  P   UNL     1       6.179   4.621  17.604  0.00  0.00    +0.000 P 
ATOM     23  O   UNL     1       6.593   4.534  16.126  0.00  0.00    +0.000 OA
BRANCH  22  24
ATOM     24  O   UNL     1       5.883   6.217  17.848  0.00  0.00    +0.000 OA
ATOM     25  H   UNL     1       6.659   6.711  17.508  0.00  0.00    +0.000 HD
ENDBRANCH  22  24
BRANCH  22  26
ATOM     26  C   UNL     1       7.943   4.797  18.053  0.00  0.00    +0.000 C 
BRANCH  26  27
ATOM     27  C   UNL     1       8.015   5.896  19.054  0.00  0.00    +0.000 C 
ATOM     28  O   UNL     1       8.281   7.056  18.775  0.00  0.00    +0.000 OA
BRANCH  27  29
ATOM     29  O   UNL     1       7.765   5.489  20.318  0.00  0.00    +0.000 OA
ATOM     30  H   UNL     1       7.323   6.156  20.881  0.00  0.00    +0.000 HD
ENDBRANCH  27  29
ENDBRANCH  26  27
ENDBRANCH  22  26
ENDBRANCH  21  22
ENDBRANCH  20  21
ENDBRANCH   3  20
TORSDOF 10
ENDMDL
MODEL 2
REMARK VINA RESULT:      -6.9      1.728      2.671
REMARK  Name = 
REMARK  10 active torsions:
REMARK  status: ('A' for Active; 'I' for Inactive)
REMARK    1  A    between atoms: N_5  and  C_6
REMARK    2  A    between atoms: C_8  and  C_9
REMARK    3  A    between atoms: C_9  and  O_10
REMARK    4  A    between atoms: O_10  and  P_11
REMARK    5  A    between atoms: P_11  and  O_13
REMARK    6  A    between atoms: P_11  and  C_14
REMARK    7  A    between atoms: C_14  and  C_15
REMARK    8  A    between atoms: C_15  and  O_17
REMARK    9  A    between atoms: C_18  and  O_19
REMARK   10  A    between atoms: C_20  and  O_21
REMARK                            x       y       z     vdW  Elec       q    Type
REMARK                         _______ _______ _______ _____ _____    ______ ____
ROOT
ATOM      1  C   UNL     1       2.744   5.754  19.990  0.00  0.00    +0.000 C 
ATOM      2  O   UNL     1       4.172   5.558  19.834  0.00  0.00    +0.000 OA
ATOM      3  C   UNL     1       4.426   4.219  19.344  0.00  0.00    +0.000 C 
ATOM      4  C   UNL     1       3.120   3.455  19.538  0.00  0.00    +0.000 C 
ATOM      5  C   UNL     1       2.054   4.528  19.362  0.00  0.00    +0.000 C 
ENDROOT
BRANCH   1  10
ATOM      6  N   UNL     1       1.207  10.685  18.039  0.00  0.00    +0.000 N 
ATOM      7  C   UNL     1       1.578   9.446  18.485  0.00  0.00    +0.000 A 
ATOM      8  C   UNL     1       2.342   8.553  17.601  0.00  0.00    +0.000 A 
ATOM      9  C   UNL     1       2.686   7.376  18.117  0.00  0.00    +0.000 A 
ATOM     10  N   UNL     1       2.350   7.034  19.410  0.00  0.00    +0.000 N 
ATOM     11  C   UNL     1       1.600   7.904  20.214  0.00  0.00    +0.000 A 
ATOM     12  O   UNL     1       1.301   7.604  21.369  0.00  0.00    +0.000 OA
ATOM     13  N   UNL     1       1.236   9.126  19.697  0.00  0.00    +0.000 NA
ATOM     14  H   UNL     1       1.839  11.146  17.395  0.00  0.00    +0.000 HD
ATOM     15  H   UNL     1       0.900  11.286  18.796  0.00  0.00    +0.000 HD
ENDBRANCH   1  10
BRANCH   4  16
ATOM     16  O   UNL     1       3.021   2.921  20.872  0.00  0.00    +0.000 OA
ATOM     17  H   UNL     1       3.874   3.046  21.329  0.00  0.00    +0.000 HD
ENDBRANCH   4  16
BRANCH   5  18
ATOM     18  O   UNL     1       0.838   4.137  19.984  0.00  0.00    +0.000 OA
ATOM     19  H   UNL     1       0.996   4.148  20.949  0.00  0.00    +0.000 HD
ENDBRANCH   5  18
BRANCH   3  20
ATOM     20  C   UNL     1       4.869   4.254  17.876  0.00  0.00    +0.000 C 
BRANCH  20  21
ATOM     21  O   UNL     1       6.056   5.045  17.721  0.00  0.00    +0.000 OA
BRANCH  21  22
ATOM     22  P   UNL     1       6.672   5.065  16.105  0.00  0.00    +0.000 P 
ATOM     23  O   UNL     1       7.262   6.468  16.317  0.00  0.00    +0.000 OA
BRANCH  22  24
ATOM     24  O   UNL     1       7.851   4.047  16.619  0.00  0.00    +0.000 OA
ATOM     25  H   UNL     1       7.409   3.249  16.979  0.00  0.00    +0.000 HD
ENDBRANCH  22  24
BRANCH  22  26
ATOM     26  C   UNL     1       7.324   5.085  14.395  0.00  0.00    +0.000 C 
BRANCH  26  27
ATOM     27  C   UNL     1       6.627   3.992  13.666  0.00  0.00    +0.000 C 
ATOM     28  O   UNL     1       6.625   3.876  12.449  0.00  0.00    +0.000 OA
BRANCH  27  29
ATOM     29  O   UNL     1       5.977   3.132  14.481  0.00  0.00    +0.000 OA
ATOM     30  H   UNL     1       6.157   2.187  14.303  0.00  0.00    +0.000 HD
ENDBRANCH  27  29
ENDBRANCH  26  27
ENDBRANCH  22  26
ENDBRANCH  21  22
ENDBRANCH  20  21
ENDBRANCH   3  20
TORSDOF 10
ENDMDL
MODEL 3
REMARK VINA RESULT:      -6.9      1.621      2.177
REMARK  Name = 
REMARK  10 active torsions:
REMARK  status: ('A' for Active; 'I' for Inactive)
REMARK    1  A    between atoms: N_5  and  C_6
REMARK    2  A    between atoms: C_8  and  C_9
REMARK    3  A    between atoms: C_9  and  O_10
REMARK    4  A    between atoms: O_10  and  P_11
REMARK    5  A    between atoms: P_11  and  O_13
REMARK    6  A    between atoms: P_11  and  C_14
REMARK    7  A    between atoms: C_14  and  C_15
REMARK    8  A    between atoms: C_15  and  O_17
REMARK    9  A    between atoms: C_18  and  O_19
REMARK   10  A    between atoms: C_20  and  O_21
REMARK                            x       y       z     vdW  Elec       q    Type
REMARK                         _______ _______ _______ _____ _____    ______ ____
ROOT
ATOM      1  C   UNL     1       2.861   4.161  18.985  0.00  0.00    +0.000 C 
ATOM      2  O   UNL     1       4.273   4.073  18.670  0.00  0.00    +0.000 OA
ATOM      3  C   UNL     1       4.465   3.167  17.556  0.00  0.00    +0.000 C 
ATOM      4  C   UNL     1       3.149   2.409  17.411  0.00  0.00    +0.000 C 
ATOM      5  C   UNL     1       2.106   3.421  17.864  0.00  0.00    +0.000 C 
ENDROOT
BRANCH   1  10
ATOM      6  N   UNL     1       1.398   9.406  19.894  0.00  0.00    +0.000 N 
ATOM      7  C   UNL     1       1.744   8.109  19.630  0.00  0.00    +0.000 A 
ATOM      8  C   UNL     1       2.292   7.756  18.312  0.00  0.00    +0.000 A 
ATOM      9  C   UNL     1       2.626   6.480  18.143  0.00  0.00    +0.000 A 
ATOM     10  N   UNL     1       2.475   5.558  19.157  0.00  0.00    +0.000 N 
ATOM     11  C   UNL     1       1.927   5.929  20.392  0.00  0.00    +0.000 A 
ATOM     12  O   UNL     1       1.794   5.111  21.301  0.00  0.00    +0.000 OA
ATOM     13  N   UNL     1       1.575   7.246  20.586  0.00  0.00    +0.000 NA
ATOM     14  H   UNL     1       1.953  10.126  19.446  0.00  0.00    +0.000 HD
ATOM     15  H   UNL     1       1.260   9.569  20.886  0.00  0.00    +0.000 HD
ENDBRANCH   1  10
BRANCH   4  16
ATOM     16  O   UNL     1       3.102   1.272  18.294  0.00  0.00    +0.000 OA
ATOM     17  H   UNL     1       3.919   1.248  18.826  0.00  0.00    +0.000 HD
ENDBRANCH   4  16
BRANCH   5  18
ATOM     18  O   UNL     1       0.912   2.767  18.271  0.00  0.00    +0.000 OA
ATOM     19  H   UNL     1       0.271   2.865  17.540  0.00  0.00    +0.000 HD
ENDBRANCH   5  18
BRANCH   3  20
ATOM     20  C   UNL     1       4.835   3.942  16.285  0.00  0.00    +0.000 C 
BRANCH  20  21
ATOM     21  O   UNL     1       6.258   3.990  16.114  0.00  0.00    +0.000 OA
BRANCH  21  22
ATOM     22  P   UNL     1       7.037   5.177  17.102  0.00  0.00    +0.000 P 
ATOM     23  O   UNL     1       8.152   4.183  17.466  0.00  0.00    +0.000 OA
BRANCH  22  24
ATOM     24  O   UNL     1       7.559   5.883  15.716  0.00  0.00    +0.000 OA
ATOM     25  H   UNL     1       7.922   6.761  15.957  0.00  0.00    +0.000 HD
ENDBRANCH  22  24
BRANCH  22  26
ATOM     26  C   UNL     1       7.861   6.433  18.147  0.00  0.00    +0.000 C 
BRANCH  26  27
ATOM     27  C   UNL     1       7.434   7.759  17.625  0.00  0.00    +0.000 C 
ATOM     28  O   UNL     1       6.396   7.947  17.008  0.00  0.00    +0.000 OA
BRANCH  27  29
ATOM     29  O   UNL     1       8.314   8.750  17.890  0.00  0.00    +0.000 OA
ATOM     30  H   UNL     1       9.216   8.597  17.543  0.00  0.00    +0.000 HD
ENDBRANCH  27  29
ENDBRANCH  26  27
ENDBRANCH  22  26
ENDBRANCH  21  22
ENDBRANCH  20  21
ENDBRANCH   3  20
TORSDOF 10
ENDMDL
MODEL 4
REMARK VINA RESULT:      -6.8      3.369      5.836
REMARK  Name = 
REMARK  10 active torsions:
REMARK  status: ('A' for Active; 'I' for Inactive)
REMARK    1  A    between atoms: N_5  and  C_6
REMARK    2  A    between atoms: C_8  and  C_9
REMARK    3  A    between atoms: C_9  and  O_10
REMARK    4  A    between atoms: O_10  and  P_11
REMARK    5  A    between atoms: P_11  and  O_13
REMARK    6  A    between atoms: P_11  and  C_14
REMARK    7  A    between atoms: C_14  and  C_15
REMARK    8  A    between atoms: C_15  and  O_17
REMARK    9  A    between atoms: C_18  and  O_19
REMARK   10  A    between atoms: C_20  and  O_21
REMARK                            x       y       z     vdW  Elec       q    Type
REMARK                         _______ _______ _______ _____ _____    ______ ____
ROOT
ATOM      1  C   UNL     1       5.144   5.333  18.479  0.00  0.00    +0.000 C 
ATOM      2  O   UNL     1       4.749   6.512  17.734  0.00  0.00    +0.000 OA
ATOM      3  C   UNL     1       5.811   6.888  16.824  0.00  0.00    +0.000 C 
ATOM      4  C   UNL     1       7.040   6.107  17.280  0.00  0.00    +0.000 C 
ATOM      5  C   UNL     1       6.452   4.821  17.845  0.00  0.00    +0.000 C 
ENDROOT
BRANCH   1  10
ATOM      6  N   UNL     1       1.122   1.560  18.737  0.00  0.00    +0.000 N 
ATOM      7  C   UNL     1       2.112   2.498  18.631  0.00  0.00    +0.000 A 
ATOM      8  C   UNL     1       1.921   3.661  17.754  0.00  0.00    +0.000 A 
ATOM      9  C   UNL     1       2.921   4.540  17.725  0.00  0.00    +0.000 A 
ATOM     10  N   UNL     1       4.055   4.361  18.489  0.00  0.00    +0.000 N 
ATOM     11  C   UNL     1       4.209   3.226  19.296  0.00  0.00    +0.000 A 
ATOM     12  O   UNL     1       5.217   3.065  19.982  0.00  0.00    +0.000 OA
ATOM     13  N   UNL     1       3.186   2.307  19.339  0.00  0.00    +0.000 NA
ATOM     14  H   UNL     1       0.168   1.893  18.657  0.00  0.00    +0.000 HD
ATOM     15  H   UNL     1       1.263   0.944  19.531  0.00  0.00    +0.000 HD
ENDBRANCH   1  10
BRANCH   4  16
ATOM     16  O   UNL     1       7.735   6.799  18.335  0.00  0.00    +0.000 OA
ATOM     17  H   UNL     1       8.657   6.483  18.370  0.00  0.00    +0.000 HD
ENDBRANCH   4  16
BRANCH   5  18
ATOM     18  O   UNL     1       7.360   4.207  18.748  0.00  0.00    +0.000 OA
ATOM     19  H   UNL     1       7.453   4.809  19.512  0.00  0.00    +0.000 HD
ENDBRANCH   5  18
BRANCH   3  20
ATOM     20  C   UNL     1       5.422   6.567  15.375  0.00  0.00    +0.000 C 
BRANCH  20  21
ATOM     21  O   UNL     1       5.079   5.181  15.236  0.00  0.00    +0.000 OA
BRANCH  21  22
ATOM     22  P   UNL     1       5.820   4.416  13.873  0.00  0.00    +0.000 P 
ATOM     23  O   UNL     1       7.039   5.347  13.977  0.00  0.00    +0.000 OA
BRANCH  22  24
ATOM     24  O   UNL     1       6.182   3.161  14.866  0.00  0.00    +0.000 OA
ATOM     25  H   UNL     1       6.005   3.458  15.784  0.00  0.00    +0.000 HD
ENDBRANCH  22  24
BRANCH  22  26
ATOM     26  C   UNL     1       6.604   3.606  12.432  0.00  0.00    +0.000 C 
BRANCH  26  27
ATOM     27  C   UNL     1       5.553   2.763  11.800  0.00  0.00    +0.000 C 
ATOM     28  O   UNL     1       4.420   3.152  11.559  0.00  0.00    +0.000 OA
BRANCH  27  29
ATOM     29  O   UNL     1       5.967   1.507  11.522  0.00  0.00    +0.000 OA
ATOM     30  H   UNL     1       6.905   1.437  11.253  0.00  0.00    +0.000 HD
ENDBRANCH  27  29
ENDBRANCH  26  27
ENDBRANCH  22  26
ENDBRANCH  21  22
ENDBRANCH  20  21
ENDBRANCH   3  20
TORSDOF 10
ENDMDL
MODEL 5
REMARK VINA RESULT:      -6.7      3.634      5.927
REMARK  Name = 
REMARK  10 active torsions:
REMARK  status: ('A' for Active; 'I' for Inactive)
REMARK    1  A    between atoms: N_5  and  C_6
REMARK    2  A    between atoms: C_8  and  C_9
REMARK    3  A    between atoms: C_9  and  O_10
REMARK    4  A    between atoms: O_10  and  P_11
REMARK    5  A    between atoms: P_11  and  O_13
REMARK    6  A    between atoms: P_11  and  C_14
REMARK    7  A    between atoms: C_14  and  C_15
REMARK    8  A    between atoms: C_15  and  O_17
REMARK    9  A    between atoms: C_18  and  O_19
REMARK   10  A    between atoms: C_20  and  O_21
REMARK                            x       y       z     vdW  Elec       q    Type
REMARK                         _______ _______ _______ _____ _____    ______ ____
ROOT
ATOM      1  C   UNL     1       4.854   5.451  17.946  0.00  0.00    +0.000 C 
ATOM      2  O   UNL     1       4.948   5.652  16.514  0.00  0.00    +0.000 OA
ATOM      3  C   UNL     1       6.304   5.394  16.077  0.00  0.00    +0.000 C 
ATOM      4  C   UNL     1       7.149   5.370  17.348  0.00  0.00    +0.000 C 
ATOM      5  C   UNL     1       6.189   4.829  18.399  0.00  0.00    +0.000 C 
ENDROOT
BRANCH   1  10
ATOM      6  N   UNL     1       0.287   2.633  19.245  0.00  0.00    +0.000 N 
ATOM      7  C   UNL     1       1.440   3.295  18.922  0.00  0.00    +0.000 A 
ATOM      8  C   UNL     1       2.349   2.725  17.917  0.00  0.00    +0.000 A 
ATOM      9  C   UNL     1       3.436   3.441  17.642  0.00  0.00    +0.000 A 
ATOM     10  N   UNL     1       3.674   4.650  18.261  0.00  0.00    +0.000 N 
ATOM     11  C   UNL     1       2.795   5.148  19.231  0.00  0.00    +0.000 A 
ATOM     12  O   UNL     1       3.002   6.228  19.783  0.00  0.00    +0.000 OA
ATOM     13  N   UNL     1       1.665   4.421  19.529  0.00  0.00    +0.000 NA
ATOM     14  H   UNL     1      -0.160   2.107  18.503  0.00  0.00    +0.000 HD
ATOM     15  H   UNL     1      -0.359   3.222  19.760  0.00  0.00    +0.000 HD
ENDBRANCH   1  10
BRANCH   4  16
ATOM     16  O   UNL     1       7.551   6.699  17.731  0.00  0.00    +0.000 OA
ATOM     17  H   UNL     1       6.911   7.341  17.373  0.00  0.00    +0.000 HD
ENDBRANCH   4  16
BRANCH   5  18
ATOM     18  O   UNL     1       6.612   5.196  19.704  0.00  0.00    +0.000 OA
ATOM     19  H   UNL     1       6.674   4.372  20.226  0.00  0.00    +0.000 HD
ENDBRANCH   5  18
BRANCH   3  20
ATOM     20  C   UNL     1       6.383   4.073  15.300  0.00  0.00    +0.000 C 
BRANCH  20  21
ATOM     21  O   UNL     1       6.931   4.285  13.992  0.00  0.00    +0.000 OA
BRANCH  21  22
ATOM     22  P   UNL     1       6.204   3.303  12.767  0.00  0.00    +0.000 P 
ATOM     23  O   UNL     1       4.853   4.010  12.963  0.00  0.00    +0.000 OA
BRANCH  22  24
ATOM     24  O   UNL     1       6.989   4.228  11.662  0.00  0.00    +0.000 OA
ATOM     25  H   UNL     1       7.622   3.644  11.192  0.00  0.00    +0.000 HD
ENDBRANCH  22  24
BRANCH  22  26
ATOM     26  C   UNL     1       5.435   2.266  11.470  0.00  0.00    +0.000 C 
BRANCH  26  27
ATOM     27  C   UNL     1       6.397   1.167  11.186  0.00  0.00    +0.000 C 
ATOM     28  O   UNL     1       6.068   0.007  10.989  0.00  0.00    +0.000 OA
BRANCH  27  29
ATOM     29  O   UNL     1       7.686   1.571  11.175  0.00  0.00    +0.000 OA
ATOM     30  H   UNL     1       7.906   2.212  10.469  0.00  0.00    +0.000 HD
ENDBRANCH  27  29
ENDBRANCH  26  27
ENDBRANCH  22  26
ENDBRANCH  21  22
ENDBRANCH  20  21
ENDBRANCH   3  20
TORSDOF 10
ENDMDL
MODEL 6
REMARK VINA RESULT:      -6.7      3.806      6.799
REMARK  Name = 
REMARK  10 active torsions:
REMARK  status: ('A' for Active; 'I' for Inactive)
REMARK    1  A    between atoms: N_5  and  C_6
REMARK    2  A    between atoms: C_8  and  C_9
REMARK    3  A    between atoms: C_9  and  O_10
REMARK    4  A    between atoms: O_10  and  P_11
REMARK    5  A    between atoms: P_11  and  O_13
REMARK    6  A    between atoms: P_11  and  C_14
REMARK    7  A    between atoms: C_14  and  C_15
REMARK    8  A    between atoms: C_15  and  O_17
REMARK    9  A    between atoms: C_18  and  O_19
REMARK   10  A    between atoms: C_20  and  O_21
REMARK                            x       y       z     vdW  Elec       q    Type
REMARK                         _______ _______ _______ _____ _____    ______ ____
ROOT
ATOM      1  C   UNL     1       7.458   5.171  16.774  0.00  0.00    +0.000 C 
ATOM      2  O   UNL     1       7.285   4.228  17.861  0.00  0.00    +0.000 OA
ATOM      3  C   UNL     1       6.846   4.932  19.048  0.00  0.00    +0.000 C 
ATOM      4  C   UNL     1       7.093   6.411  18.764  0.00  0.00    +0.000 C 
ATOM      5  C   UNL     1       6.892   6.520  17.259  0.00  0.00    +0.000 C 
ENDROOT
BRANCH   1  10
ATOM      6  N   UNL     1       5.315   3.271  12.054  0.00  0.00    +0.000 N 
ATOM      7  C   UNL     1       5.807   3.748  13.238  0.00  0.00    +0.000 A 
ATOM      8  C   UNL     1       5.172   3.348  14.502  0.00  0.00    +0.000 A 
ATOM      9  C   UNL     1       5.724   3.835  15.611  0.00  0.00    +0.000 A 
ATOM     10  N   UNL     1       6.834   4.652  15.560  0.00  0.00    +0.000 N 
ATOM     11  C   UNL     1       7.396   5.029  14.333  0.00  0.00    +0.000 A 
ATOM     12  O   UNL     1       8.388   5.755  14.284  0.00  0.00    +0.000 OA
ATOM     13  N   UNL     1       6.838   4.535  13.176  0.00  0.00    +0.000 NA
ATOM     14  H   UNL     1       4.920   2.338  12.067  0.00  0.00    +0.000 HD
ATOM     15  H   UNL     1       5.962   3.419  11.286  0.00  0.00    +0.000 HD
ENDBRANCH   1  10
BRANCH   4  16
ATOM     16  O   UNL     1       8.449   6.782  19.077  0.00  0.00    +0.000 OA
ATOM     17  H   UNL     1       8.520   7.755  19.082  0.00  0.00    +0.000 HD
ENDBRANCH   4  16
BRANCH   5  18
ATOM     18  O   UNL     1       7.551   7.668  16.744  0.00  0.00    +0.000 OA
ATOM     19  H   UNL     1       8.048   7.381  15.953  0.00  0.00    +0.000 HD
ENDBRANCH   5  18
BRANCH   3  20
ATOM     20  C   UNL     1       5.369   4.633  19.340  0.00  0.00    +0.000 C 
BRANCH  20  21
ATOM     21  O   UNL     1       5.192   3.259  19.710  0.00  0.00    +0.000 OA
BRANCH  21  22
ATOM     22  P   UNL     1       3.691   2.584  19.179  0.00  0.00    +0.000 P 
ATOM     23  O   UNL     1       3.025   2.938  20.520  0.00  0.00    +0.000 OA
BRANCH  22  24
ATOM     24  O   UNL     1       3.494   3.930  18.262  0.00  0.00    +0.000 OA
ATOM     25  H   UNL     1       2.551   3.964  17.995  0.00  0.00    +0.000 HD
ENDBRANCH  22  24
BRANCH  22  26
ATOM     26  C   UNL     1       2.102   1.872  18.617  0.00  0.00    +0.000 C 
BRANCH  26  27
ATOM     27  C   UNL     1       1.102   2.972  18.681  0.00  0.00    +0.000 C 
ATOM     28  O   UNL     1       0.918   3.779  17.782  0.00  0.00    +0.000 OA
BRANCH  27  29
ATOM     29  O   UNL     1       0.413   3.005  19.844  0.00  0.00    +0.000 OA
ATOM     30  H   UNL     1      -0.548   3.158  19.743  0.00  0.00    +0.000 HD
ENDBRANCH  27  29
ENDBRANCH  26  27
ENDBRANCH  22  26
ENDBRANCH  21  22
ENDBRANCH  20  21
ENDBRANCH   3  20
TORSDOF 10
ENDMDL
MODEL 7
REMARK VINA RESULT:      -6.7      1.245      2.012
REMARK  Name = 
REMARK  10 active torsions:
REMARK  status: ('A' for Active; 'I' for Inactive)
REMARK    1  A    between atoms: N_5  and  C_6
REMARK    2  A    between atoms: C_8  and  C_9
REMARK    3  A    between atoms: C_9  and  O_10
REMARK    4  A    between atoms: O_10  and  P_11
REMARK    5  A    between atoms: P_11  and  O_13
REMARK    6  A    between atoms: P_11  and  C_14
REMARK    7  A    between atoms: C_14  and  C_15
REMARK    8  A    between atoms: C_15  and  O_17
REMARK    9  A    between atoms: C_18  and  O_19
REMARK   10  A    between atoms: C_20  and  O_21
REMARK                            x       y       z     vdW  Elec       q    Type
REMARK                         _______ _______ _______ _____ _____    ______ ____
ROOT
ATOM      1  C   UNL     1       2.358   5.477  20.472  0.00  0.00    +0.000 C 
ATOM      2  O   UNL     1       3.748   5.069  20.541  0.00  0.00    +0.000 OA
ATOM      3  C   UNL     1       3.850   3.650  20.269  0.00  0.00    +0.000 C 
ATOM      4  C   UNL     1       2.428   3.106  20.379  0.00  0.00    +0.000 C 
ATOM      5  C   UNL     1       1.567   4.275  19.920  0.00  0.00    +0.000 C 
ENDROOT
BRANCH   1  10
ATOM      6  N   UNL     1       1.838  10.225  17.703  0.00  0.00    +0.000 N 
ATOM      7  C   UNL     1       1.958   9.027  18.353  0.00  0.00    +0.000 A 
ATOM      8  C   UNL     1       2.654   7.910  17.698  0.00  0.00    +0.000 A 
ATOM      9  C   UNL     1       2.751   6.788  18.406  0.00  0.00    +0.000 A 
ATOM     10  N   UNL     1       2.236   6.698  19.682  0.00  0.00    +0.000 N 
ATOM     11  C   UNL     1       1.558   7.778  20.263  0.00  0.00    +0.000 A 
ATOM     12  O   UNL     1       1.101   7.704  21.403  0.00  0.00    +0.000 OA
ATOM     13  N   UNL     1       1.449   8.948  19.546  0.00  0.00    +0.000 NA
ATOM     14  H   UNL     1       2.597  10.487  17.086  0.00  0.00    +0.000 HD
ATOM     15  H   UNL     1       1.557  10.972  18.329  0.00  0.00    +0.000 HD
ENDBRANCH   1  10
BRANCH   4  16
ATOM     16  O   UNL     1       2.093   2.796  21.746  0.00  0.00    +0.000 OA
ATOM     17  H   UNL     1       1.732   3.594  22.174  0.00  0.00    +0.000 HD
ENDBRANCH   4  16
BRANCH   5  18
ATOM     18  O   UNL     1       0.241   4.149  20.415  0.00  0.00    +0.000 OA
ATOM     19  H   UNL     1       0.184   3.280  20.858  0.00  0.00    +0.000 HD
ENDBRANCH   5  18
BRANCH   3  20
ATOM     20  C   UNL     1       4.461   3.406  18.883  0.00  0.00    +0.000 C 
BRANCH  20  21
ATOM     21  O   UNL     1       5.889   3.541  18.927  0.00  0.00    +0.000 OA
BRANCH  21  22
ATOM     22  P   UNL     1       6.496   4.817  17.928  0.00  0.00    +0.000 P 
ATOM     23  O   UNL     1       7.914   4.619  18.489  0.00  0.00    +0.000 OA
BRANCH  22  24
ATOM     24  O   UNL     1       6.409   3.772  16.666  0.00  0.00    +0.000 OA
ATOM     25  H   UNL     1       6.419   4.307  15.845  0.00  0.00    +0.000 HD
ENDBRANCH  22  24
BRANCH  22  26
ATOM     26  C   UNL     1       7.138   6.165  16.871  0.00  0.00    +0.000 C 
BRANCH  26  27
ATOM     27  C   UNL     1       6.793   5.802  15.470  0.00  0.00    +0.000 C 
ATOM     28  O   UNL     1       7.575   5.283  14.688  0.00  0.00    +0.000 OA
BRANCH  27  29
ATOM     29  O   UNL     1       5.521   6.111  15.133  0.00  0.00    +0.000 OA
ATOM     30  H   UNL     1       5.420   6.502  14.242  0.00  0.00    +0.000 HD
ENDBRANCH  27  29
ENDBRANCH  26  27
ENDBRANCH  22  26
ENDBRANCH  21  22
ENDBRANCH  20  21
ENDBRANCH   3  20
TORSDOF 10
ENDMDL
MODEL 8
REMARK VINA RESULT:      -6.7      3.736      6.826
REMARK  Name = 
REMARK  10 active torsions:
REMARK  status: ('A' for Active; 'I' for Inactive)
REMARK    1  A    between atoms: N_5  and  C_6
REMARK    2  A    between atoms: C_8  and  C_9
REMARK    3  A    between atoms: C_9  and  O_10
REMARK    4  A    between atoms: O_10  and  P_11
REMARK    5  A    between atoms: P_11  and  O_13
REMARK    6  A    between atoms: P_11  and  C_14
REMARK    7  A    between atoms: C_14  and  C_15
REMARK    8  A    between atoms: C_15  and  O_17
REMARK    9  A    between atoms: C_18  and  O_19
REMARK   10  A    between atoms: C_20  and  O_21
REMARK                            x       y       z     vdW  Elec       q    Type
REMARK                         _______ _______ _______ _____ _____    ______ ____
ROOT
ATOM      1  C   UNL     1       7.421   5.111  16.759  0.00  0.00    +0.000 C 
ATOM      2  O   UNL     1       7.195   4.163  17.832  0.00  0.00    +0.000 OA
ATOM      3  C   UNL     1       6.725   4.865  19.008  0.00  0.00    +0.000 C 
ATOM      4  C   UNL     1       7.005   6.342  18.745  0.00  0.00    +0.000 C 
ATOM      5  C   UNL     1       6.860   6.465  17.234  0.00  0.00    +0.000 C 
ENDROOT
BRANCH   1  10
ATOM      6  N   UNL     1       5.415   3.288  11.949  0.00  0.00    +0.000 N 
ATOM      7  C   UNL     1       5.873   3.745  13.155  0.00  0.00    +0.000 A 
ATOM      8  C   UNL     1       5.213   3.311  14.395  0.00  0.00    +0.000 A 
ATOM      9  C   UNL     1       5.733   3.780  15.526  0.00  0.00    +0.000 A 
ATOM     10  N   UNL     1       6.833   4.611  15.520  0.00  0.00    +0.000 N 
ATOM     11  C   UNL     1       7.419   5.022  14.315  0.00  0.00    +0.000 A 
ATOM     12  O   UNL     1       8.403   5.760  14.305  0.00  0.00    +0.000 OA
ATOM     13  N   UNL     1       6.895   4.546  13.134  0.00  0.00    +0.000 NA
ATOM     14  H   UNL     1       5.031   2.351  11.933  0.00  0.00    +0.000 HD
ATOM     15  H   UNL     1       6.078   3.460  11.200  0.00  0.00    +0.000 HD
ENDBRANCH   1  10
BRANCH   4  16
ATOM     16  O   UNL     1       8.355   6.689  19.108  0.00  0.00    +0.000 OA
ATOM     17  H   UNL     1       8.441   7.661  19.126  0.00  0.00    +0.000 HD
ENDBRANCH   4  16
BRANCH   5  18
ATOM     18  O   UNL     1       7.555   7.607  16.752  0.00  0.00    +0.000 OA
ATOM     19  H   UNL     1       8.479   7.529  17.061  0.00  0.00    +0.000 HD
ENDBRANCH   5  18
BRANCH   3  20
ATOM     20  C   UNL     1       5.234   4.589  19.245  0.00  0.00    +0.000 C 
BRANCH  20  21
ATOM     21  O   UNL     1       4.833   3.374  18.595  0.00  0.00    +0.000 OA
BRANCH  21  22
ATOM     22  P   UNL     1       3.289   2.789  19.109  0.00  0.00    +0.000 P 
ATOM     23  O   UNL     1       3.470   1.503  18.285  0.00  0.00    +0.000 OA
BRANCH  22  24
ATOM     24  O   UNL     1       3.983   2.445  20.556  0.00  0.00    +0.000 OA
ATOM     25  H   UNL     1       3.330   2.672  21.252  0.00  0.00    +0.000 HD
ENDBRANCH  22  24
BRANCH  22  26
ATOM     26  C   UNL     1       1.656   2.169  19.654  0.00  0.00    +0.000 C 
BRANCH  26  27
ATOM     27  C   UNL     1       1.290   2.955  20.863  0.00  0.00    +0.000 C 
ATOM     28  O   UNL     1       1.553   2.612  22.006  0.00  0.00    +0.000 OA
BRANCH  27  29
ATOM     29  O   UNL     1       0.621   4.095  20.580  0.00  0.00    +0.000 OA
ATOM     30  H   UNL     1       0.126   4.078  19.736  0.00  0.00    +0.000 HD
ENDBRANCH  27  29
ENDBRANCH  26  27
ENDBRANCH  22  26
ENDBRANCH  21  22
ENDBRANCH  20  21
ENDBRANCH   3  20
TORSDOF 10
ENDMDL
MODEL 9
REMARK VINA RESULT:      -6.6      3.174      5.530
REMARK  Name = 
REMARK  10 active torsions:
REMARK  status: ('A' for Active; 'I' for Inactive)
REMARK    1  A    between atoms: N_5  and  C_6
REMARK    2  A    between atoms: C_8  and  C_9
REMARK    3  A    between atoms: C_9  and  O_10
REMARK    4  A    between atoms: O_10  and  P_11
REMARK    5  A    between atoms: P_11  and  O_13
REMARK    6  A    between atoms: P_11  and  C_14
REMARK    7  A    between atoms: C_14  and  C_15
REMARK    8  A    between atoms: C_15  and  O_17
REMARK    9  A    between atoms: C_18  and  O_19
REMARK   10  A    between atoms: C_20  and  O_21
REMARK                            x       y       z     vdW  Elec       q    Type
REMARK                         _______ _______ _______ _____ _____    ______ ____
ROOT
ATOM      1  C   UNL     1       5.127   5.911  19.046  0.00  0.00    +0.000 C 
ATOM      2  O   UNL     1       4.879   6.401  17.704  0.00  0.00    +0.000 OA
ATOM      3  C   UNL     1       6.065   6.214  16.894  0.00  0.00    +0.000 C 
ATOM      4  C   UNL     1       7.193   5.914  17.876  0.00  0.00    +0.000 C 
ATOM      5  C   UNL     1       6.487   5.186  19.012  0.00  0.00    +0.000 C 
ENDROOT
BRANCH   1  10
ATOM      6  N   UNL     1       0.740   2.983  20.677  0.00  0.00    +0.000 N 
ATOM      7  C   UNL     1       1.852   3.683  20.297  0.00  0.00    +0.000 A 
ATOM      8  C   UNL     1       3.090   2.961  19.971  0.00  0.00    +0.000 A 
ATOM      9  C   UNL     1       4.119   3.712  19.586  0.00  0.00    +0.000 A 
ATOM     10  N   UNL     1       4.010   5.084  19.490  0.00  0.00    +0.000 N 
ATOM     11  C   UNL     1       2.818   5.737  19.832  0.00  0.00    +0.000 A 
ATOM     12  O   UNL     1       2.715   6.960  19.744  0.00  0.00    +0.000 OA
ATOM     13  N   UNL     1       1.743   4.977  20.232  0.00  0.00    +0.000 NA
ATOM     14  H   UNL     1       0.614   2.067  20.263  0.00  0.00    +0.000 HD
ATOM     15  H   UNL     1      -0.098   3.554  20.647  0.00  0.00    +0.000 HD
ENDBRANCH   1  10
BRANCH   4  16
ATOM     16  O   UNL     1       7.769   7.128  18.395  0.00  0.00    +0.000 OA
ATOM     17  H   UNL     1       8.626   7.286  17.958  0.00  0.00    +0.000 HD
ENDBRANCH   4  16
BRANCH   5  18
ATOM     18  O   UNL     1       7.243   5.269  20.211  0.00  0.00    +0.000 OA
ATOM     19  H   UNL     1       7.268   4.370  20.595  0.00  0.00    +0.000 HD
ENDBRANCH   5  18
BRANCH   3  20
ATOM     20  C   UNL     1       5.857   5.080  15.881  0.00  0.00    +0.000 C 
BRANCH  20  21
ATOM     21  O   UNL     1       5.716   5.604  14.553  0.00  0.00    +0.000 OA
BRANCH  21  22
ATOM     22  P   UNL     1       6.239   4.512  13.317  0.00  0.00    +0.000 P 
ATOM     23  O   UNL     1       7.624   5.178  13.276  0.00  0.00    +0.000 OA
BRANCH  22  24
ATOM     24  O   UNL     1       6.374   3.368  14.486  0.00  0.00    +0.000 OA
ATOM     25  H   UNL     1       6.638   2.533  14.046  0.00  0.00    +0.000 HD
ENDBRANCH  22  24
BRANCH  22  26
ATOM     26  C   UNL     1       6.793   3.356  12.011  0.00  0.00    +0.000 C 
BRANCH  26  27
ATOM     27  C   UNL     1       5.614   2.518  11.664  0.00  0.00    +0.000 C 
ATOM     28  O   UNL     1       4.487   2.962  11.497  0.00  0.00    +0.000 OA
BRANCH  27  29
ATOM     29  O   UNL     1       5.902   1.202  11.559  0.00  0.00    +0.000 OA
ATOM     30  H   UNL     1       5.170   0.604  11.810  0.00  0.00    +0.000 HD
ENDBRANCH  27  29
ENDBRANCH  26  27
ENDBRANCH  22  26
ENDBRANCH  21  22
ENDBRANCH  20  21
ENDBRANCH   3  20
TORSDOF 10
ENDMDL
