MODEL 1
REMARK VINA RESULT:      -8.6      0.000      0.000
REMARK  Name = 
REMARK  6 active torsions:
REMARK  status: ('A' for Active; 'I' for Inactive)
REMARK    1  A    between atoms: C_1  and  C_2
REMARK    2  A    between atoms: C_4  and  C_5
REMARK    3  A    between atoms: C_8  and  C_10
REMARK    4  A    between atoms: C_10  and  S_11
REMARK    5  A    between atoms: S_11  and  C_12
REMARK    6  A    between atoms: C_15  and  C_16
REMARK                            x       y       z     vdW  Elec       q    Type
REMARK                         _______ _______ _______ _____ _____    ______ ____
ROOT
ATOM      1  S   UNL     1       7.706   5.159  18.330  0.00  0.00    +0.000 S 
ENDROOT
BRANCH   1   2
ATOM      2  C   UNL     1       7.752   6.872  18.047  0.00  0.00    +0.000 A 
ATOM      3  N   UNL     1       7.048   7.480  17.115  0.00  0.00    +0.000 NA
ATOM      4  N   UNL     1       7.363   8.822  17.188  0.00  0.00    +0.000 NA
ATOM      5  C   UNL     1       8.246   8.944  18.157  0.00  0.00    +0.000 A 
ATOM      6  O   UNL     1       8.547   7.743  18.745  0.00  0.00    +0.000 OA
BRANCH   5   7
ATOM      7  C   UNL     1       8.921  10.128  18.676  0.00  0.00    +0.000 A 
ATOM      8  C   UNL     1       9.242  10.218  20.040  0.00  0.00    +0.000 A 
ATOM      9  C   UNL     1       9.913  11.337  20.547  0.00  0.00    +0.000 A 
ATOM     10  C   UNL     1      10.264  12.381  19.694  0.00  0.00    +0.000 A 
ATOM     11 CL   UNL     1      11.100  13.751  20.309  0.00  0.00    +0.000 Cl
ATOM     12  C   UNL     1       9.941  12.317  18.341  0.00  0.00    +0.000 A 
ATOM     13  C   UNL     1       9.273  11.197  17.836  0.00  0.00    +0.000 A 
ENDBRANCH   5   7
ENDBRANCH   1   2
BRANCH   1  14
ATOM     14  C   UNL     1       6.052   4.750  17.709  0.00  0.00    +0.000 C 
BRANCH  14  22
ATOM     15  C   UNL     1       3.883   1.255  18.022  0.00  0.00    +0.000 C 
ATOM     16  C   UNL     1       2.742   2.230  17.713  0.00  0.00    +0.000 C 
ATOM     17  C   UNL     1       1.701   2.261  18.844  0.00  0.00    +0.000 C 
ATOM     18  C   UNL     1       2.243   2.944  20.111  0.00  0.00    +0.000 C 
ATOM     19  C   UNL     1       1.157   3.033  21.180  0.00  0.00    +0.000 C 
ATOM     20  C   UNL     1       2.813   4.332  19.775  0.00  0.00    +0.000 C 
ATOM     21  N   UNL     1       3.787   4.250  18.681  0.00  0.00    +0.000 N 
ATOM     22  C   UNL     1       5.045   4.820  18.849  0.00  0.00    +0.000 C 
ATOM     23  O   UNL     1       5.372   5.375  19.903  0.00  0.00    +0.000 OA
ATOM     24  C   UNL     1       3.275   3.645  17.449  0.00  0.00    +0.000 C 
ENDBRANCH  14  22
ENDBRANCH   1  14
TORSDOF 4
ENDMDL
MODEL 2
REMARK VINA RESULT:      -8.1      1.075      1.972
REMARK  Name = 
REMARK  6 active torsions:
REMARK  status: ('A' for Active; 'I' for Inactive)
REMARK    1  A    between atoms: C_1  and  C_2
REMARK    2  A    between atoms: C_4  and  C_5
REMARK    3  A    between atoms: C_8  and  C_10
REMARK    4  A    between atoms: C_10  and  S_11
REMARK    5  A    between atoms: S_11  and  C_12
REMARK    6  A    between atoms: C_15  and  C_16
REMARK                            x       y       z     vdW  Elec       q    Type
REMARK                         _______ _______ _______ _____ _____    ______ ____
ROOT
ATOM      1  S   UNL     1       7.407   5.298  18.397  0.00  0.00    +0.000 S 
ENDROOT
BRANCH   1   2
ATOM      2  C   UNL     1       7.612   6.994  18.084  0.00  0.00    +0.000 A 
ATOM      3  N   UNL     1       6.929   7.660  17.175  0.00  0.00    +0.000 NA
ATOM      4  N   UNL     1       7.381   8.963  17.211  0.00  0.00    +0.000 NA
ATOM      5  C   UNL     1       8.317   9.006  18.136  0.00  0.00    +0.000 A 
ATOM      6  O   UNL     1       8.523   7.788  18.730  0.00  0.00    +0.000 OA
BRANCH   5   7
ATOM      7  C   UNL     1       9.132  10.122  18.603  0.00  0.00    +0.000 A 
ATOM      8  C   UNL     1       9.234  10.397  19.977  0.00  0.00    +0.000 A 
ATOM      9  C   UNL     1      10.033  11.449  20.441  0.00  0.00    +0.000 A 
ATOM     10  C   UNL     1      10.735  12.239  19.533  0.00  0.00    +0.000 A 
ATOM     11 CL   UNL     1      11.729  13.522  20.099  0.00  0.00    +0.000 Cl
ATOM     12  C   UNL     1      10.636  11.990  18.167  0.00  0.00    +0.000 A 
ATOM     13  C   UNL     1       9.839  10.938  17.706  0.00  0.00    +0.000 A 
ENDBRANCH   5   7
ENDBRANCH   1   2
BRANCH   1  14
ATOM     14  C   UNL     1       5.830   5.300  19.294  0.00  0.00    +0.000 C 
BRANCH  14  22
ATOM     15  C   UNL     1       1.897   6.027  20.304  0.00  0.00    +0.000 C 
ATOM     16  C   UNL     1       2.078   4.659  20.971  0.00  0.00    +0.000 C 
ATOM     17  C   UNL     1       1.102   3.617  20.399  0.00  0.00    +0.000 C 
ATOM     18  C   UNL     1       1.463   3.214  18.960  0.00  0.00    +0.000 C 
ATOM     19  C   UNL     1       0.526   2.118  18.458  0.00  0.00    +0.000 C 
ATOM     20  C   UNL     1       2.934   2.776  18.874  0.00  0.00    +0.000 C 
ATOM     21  N   UNL     1       3.821   3.796  19.446  0.00  0.00    +0.000 N 
ATOM     22  C   UNL     1       4.900   4.254  18.696  0.00  0.00    +0.000 C 
ATOM     23  O   UNL     1       5.119   3.841  17.553  0.00  0.00    +0.000 OA
ATOM     24  C   UNL     1       3.522   4.159  20.833  0.00  0.00    +0.000 C 
ENDBRANCH  14  22
ENDBRANCH   1  14
TORSDOF 4
ENDMDL
MODEL 3
REMARK VINA RESULT:      -8.0      1.169      1.224
REMARK  Name = 
REMARK  6 active torsions:
REMARK  status: ('A' for Active; 'I' for Inactive)
REMARK    1  A    between atoms: C_1  and  C_2
REMARK    2  A    between atoms: C_4  and  C_5
REMARK    3  A    between atoms: C_8  and  C_10
REMARK    4  A    between atoms: C_10  and  S_11
REMARK    5  A    between atoms: S_11  and  C_12
REMARK    6  A    between atoms: C_15  and  C_16
REMARK                            x       y       z     vdW  Elec       q    Type
REMARK                         _______ _______ _______ _____ _____    ______ ____
ROOT
ATOM      1  S   UNL     1       5.684   6.485  16.661  0.00  0.00    +0.000 S 
ENDROOT
BRANCH   1   2
ATOM      2  C   UNL     1       6.954   7.345  17.473  0.00  0.00    +0.000 A 
ATOM      3  N   UNL     1       7.807   6.780  18.305  0.00  0.00    +0.000 NA
ATOM      4  N   UNL     1       8.645   7.780  18.757  0.00  0.00    +0.000 NA
ATOM      5  C   UNL     1       8.244   8.891  18.176  0.00  0.00    +0.000 A 
ATOM      6  O   UNL     1       7.169   8.693  17.350  0.00  0.00    +0.000 OA
BRANCH   5   7
ATOM      7  C   UNL     1       8.763  10.251  18.279  0.00  0.00    +0.000 A 
ATOM      8  C   UNL     1       9.869  10.525  19.102  0.00  0.00    +0.000 A 
ATOM      9  C   UNL     1      10.393  11.820  19.191  0.00  0.00    +0.000 A 
ATOM     10  C   UNL     1       9.812  12.855  18.461  0.00  0.00    +0.000 A 
ATOM     11 CL   UNL     1      10.461  14.444  18.556  0.00  0.00    +0.000 Cl
ATOM     12  C   UNL     1       8.707  12.605  17.651  0.00  0.00    +0.000 A 
ATOM     13  C   UNL     1       8.187  11.311  17.562  0.00  0.00    +0.000 A 
ENDBRANCH   5   7
ENDBRANCH   1   2
BRANCH   1  14
ATOM     14  C   UNL     1       5.752   4.883  17.510  0.00  0.00    +0.000 C 
BRANCH  14  22
ATOM     15  C   UNL     1       3.720   1.321  17.965  0.00  0.00    +0.000 C 
ATOM     16  C   UNL     1       2.529   2.265  17.764  0.00  0.00    +0.000 C 
ATOM     17  C   UNL     1       1.588   2.254  18.980  0.00  0.00    +0.000 C 
ATOM     18  C   UNL     1       2.214   2.942  20.204  0.00  0.00    +0.000 C 
ATOM     19  C   UNL     1       1.220   2.988  21.362  0.00  0.00    +0.000 C 
ATOM     20  C   UNL     1       2.713   4.349  19.837  0.00  0.00    +0.000 C 
ATOM     21  N   UNL     1       3.593   4.307  18.664  0.00  0.00    +0.000 N 
ATOM     22  C   UNL     1       4.844   4.913  18.732  0.00  0.00    +0.000 C 
ATOM     23  O   UNL     1       5.242   5.468  19.761  0.00  0.00    +0.000 OA
ATOM     24  C   UNL     1       2.997   3.698  17.473  0.00  0.00    +0.000 C 
ENDBRANCH  14  22
ENDBRANCH   1  14
TORSDOF 4
ENDMDL
MODEL 4
REMARK VINA RESULT:      -7.9      5.148      7.431
REMARK  Name = 
REMARK  6 active torsions:
REMARK  status: ('A' for Active; 'I' for Inactive)
REMARK    1  A    between atoms: C_1  and  C_2
REMARK    2  A    between atoms: C_4  and  C_5
REMARK    3  A    between atoms: C_8  and  C_10
REMARK    4  A    between atoms: C_10  and  S_11
REMARK    5  A    between atoms: S_11  and  C_12
REMARK    6  A    between atoms: C_15  and  C_16
REMARK                            x       y       z     vdW  Elec       q    Type
REMARK                         _______ _______ _______ _____ _____    ______ ____
ROOT
ATOM      1  S   UNL     1       2.455   4.306  20.289  0.00  0.00    +0.000 S 
ENDROOT
BRANCH   1   2
ATOM      2  C   UNL     1       2.130   6.002  20.110  0.00  0.00    +0.000 A 
ATOM      3  N   UNL     1       2.603   6.739  19.125  0.00  0.00    +0.000 NA
ATOM      4  N   UNL     1       2.146   8.025  19.334  0.00  0.00    +0.000 NA
ATOM      5  C   UNL     1       1.428   7.990  20.437  0.00  0.00    +0.000 A 
ATOM      6  O   UNL     1       1.379   6.737  20.990  0.00  0.00    +0.000 OA
BRANCH   5   7
ATOM      7  C   UNL     1       0.704   9.052  21.127  0.00  0.00    +0.000 A 
ATOM      8  C   UNL     1       0.399  10.249  20.458  0.00  0.00    +0.000 A 
ATOM      9  C   UNL     1      -0.317  11.267  21.100  0.00  0.00    +0.000 A 
ATOM     10  C   UNL     1      -0.731  11.097  22.419  0.00  0.00    +0.000 A 
ATOM     11 CL   UNL     1      -1.624  12.338  23.207  0.00  0.00    +0.000 Cl
ATOM     12  C   UNL     1      -0.426   9.923  23.103  0.00  0.00    +0.000 A 
ATOM     13  C   UNL     1       0.287   8.908  22.460  0.00  0.00    +0.000 A 
ENDBRANCH   5   7
ENDBRANCH   1   2
BRANCH   1  14
ATOM     14  C   UNL     1       4.142   4.205  19.632  0.00  0.00    +0.000 C 
BRANCH  14  22
ATOM     15  C   UNL     1       7.854   4.586  17.871  0.00  0.00    +0.000 C 
ATOM     16  C   UNL     1       7.084   5.637  17.063  0.00  0.00    +0.000 C 
ATOM     17  C   UNL     1       7.081   5.305  15.561  0.00  0.00    +0.000 C 
ATOM     18  C   UNL     1       6.200   4.087  15.239  0.00  0.00    +0.000 C 
ATOM     19  C   UNL     1       6.152   3.841  13.733  0.00  0.00    +0.000 C 
ATOM     20  C   UNL     1       4.789   4.271  15.822  0.00  0.00    +0.000 C 
ATOM     21  N   UNL     1       4.848   4.601  17.250  0.00  0.00    +0.000 N 
ATOM     22  C   UNL     1       4.094   3.854  18.151  0.00  0.00    +0.000 C 
ATOM     23  O   UNL     1       3.391   2.908  17.782  0.00  0.00    +0.000 OA
ATOM     24  C   UNL     1       5.644   5.787  17.573  0.00  0.00    +0.000 C 
ENDBRANCH  14  22
ENDBRANCH   1  14
TORSDOF 4
ENDMDL
MODEL 5
REMARK VINA RESULT:      -7.9      0.921      1.364
REMARK  Name = 
REMARK  6 active torsions:
REMARK  status: ('A' for Active; 'I' for Inactive)
REMARK    1  A    between atoms: C_1  and  C_2
REMARK    2  A    between atoms: C_4  and  C_5
REMARK    3  A    between atoms: C_8  and  C_10
REMARK    4  A    between atoms: C_10  and  S_11
REMARK    5  A    between atoms: S_11  and  C_12
REMARK    6  A    between atoms: C_15  and  C_16
REMARK                            x       y       z     vdW  Elec       q    Type
REMARK                         _______ _______ _______ _____ _____    ______ ____
ROOT
ATOM      1  S   UNL     1       7.409   5.395  18.637  0.00  0.00    +0.000 S 
ENDROOT
BRANCH   1   2
ATOM      2  C   UNL     1       7.755   7.031  18.171  0.00  0.00    +0.000 A 
ATOM      3  N   UNL     1       7.440   7.541  16.997  0.00  0.00    +0.000 NA
ATOM      4  N   UNL     1       7.889   8.846  16.995  0.00  0.00    +0.000 NA
ATOM      5  C   UNL     1       8.457   9.045  18.167  0.00  0.00    +0.000 A 
ATOM      6  O   UNL     1       8.415   7.932  18.965  0.00  0.00    +0.000 OA
BRANCH   5   7
ATOM      7  C   UNL     1       9.096  10.236  18.716  0.00  0.00    +0.000 A 
ATOM      8  C   UNL     1       9.399  11.324  17.882  0.00  0.00    +0.000 A 
ATOM      9  C   UNL     1       9.990  12.483  18.400  0.00  0.00    +0.000 A 
ATOM     10  C   UNL     1      10.288  12.561  19.759  0.00  0.00    +0.000 A 
ATOM     11 CL   UNL     1      11.000  13.987  20.403  0.00  0.00    +0.000 Cl
ATOM     12  C   UNL     1      10.008  11.487  20.599  0.00  0.00    +0.000 A 
ATOM     13  C   UNL     1       9.416  10.332  20.080  0.00  0.00    +0.000 A 
ENDBRANCH   5   7
ENDBRANCH   1   2
BRANCH   1  14
ATOM     14  C   UNL     1       6.154   4.943  17.408  0.00  0.00    +0.000 C 
BRANCH  14  22
ATOM     15  C   UNL     1       4.735   2.043  19.976  0.00  0.00    +0.000 C 
ATOM     16  C   UNL     1       3.668   1.949  18.879  0.00  0.00    +0.000 C 
ATOM     17  C   UNL     1       2.264   2.258  19.427  0.00  0.00    +0.000 C 
ATOM     18  C   UNL     1       2.094   3.745  19.778  0.00  0.00    +0.000 C 
ATOM     19  C   UNL     1       0.665   4.028  20.235  0.00  0.00    +0.000 C 
ATOM     20  C   UNL     1       2.486   4.631  18.585  0.00  0.00    +0.000 C 
ATOM     21  N   UNL     1       3.824   4.287  18.091  0.00  0.00    +0.000 N 
ATOM     22  C   UNL     1       4.770   5.296  17.935  0.00  0.00    +0.000 C 
ATOM     23  O   UNL     1       4.520   6.471  18.221  0.00  0.00    +0.000 OA
ATOM     24  C   UNL     1       3.993   2.884  17.706  0.00  0.00    +0.000 C 
ENDBRANCH  14  22
ENDBRANCH   1  14
TORSDOF 4
ENDMDL
MODEL 6
REMARK VINA RESULT:      -7.8      1.267      1.585
REMARK  Name = 
REMARK  6 active torsions:
REMARK  status: ('A' for Active; 'I' for Inactive)
REMARK    1  A    between atoms: C_1  and  C_2
REMARK    2  A    between atoms: C_4  and  C_5
REMARK    3  A    between atoms: C_8  and  C_10
REMARK    4  A    between atoms: C_10  and  S_11
REMARK    5  A    between atoms: S_11  and  C_12
REMARK    6  A    between atoms: C_15  and  C_16
REMARK                            x       y       z     vdW  Elec       q    Type
REMARK                         _______ _______ _______ _____ _____    ______ ____
ROOT
ATOM      1  S   UNL     1       5.510   6.672  16.716  0.00  0.00    +0.000 S 
ENDROOT
BRANCH   1   2
ATOM      2  C   UNL     1       6.855   7.452  17.487  0.00  0.00    +0.000 A 
ATOM      3  N   UNL     1       7.742   6.820  18.229  0.00  0.00    +0.000 NA
ATOM      4  N   UNL     1       8.637   7.771  18.677  0.00  0.00    +0.000 NA
ATOM      5  C   UNL     1       8.234   8.923  18.183  0.00  0.00    +0.000 A 
ATOM      6  O   UNL     1       7.102   8.798  17.421  0.00  0.00    +0.000 OA
BRANCH   5   7
ATOM      7  C   UNL     1       8.800  10.260  18.323  0.00  0.00    +0.000 A 
ATOM      8  C   UNL     1       8.282  11.329  17.573  0.00  0.00    +0.000 A 
ATOM      9  C   UNL     1       8.799  12.622  17.716  0.00  0.00    +0.000 A 
ATOM     10  C   UNL     1       9.841  12.857  18.609  0.00  0.00    +0.000 A 
ATOM     11 CL   UNL     1      10.469  14.447  18.800  0.00  0.00    +0.000 Cl
ATOM     12  C   UNL     1      10.377  11.808  19.352  0.00  0.00    +0.000 A 
ATOM     13  C   UNL     1       9.859  10.518  19.209  0.00  0.00    +0.000 A 
ENDBRANCH   5   7
ENDBRANCH   1   2
BRANCH   1  14
ATOM     14  C   UNL     1       5.710   4.970  17.309  0.00  0.00    +0.000 C 
BRANCH  14  22
ATOM     15  C   UNL     1       2.735   2.113  17.421  0.00  0.00    +0.000 C 
ATOM     16  C   UNL     1       1.911   3.347  17.802  0.00  0.00    +0.000 C 
ATOM     17  C   UNL     1       1.270   3.192  19.191  0.00  0.00    +0.000 C 
ATOM     18  C   UNL     1       2.311   3.261  20.321  0.00  0.00    +0.000 C 
ATOM     19  C   UNL     1       1.629   3.191  21.685  0.00  0.00    +0.000 C 
ATOM     20  C   UNL     1       3.169   4.530  20.188  0.00  0.00    +0.000 C 
ATOM     21  N   UNL     1       3.744   4.638  18.843  0.00  0.00    +0.000 N 
ATOM     22  C   UNL     1       5.114   4.841  18.705  0.00  0.00    +0.000 C 
ATOM     23  O   UNL     1       5.863   4.911  19.684  0.00  0.00    +0.000 OA
ATOM     24  C   UNL     1       2.764   4.623  17.755  0.00  0.00    +0.000 C 
ENDBRANCH  14  22
ENDBRANCH   1  14
TORSDOF 4
ENDMDL
MODEL 7
REMARK VINA RESULT:      -7.5      1.651      2.269
REMARK  Name = 
REMARK  6 active torsions:
REMARK  status: ('A' for Active; 'I' for Inactive)
REMARK    1  A    between atoms: C_1  and  C_2
REMARK    2  A    between atoms: C_4  and  C_5
REMARK    3  A    between atoms: C_8  and  C_10
REMARK    4  A    between atoms: C_10  and  S_11
REMARK    5  A    between atoms: S_11  and  C_12
REMARK    6  A    between atoms: C_15  and  C_16
REMARK                            x       y       z     vdW  Elec       q    Type
REMARK                         _______ _______ _______ _____ _____    ______ ____
ROOT
ATOM      1  S   UNL     1       5.767   6.602  16.460  0.00  0.00    +0.000 S 
ENDROOT
BRANCH   1   2
ATOM      2  C   UNL     1       6.991   7.353  17.436  0.00  0.00    +0.000 A 
ATOM      3  N   UNL     1       7.717   6.706  18.326  0.00  0.00    +0.000 NA
ATOM      4  N   UNL     1       8.558   7.635  18.906  0.00  0.00    +0.000 NA
ATOM      5  C   UNL     1       8.284   8.790  18.336  0.00  0.00    +0.000 A 
ATOM      6  O   UNL     1       7.292   8.688  17.395  0.00  0.00    +0.000 OA
BRANCH   5   7
ATOM      7  C   UNL     1       8.865  10.111  18.552  0.00  0.00    +0.000 A 
ATOM      8  C   UNL     1       9.675  10.352  19.674  0.00  0.00    +0.000 A 
ATOM      9  C   UNL     1      10.259  11.607  19.881  0.00  0.00    +0.000 A 
ATOM     10  C   UNL     1      10.034  12.635  18.968  0.00  0.00    +0.000 A 
ATOM     11 CL   UNL     1      10.761  14.174  19.210  0.00  0.00    +0.000 Cl
ATOM     12  C   UNL     1       9.223  12.420  17.857  0.00  0.00    +0.000 A 
ATOM     13  C   UNL     1       8.642  11.165  17.652  0.00  0.00    +0.000 A 
ENDBRANCH   5   7
ENDBRANCH   1   2
BRANCH   1  14
ATOM     14  C   UNL     1       6.263   4.860  16.561  0.00  0.00    +0.000 C 
BRANCH  14  22
ATOM     15  C   UNL     1       3.516   6.091  19.381  0.00  0.00    +0.000 C 
ATOM     16  C   UNL     1       3.818   4.689  19.922  0.00  0.00    +0.000 C 
ATOM     17  C   UNL     1       2.555   3.813  19.961  0.00  0.00    +0.000 C 
ATOM     18  C   UNL     1       2.083   3.413  18.554  0.00  0.00    +0.000 C 
ATOM     19  C   UNL     1       0.881   2.476  18.636  0.00  0.00    +0.000 C 
ATOM     20  C   UNL     1       3.235   2.779  17.757  0.00  0.00    +0.000 C 
ATOM     21  N   UNL     1       4.419   3.645  17.763  0.00  0.00    +0.000 N 
ATOM     22  C   UNL     1       5.025   3.974  16.555  0.00  0.00    +0.000 C 
ATOM     23  O   UNL     1       4.580   3.574  15.474  0.00  0.00    +0.000 OA
ATOM     24  C   UNL     1       4.912   3.998  19.096  0.00  0.00    +0.000 C 
ENDBRANCH  14  22
ENDBRANCH   1  14
TORSDOF 4
ENDMDL
MODEL 8
REMARK VINA RESULT:      -7.4      1.670      2.503
REMARK  Name = 
REMARK  6 active torsions:
REMARK  status: ('A' for Active; 'I' for Inactive)
REMARK    1  A    between atoms: C_1  and  C_2
REMARK    2  A    between atoms: C_4  and  C_5
REMARK    3  A    between atoms: C_8  and  C_10
REMARK    4  A    between atoms: C_10  and  S_11
REMARK    5  A    between atoms: S_11  and  C_12
REMARK    6  A    between atoms: C_15  and  C_16
REMARK                            x       y       z     vdW  Elec       q    Type
REMARK                         _______ _______ _______ _____ _____    ______ ____
ROOT
ATOM      1  S   UNL     1       6.170   6.352  16.325  0.00  0.00    +0.000 S 
ENDROOT
BRANCH   1   2
ATOM      2  C   UNL     1       7.236   7.238  17.371  0.00  0.00    +0.000 A 
ATOM      3  N   UNL     1       7.903   6.694  18.369  0.00  0.00    +0.000 NA
ATOM      4  N   UNL     1       8.619   7.709  18.971  0.00  0.00    +0.000 NA
ATOM      5  C   UNL     1       8.337   8.808  18.303  0.00  0.00    +0.000 A 
ATOM      6  O   UNL     1       7.458   8.586  17.275  0.00  0.00    +0.000 OA
BRANCH   5   7
ATOM      7  C   UNL     1       8.810  10.175  18.492  0.00  0.00    +0.000 A 
ATOM      8  C   UNL     1       8.394  11.194  17.620  0.00  0.00    +0.000 A 
ATOM      9  C   UNL     1       8.820  12.515  17.804  0.00  0.00    +0.000 A 
ATOM     10  C   UNL     1       9.671  12.828  18.862  0.00  0.00    +0.000 A 
ATOM     11 CL   UNL     1      10.185  14.451  19.102  0.00  0.00    +0.000 Cl
ATOM     12  C   UNL     1      10.106  11.829  19.729  0.00  0.00    +0.000 A 
ATOM     13  C   UNL     1       9.678  10.511  19.544  0.00  0.00    +0.000 A 
ENDBRANCH   5   7
ENDBRANCH   1   2
BRANCH   1  14
ATOM     14  C   UNL     1       6.608   4.644  16.751  0.00  0.00    +0.000 C 
BRANCH  14  22
ATOM     15  C   UNL     1       3.539   6.502  18.788  0.00  0.00    +0.000 C 
ATOM     16  C   UNL     1       3.714   5.264  19.674  0.00  0.00    +0.000 C 
ATOM     17  C   UNL     1       2.427   4.423  19.731  0.00  0.00    +0.000 C 
ATOM     18  C   UNL     1       2.142   3.708  18.400  0.00  0.00    +0.000 C 
ATOM     19  C   UNL     1       0.908   2.818  18.522  0.00  0.00    +0.000 C 
ATOM     20  C   UNL     1       3.371   2.904  17.945  0.00  0.00    +0.000 C 
ATOM     21  N   UNL     1       4.572   3.745  17.923  0.00  0.00    +0.000 N 
ATOM     22  C   UNL     1       5.352   3.783  16.771  0.00  0.00    +0.000 C 
ATOM     23  O   UNL     1       5.048   3.143  15.759  0.00  0.00    +0.000 OA
ATOM     24  C   UNL     1       4.887   4.398  19.195  0.00  0.00    +0.000 C 
ENDBRANCH  14  22
ENDBRANCH   1  14
TORSDOF 4
ENDMDL
MODEL 9
REMARK VINA RESULT:      -7.3      1.771      2.561
REMARK  Name = 
REMARK  6 active torsions:
REMARK  status: ('A' for Active; 'I' for Inactive)
REMARK    1  A    between atoms: C_1  and  C_2
REMARK    2  A    between atoms: C_4  and  C_5
REMARK    3  A    between atoms: C_8  and  C_10
REMARK    4  A    between atoms: C_10  and  S_11
REMARK    5  A    between atoms: S_11  and  C_12
REMARK    6  A    between atoms: C_15  and  C_16
REMARK                            x       y       z     vdW  Elec       q    Type
REMARK                         _______ _______ _______ _____ _____    ______ ____
ROOT
ATOM      1  S   UNL     1       6.528   6.223  16.746  0.00  0.00    +0.000 S 
ENDROOT
BRANCH   1   2
ATOM      2  C   UNL     1       7.510   7.381  17.588  0.00  0.00    +0.000 A 
ATOM      3  N   UNL     1       8.180   7.109  18.690  0.00  0.00    +0.000 NA
ATOM      4  N   UNL     1       8.819   8.274  19.066  0.00  0.00    +0.000 NA
ATOM      5  C   UNL     1       8.491   9.182  18.171  0.00  0.00    +0.000 A 
ATOM      6  O   UNL     1       7.655   8.688  17.204  0.00  0.00    +0.000 OA
BRANCH   5   7
ATOM      7  C   UNL     1       8.877  10.585  18.065  0.00  0.00    +0.000 A 
ATOM      8  C   UNL     1       7.966  11.534  17.572  0.00  0.00    +0.000 A 
ATOM      9  C   UNL     1       8.314  12.887  17.488  0.00  0.00    +0.000 A 
ATOM     10  C   UNL     1       9.581  13.303  17.892  0.00  0.00    +0.000 A 
ATOM     11 CL   UNL     1      10.008  14.966  17.805  0.00  0.00    +0.000 Cl
ATOM     12  C   UNL     1      10.503  12.375  18.370  0.00  0.00    +0.000 A 
ATOM     13  C   UNL     1      10.152  11.025  18.454  0.00  0.00    +0.000 A 
ENDBRANCH   5   7
ENDBRANCH   1   2
BRANCH   1  14
ATOM     14  C   UNL     1       4.968   6.362  17.660  0.00  0.00    +0.000 C 
BRANCH  14  22
ATOM     15  C   UNL     1       1.670   6.307  20.139  0.00  0.00    +0.000 C 
ATOM     16  C   UNL     1       2.400   5.066  20.665  0.00  0.00    +0.000 C 
ATOM     17  C   UNL     1       1.544   3.798  20.509  0.00  0.00    +0.000 C 
ATOM     18  C   UNL     1       1.406   3.369  19.039  0.00  0.00    +0.000 C 
ATOM     19  C   UNL     1       0.625   2.062  18.931  0.00  0.00    +0.000 C 
ATOM     20  C   UNL     1       2.790   3.251  18.378  0.00  0.00    +0.000 C 
ATOM     21  N   UNL     1       3.570   4.479  18.569  0.00  0.00    +0.000 N 
ATOM     22  C   UNL     1       4.144   5.097  17.462  0.00  0.00    +0.000 C 
ATOM     23  O   UNL     1       3.995   4.652  16.319  0.00  0.00    +0.000 OA
ATOM     24  C   UNL     1       3.753   4.878  19.966  0.00  0.00    +0.000 C 
ENDBRANCH  14  22
ENDBRANCH   1  14
TORSDOF 4
ENDMDL
