MODEL 1
REMARK VINA RESULT:      -7.0      0.000      0.000
REMARK  Name = 
REMARK  6 active torsions:
REMARK  status: ('A' for Active; 'I' for Inactive)
REMARK    1  A    between atoms: C_1  and  N_2
REMARK    2  A    between atoms: N_2  and  C_3
REMARK    3  A    between atoms: N_2  and  C_4
REMARK    4  A    between atoms: C_4  and  C_5
REMARK    5  A    between atoms: C_12  and  C_14
REMARK    6  A    between atoms: C_17  and  C_18
REMARK                            x       y       z     vdW  Elec       q    Type
REMARK                         _______ _______ _______ _____ _____    ______ ____
ROOT
ATOM      1  C   UNL     1      -1.621  11.711  18.838  0.00  0.00    +0.000 C 
ATOM      2  C   UNL     1      -2.026  11.917  20.307  0.00  0.00    +0.000 C 
ATOM      3  S   UNL     1      -2.309  13.680  20.717  0.00  0.00    +0.000 S 
ATOM      4  C   UNL     1      -0.585  14.230  20.767  0.00  0.00    +0.000 C 
ATOM      5  C   UNL     1       0.015  14.610  19.420  0.00  0.00    +0.000 C 
ATOM      6  C   UNL     1      -0.222  13.686  18.225  0.00  0.00    +0.000 C 
ATOM      7  N   UNL     1      -0.235  12.245  18.522  0.00  0.00    +0.000 N 
ATOM      8  C   UNL     1       1.051  11.719  18.801  0.00  0.00    +0.000 C 
ATOM      9  O   UNL     1       2.046  12.449  18.865  0.00  0.00    +0.000 OA
ENDROOT
BRANCH   8  10
ATOM     10  C   UNL     1       1.334  10.274  18.962  0.00  0.00    +0.000 A 
ATOM     11  C   UNL     1       1.979   9.546  17.977  0.00  0.00    +0.000 A 
ATOM     12  C   UNL     1       2.181   8.173  18.113  0.00  0.00    +0.000 A 
ATOM     13  C   UNL     1       1.989   7.516  19.338  0.00  0.00    +0.000 A 
ATOM     14  C   UNL     1       1.496   8.304  20.394  0.00  0.00    +0.000 A 
ATOM     15  C   UNL     1       1.150   9.656  20.205  0.00  0.00    +0.000 A 
BRANCH  13  16
ATOM     16  C   UNL     1       2.379   6.090  19.494  0.00  0.00    +0.000 A 
ATOM     17  C   UNL     1       1.919   5.331  20.591  0.00  0.00    +0.000 A 
ATOM     18  C   UNL     1       2.256   3.986  20.759  0.00  0.00    +0.000 A 
ATOM     19  C   UNL     1       3.049   3.348  19.815  0.00  0.00    +0.000 A 
ATOM     20  C   UNL     1       3.515   4.060  18.720  0.00  0.00    +0.000 A 
ATOM     21  C   UNL     1       3.189   5.422  18.564  0.00  0.00    +0.000 A 
ENDBRANCH  13  16
ENDBRANCH   8  10
BRANCH   1  22
ATOM     22  C   UNL     1      -1.967  10.270  18.383  0.00  0.00    +0.000 C 
BRANCH  22  24
ATOM     23  C   UNL     1      -4.284  10.702  17.761  0.00  0.00    +0.000 C 
ATOM     24  N   UNL     1      -3.018  10.086  17.355  0.00  0.00    +0.000 NA
ATOM     25  C   UNL     1      -2.564  10.693  16.094  0.00  0.00    +0.000 C 
ENDBRANCH  22  24
ENDBRANCH   1  22
TORSDOF 4
ENDMDL
MODEL 2
REMARK VINA RESULT:      -6.9      0.431      1.045
REMARK  Name = 
REMARK  6 active torsions:
REMARK  status: ('A' for Active; 'I' for Inactive)
REMARK    1  A    between atoms: C_1  and  N_2
REMARK    2  A    between atoms: N_2  and  C_3
REMARK    3  A    between atoms: N_2  and  C_4
REMARK    4  A    between atoms: C_4  and  C_5
REMARK    5  A    between atoms: C_12  and  C_14
REMARK    6  A    between atoms: C_17  and  C_18
REMARK                            x       y       z     vdW  Elec       q    Type
REMARK                         _______ _______ _______ _____ _____    ______ ____
ROOT
ATOM      1  C   UNL     1      -1.581  11.820  18.835  0.00  0.00    +0.000 C 
ATOM      2  C   UNL     1      -2.076  11.919  20.287  0.00  0.00    +0.000 C 
ATOM      3  S   UNL     1      -2.446  13.641  20.789  0.00  0.00    +0.000 S 
ATOM      4  C   UNL     1      -0.748  14.242  20.974  0.00  0.00    +0.000 C 
ATOM      5  C   UNL     1      -0.087  14.727  19.691  0.00  0.00    +0.000 C 
ATOM      6  C   UNL     1      -0.222  13.874  18.430  0.00  0.00    +0.000 C 
ATOM      7  N   UNL     1      -0.200  12.417  18.634  0.00  0.00    +0.000 N 
ATOM      8  C   UNL     1       1.086  11.916  18.956  0.00  0.00    +0.000 C 
ATOM      9  O   UNL     1       2.049  12.672  19.123  0.00  0.00    +0.000 OA
ENDROOT
BRANCH   8  10
ATOM     10  C   UNL     1       1.411  10.474  19.043  0.00  0.00    +0.000 A 
ATOM     11  C   UNL     1       1.090   9.724  20.161  0.00  0.00    +0.000 A 
ATOM     12  C   UNL     1       1.460   8.382  20.257  0.00  0.00    +0.000 A 
ATOM     13  C   UNL     1       1.928   7.664  19.147  0.00  0.00    +0.000 A 
ATOM     14  C   UNL     1       2.088   8.395  17.956  0.00  0.00    +0.000 A 
ATOM     15  C   UNL     1       1.857   9.784  17.909  0.00  0.00    +0.000 A 
BRANCH  13  16
ATOM     16  C   UNL     1       2.147   6.196  19.242  0.00  0.00    +0.000 A 
ATOM     17  C   UNL     1       1.955   5.514  20.463  0.00  0.00    +0.000 A 
ATOM     18  C   UNL     1       2.139   4.134  20.580  0.00  0.00    +0.000 A 
ATOM     19  C   UNL     1       2.498   3.386  19.469  0.00  0.00    +0.000 A 
ATOM     20  C   UNL     1       2.690   4.020  18.251  0.00  0.00    +0.000 A 
ATOM     21  C   UNL     1       2.523   5.415  18.139  0.00  0.00    +0.000 A 
ENDBRANCH  13  16
ENDBRANCH   8  10
BRANCH   1  22
ATOM     22  C   UNL     1      -1.850  10.401  18.271  0.00  0.00    +0.000 C 
BRANCH  22  24
ATOM     23  C   UNL     1      -3.868  11.399  17.338  0.00  0.00    +0.000 C 
ATOM     24  N   UNL     1      -3.036  10.195  17.409  0.00  0.00    +0.000 NA
ATOM     25  C   UNL     1      -2.586   9.834  16.055  0.00  0.00    +0.000 C 
ENDBRANCH  22  24
ENDBRANCH   1  22
TORSDOF 4
ENDMDL
MODEL 3
REMARK VINA RESULT:      -6.7      0.743      1.343
REMARK  Name = 
REMARK  6 active torsions:
REMARK  status: ('A' for Active; 'I' for Inactive)
REMARK    1  A    between atoms: C_1  and  N_2
REMARK    2  A    between atoms: N_2  and  C_3
REMARK    3  A    between atoms: N_2  and  C_4
REMARK    4  A    between atoms: C_4  and  C_5
REMARK    5  A    between atoms: C_12  and  C_14
REMARK    6  A    between atoms: C_17  and  C_18
REMARK                            x       y       z     vdW  Elec       q    Type
REMARK                         _______ _______ _______ _____ _____    ______ ____
ROOT
ATOM      1  C   UNL     1      -1.633  12.293  18.743  0.00  0.00    +0.000 C 
ATOM      2  C   UNL     1      -2.255  12.252  20.149  0.00  0.00    +0.000 C 
ATOM      3  S   UNL     1      -2.617  13.923  20.806  0.00  0.00    +0.000 S 
ATOM      4  C   UNL     1      -0.925  14.433  21.205  0.00  0.00    +0.000 C 
ATOM      5  C   UNL     1      -0.136  15.028  20.046  0.00  0.00    +0.000 C 
ATOM      6  C   UNL     1      -0.182  14.323  18.691  0.00  0.00    +0.000 C 
ATOM      7  N   UNL     1      -0.222  12.853  18.732  0.00  0.00    +0.000 N 
ATOM      8  C   UNL     1       1.014  12.269  19.106  0.00  0.00    +0.000 C 
ATOM      9  O   UNL     1       1.980  12.963  19.440  0.00  0.00    +0.000 OA
ENDROOT
BRANCH   8  10
ATOM     10  C   UNL     1       1.286  10.814  19.058  0.00  0.00    +0.000 A 
ATOM     11  C   UNL     1       2.000  10.242  18.019  0.00  0.00    +0.000 A 
ATOM     12  C   UNL     1       2.193   8.862  17.954  0.00  0.00    +0.000 A 
ATOM     13  C   UNL     1       1.915   8.025  19.044  0.00  0.00    +0.000 A 
ATOM     14  C   UNL     1       1.348   8.643  20.174  0.00  0.00    +0.000 A 
ATOM     15  C   UNL     1       1.015  10.011  20.173  0.00  0.00    +0.000 A 
BRANCH  13  16
ATOM     16  C   UNL     1       2.295   6.588  19.003  0.00  0.00    +0.000 A 
ATOM     17  C   UNL     1       2.899   6.033  17.854  0.00  0.00    +0.000 A 
ATOM     18  C   UNL     1       3.280   4.691  17.788  0.00  0.00    +0.000 A 
ATOM     19  C   UNL     1       3.091   3.863  18.885  0.00  0.00    +0.000 A 
ATOM     20  C   UNL     1       2.506   4.374  20.034  0.00  0.00    +0.000 A 
ATOM     21  C   UNL     1       2.105   5.724  20.090  0.00  0.00    +0.000 A 
ENDBRANCH  13  16
ENDBRANCH   8  10
BRANCH   1  22
ATOM     22  C   UNL     1      -1.892  10.956  18.003  0.00  0.00    +0.000 C 
BRANCH  22  24
ATOM     23  C   UNL     1      -2.630   9.681  16.062  0.00  0.00    +0.000 C 
ATOM     24  N   UNL     1      -2.637  10.988  16.723  0.00  0.00    +0.000 NA
ATOM     25  C   UNL     1      -4.027  11.392  16.989  0.00  0.00    +0.000 C 
ENDBRANCH  22  24
ENDBRANCH   1  22
TORSDOF 4
ENDMDL
MODEL 4
REMARK VINA RESULT:      -6.5      0.809      1.671
REMARK  Name = 
REMARK  6 active torsions:
REMARK  status: ('A' for Active; 'I' for Inactive)
REMARK    1  A    between atoms: C_1  and  N_2
REMARK    2  A    between atoms: N_2  and  C_3
REMARK    3  A    between atoms: N_2  and  C_4
REMARK    4  A    between atoms: C_4  and  C_5
REMARK    5  A    between atoms: C_12  and  C_14
REMARK    6  A    between atoms: C_17  and  C_18
REMARK                            x       y       z     vdW  Elec       q    Type
REMARK                         _______ _______ _______ _____ _____    ______ ____
ROOT
ATOM      1  C   UNL     1      -1.626  12.382  18.928  0.00  0.00    +0.000 C 
ATOM      2  C   UNL     1      -2.242  12.401  20.337  0.00  0.00    +0.000 C 
ATOM      3  S   UNL     1      -2.630  14.096  20.912  0.00  0.00    +0.000 S 
ATOM      4  C   UNL     1      -0.947  14.654  21.277  0.00  0.00    +0.000 C 
ATOM      5  C   UNL     1      -0.173  15.204  20.087  0.00  0.00    +0.000 C 
ATOM      6  C   UNL     1      -0.210  14.432  18.768  0.00  0.00    +0.000 C 
ATOM      7  N   UNL     1      -0.225  12.965  18.882  0.00  0.00    +0.000 N 
ATOM      8  C   UNL     1       1.023  12.423  19.279  0.00  0.00    +0.000 C 
ATOM      9  O   UNL     1       1.977  13.150  19.574  0.00  0.00    +0.000 OA
ENDROOT
BRANCH   8  10
ATOM     10  C   UNL     1       1.320  10.972  19.303  0.00  0.00    +0.000 A 
ATOM     11  C   UNL     1       0.938  10.170  20.365  0.00  0.00    +0.000 A 
ATOM     12  C   UNL     1       1.282   8.819  20.405  0.00  0.00    +0.000 A 
ATOM     13  C   UNL     1       1.788   8.151  19.280  0.00  0.00    +0.000 A 
ATOM     14  C   UNL     1       2.012   8.942  18.138  0.00  0.00    +0.000 A 
ATOM     15  C   UNL     1       1.806  10.334  18.155  0.00  0.00    +0.000 A 
BRANCH  13  16
ATOM     16  C   UNL     1       1.979   6.677  19.305  0.00  0.00    +0.000 A 
ATOM     17  C   UNL     1       2.436   5.988  18.161  0.00  0.00    +0.000 A 
ATOM     18  C   UNL     1       2.639   4.606  18.157  0.00  0.00    +0.000 A 
ATOM     19  C   UNL     1       2.413   3.870  19.311  0.00  0.00    +0.000 A 
ATOM     20  C   UNL     1       1.969   4.512  20.456  0.00  0.00    +0.000 A 
ATOM     21  C   UNL     1       1.747   5.904  20.452  0.00  0.00    +0.000 A 
ENDBRANCH  13  16
ENDBRANCH   8  10
BRANCH   1  22
ATOM     22  C   UNL     1      -1.863  11.005  18.256  0.00  0.00    +0.000 C 
BRANCH  22  24
ATOM     23  C   UNL     1      -2.476   9.648  16.328  0.00  0.00    +0.000 C 
ATOM     24  N   UNL     1      -2.584  10.964  16.963  0.00  0.00    +0.000 NA
ATOM     25  C   UNL     1      -4.002  11.278  17.195  0.00  0.00    +0.000 C 
ENDBRANCH  22  24
ENDBRANCH   1  22
TORSDOF 4
ENDMDL
MODEL 5
REMARK VINA RESULT:      -6.4      9.153     10.734
REMARK  Name = 
REMARK  6 active torsions:
REMARK  status: ('A' for Active; 'I' for Inactive)
REMARK    1  A    between atoms: C_1  and  N_2
REMARK    2  A    between atoms: N_2  and  C_3
REMARK    3  A    between atoms: N_2  and  C_4
REMARK    4  A    between atoms: C_4  and  C_5
REMARK    5  A    between atoms: C_12  and  C_14
REMARK    6  A    between atoms: C_17  and  C_18
REMARK                            x       y       z     vdW  Elec       q    Type
REMARK                         _______ _______ _______ _____ _____    ______ ____
ROOT
ATOM      1  C   UNL     1       9.092  14.399  17.909  0.00  0.00    +0.000 C 
ATOM      2  C   UNL     1       9.559  15.837  18.189  0.00  0.00    +0.000 C 
ATOM      3  S   UNL     1      10.787  16.428  16.965  0.00  0.00    +0.000 S 
ATOM      4  C   UNL     1      12.224  15.492  17.546  0.00  0.00    +0.000 C 
ATOM      5  C   UNL     1      12.333  14.070  17.012  0.00  0.00    +0.000 C 
ATOM      6  C   UNL     1      11.083  13.191  17.009  0.00  0.00    +0.000 C 
ATOM      7  N   UNL     1      10.174  13.363  18.154  0.00  0.00    +0.000 N 
ATOM      8  C   UNL     1      10.680  12.812  19.358  0.00  0.00    +0.000 C 
ATOM      9  O   UNL     1      11.813  12.323  19.417  0.00  0.00    +0.000 OA
ENDROOT
BRANCH   8  10
ATOM     10  C   UNL     1       9.894  12.702  20.609  0.00  0.00    +0.000 A 
ATOM     11  C   UNL     1       9.323  11.504  21.004  0.00  0.00    +0.000 A 
ATOM     12  C   UNL     1       8.532  11.429  22.150  0.00  0.00    +0.000 A 
ATOM     13  C   UNL     1       8.489  12.471  23.088  0.00  0.00    +0.000 A 
ATOM     14  C   UNL     1       9.219  13.630  22.763  0.00  0.00    +0.000 A 
ATOM     15  C   UNL     1       9.891  13.754  21.532  0.00  0.00    +0.000 A 
BRANCH  13  16
ATOM     16  C   UNL     1       7.775  12.290  24.379  0.00  0.00    +0.000 A 
ATOM     17  C   UNL     1       6.619  11.484  24.458  0.00  0.00    +0.000 A 
ATOM     18  C   UNL     1       5.934  11.281  25.659  0.00  0.00    +0.000 A 
ATOM     19  C   UNL     1       6.401  11.863  26.829  0.00  0.00    +0.000 A 
ATOM     20  C   UNL     1       7.537  12.657  26.791  0.00  0.00    +0.000 A 
ATOM     21  C   UNL     1       8.215  12.874  25.575  0.00  0.00    +0.000 A 
ENDBRANCH  13  16
ENDBRANCH   8  10
BRANCH   1  22
ATOM     22  C   UNL     1       7.696  14.156  18.538  0.00  0.00    +0.000 C 
BRANCH  22  24
ATOM     23  C   UNL     1       5.767  15.636  18.367  0.00  0.00    +0.000 C 
ATOM     24  N   UNL     1       6.975  15.308  19.128  0.00  0.00    +0.000 NA
ATOM     25  C   UNL     1       6.603  14.979  20.513  0.00  0.00    +0.000 C 
ENDBRANCH  22  24
ENDBRANCH   1  22
TORSDOF 4
ENDMDL
MODEL 6
REMARK VINA RESULT:      -6.4      1.235      1.481
REMARK  Name = 
REMARK  6 active torsions:
REMARK  status: ('A' for Active; 'I' for Inactive)
REMARK    1  A    between atoms: C_1  and  N_2
REMARK    2  A    between atoms: N_2  and  C_3
REMARK    3  A    between atoms: N_2  and  C_4
REMARK    4  A    between atoms: C_4  and  C_5
REMARK    5  A    between atoms: C_12  and  C_14
REMARK    6  A    between atoms: C_17  and  C_18
REMARK                            x       y       z     vdW  Elec       q    Type
REMARK                         _______ _______ _______ _____ _____    ______ ____
ROOT
ATOM      1  C   UNL     1      -1.625  12.025  19.406  0.00  0.00    +0.000 C 
ATOM      2  C   UNL     1      -2.100  11.675  20.825  0.00  0.00    +0.000 C 
ATOM      3  S   UNL     1      -2.458  13.162  21.834  0.00  0.00    +0.000 S 
ATOM      4  C   UNL     1      -0.756  13.681  22.170  0.00  0.00    +0.000 C 
ATOM      5  C   UNL     1      -0.112  14.536  21.087  0.00  0.00    +0.000 C 
ATOM      6  C   UNL     1      -0.266  14.108  19.628  0.00  0.00    +0.000 C 
ATOM      7  N   UNL     1      -0.245  12.658  19.378  0.00  0.00    +0.000 N 
ATOM      8  C   UNL     1       1.045  12.085  19.514  0.00  0.00    +0.000 C 
ATOM      9  O   UNL     1       2.011  12.756  19.891  0.00  0.00    +0.000 OA
ENDROOT
BRANCH   8  10
ATOM     10  C   UNL     1       1.367  10.686  19.152  0.00  0.00    +0.000 A 
ATOM     11  C   UNL     1       2.022  10.373  17.973  0.00  0.00    +0.000 A 
ATOM     12  C   UNL     1       2.261   9.046  17.614  0.00  0.00    +0.000 A 
ATOM     13  C   UNL     1       2.098   7.993  18.526  0.00  0.00    +0.000 A 
ATOM     14  C   UNL     1       1.595   8.341  19.793  0.00  0.00    +0.000 A 
ATOM     15  C   UNL     1       1.212   9.662  20.095  0.00  0.00    +0.000 A 
BRANCH  13  16
ATOM     16  C   UNL     1       2.528   6.616  18.167  0.00  0.00    +0.000 A 
ATOM     17  C   UNL     1       1.623   5.535  18.238  0.00  0.00    +0.000 A 
ATOM     18  C   UNL     1       1.992   4.233  17.894  0.00  0.00    +0.000 A 
ATOM     19  C   UNL     1       3.278   3.973  17.441  0.00  0.00    +0.000 A 
ATOM     20  C   UNL     1       4.193   5.011  17.353  0.00  0.00    +0.000 A 
ATOM     21  C   UNL     1       3.824   6.321  17.719  0.00  0.00    +0.000 A 
ENDBRANCH  13  16
ENDBRANCH   8  10
BRANCH   1  22
ATOM     22  C   UNL     1      -1.904  10.846  18.440  0.00  0.00    +0.000 C 
BRANCH  22  24
ATOM     23  C   UNL     1      -2.507   9.999  16.235  0.00  0.00    +0.000 C 
ATOM     24  N   UNL     1      -2.610  11.124  17.168  0.00  0.00    +0.000 NA
ATOM     25  C   UNL     1      -4.029  11.387  17.458  0.00  0.00    +0.000 C 
ENDBRANCH  22  24
ENDBRANCH   1  22
TORSDOF 4
ENDMDL
MODEL 7
REMARK VINA RESULT:      -6.3      3.341      5.719
REMARK  Name = 
REMARK  6 active torsions:
REMARK  status: ('A' for Active; 'I' for Inactive)
REMARK    1  A    between atoms: C_1  and  N_2
REMARK    2  A    between atoms: N_2  and  C_3
REMARK    3  A    between atoms: N_2  and  C_4
REMARK    4  A    between atoms: C_4  and  C_5
REMARK    5  A    between atoms: C_12  and  C_14
REMARK    6  A    between atoms: C_17  and  C_18
REMARK                            x       y       z     vdW  Elec       q    Type
REMARK                         _______ _______ _______ _____ _____    ______ ____
ROOT
ATOM      1  C   UNL     1      -1.486  14.988  22.809  0.00  0.00    +0.000 C 
ATOM      2  C   UNL     1      -2.268  15.558  21.614  0.00  0.00    +0.000 C 
ATOM      3  S   UNL     1      -3.724  16.541  22.132  0.00  0.00    +0.000 S 
ATOM      4  C   UNL     1      -4.812  15.180  22.625  0.00  0.00    +0.000 C 
ATOM      5  C   UNL     1      -4.614  14.672  24.046  0.00  0.00    +0.000 C 
ATOM      6  C   UNL     1      -3.190  14.430  24.546  0.00  0.00    +0.000 C 
ATOM      7  N   UNL     1      -2.242  13.901  23.552  0.00  0.00    +0.000 N 
ATOM      8  C   UNL     1      -2.467  12.539  23.234  0.00  0.00    +0.000 C 
ATOM      9  O   UNL     1      -3.428  11.918  23.700  0.00  0.00    +0.000 OA
ENDROOT
BRANCH   8  10
ATOM     10  C   UNL     1      -1.555  11.727  22.396  0.00  0.00    +0.000 A 
ATOM     11  C   UNL     1      -0.796  10.701  22.933  0.00  0.00    +0.000 A 
ATOM     12  C   UNL     1       0.107   9.987  22.146  0.00  0.00    +0.000 A 
ATOM     13  C   UNL     1       0.104  10.083  20.747  0.00  0.00    +0.000 A 
ATOM     14  C   UNL     1      -0.800  11.006  20.189  0.00  0.00    +0.000 A 
ATOM     15  C   UNL     1      -1.600  11.834  21.000  0.00  0.00    +0.000 A 
BRANCH  13  16
ATOM     16  C   UNL     1       0.959   9.180  19.931  0.00  0.00    +0.000 A 
ATOM     17  C   UNL     1       1.250   9.483  18.583  0.00  0.00    +0.000 A 
ATOM     18  C   UNL     1       2.061   8.663  17.795  0.00  0.00    +0.000 A 
ATOM     19  C   UNL     1       2.628   7.521  18.340  0.00  0.00    +0.000 A 
ATOM     20  C   UNL     1       2.369   7.193  19.662  0.00  0.00    +0.000 A 
ATOM     21  C   UNL     1       1.536   8.012  20.450  0.00  0.00    +0.000 A 
ENDBRANCH  13  16
ENDBRANCH   8  10
BRANCH   1  22
ATOM     22  C   UNL     1      -0.017  14.704  22.402  0.00  0.00    +0.000 C 
BRANCH  22  24
ATOM     23  C   UNL     1       2.086  15.877  22.025  0.00  0.00    +0.000 C 
ATOM     24  N   UNL     1       1.056  15.528  23.006  0.00  0.00    +0.000 NA
ATOM     25  C   UNL     1       0.463  16.761  23.549  0.00  0.00    +0.000 C 
ENDBRANCH  22  24
ENDBRANCH   1  22
TORSDOF 4
ENDMDL
MODEL 8
REMARK VINA RESULT:      -6.3      1.037      1.123
REMARK  Name = 
REMARK  6 active torsions:
REMARK  status: ('A' for Active; 'I' for Inactive)
REMARK    1  A    between atoms: C_1  and  N_2
REMARK    2  A    between atoms: N_2  and  C_3
REMARK    3  A    between atoms: N_2  and  C_4
REMARK    4  A    between atoms: C_4  and  C_5
REMARK    5  A    between atoms: C_12  and  C_14
REMARK    6  A    between atoms: C_17  and  C_18
REMARK                            x       y       z     vdW  Elec       q    Type
REMARK                         _______ _______ _______ _____ _____    ______ ____
ROOT
ATOM      1  C   UNL     1      -1.566  11.476  18.291  0.00  0.00    +0.000 C 
ATOM      2  C   UNL     1      -2.327  11.339  19.620  0.00  0.00    +0.000 C 
ATOM      3  S   UNL     1      -2.872  12.955  20.288  0.00  0.00    +0.000 S 
ATOM      4  C   UNL     1      -1.272  13.559  20.882  0.00  0.00    +0.000 C 
ATOM      5  C   UNL     1      -0.409  14.251  19.835  0.00  0.00    +0.000 C 
ATOM      6  C   UNL     1      -0.262  13.598  18.460  0.00  0.00    +0.000 C 
ATOM      7  N   UNL     1      -0.204  12.128  18.449  0.00  0.00    +0.000 N 
ATOM      8  C   UNL     1       1.024  11.613  18.935  0.00  0.00    +0.000 C 
ATOM      9  O   UNL     1       1.898  12.356  19.393  0.00  0.00    +0.000 OA
ENDROOT
BRANCH   8  10
ATOM     10  C   UNL     1       1.401  10.182  18.871  0.00  0.00    +0.000 A 
ATOM     11  C   UNL     1       2.134   9.671  17.813  0.00  0.00    +0.000 A 
ATOM     12  C   UNL     1       2.426   8.310  17.733  0.00  0.00    +0.000 A 
ATOM     13  C   UNL     1       2.232   7.447  18.822  0.00  0.00    +0.000 A 
ATOM     14  C   UNL     1       1.644   8.015  19.967  0.00  0.00    +0.000 A 
ATOM     15  C   UNL     1       1.212   9.355  19.984  0.00  0.00    +0.000 A 
BRANCH  13  16
ATOM     16  C   UNL     1       2.715   6.042  18.761  0.00  0.00    +0.000 A 
ATOM     17  C   UNL     1       2.005   5.064  18.032  0.00  0.00    +0.000 A 
ATOM     18  C   UNL     1       2.440   3.740  17.944  0.00  0.00    +0.000 A 
ATOM     19  C   UNL     1       3.619   3.356  18.565  0.00  0.00    +0.000 A 
ATOM     20  C   UNL     1       4.348   4.290  19.286  0.00  0.00    +0.000 A 
ATOM     21  C   UNL     1       3.896   5.621  19.389  0.00  0.00    +0.000 A 
ENDBRANCH  13  16
ENDBRANCH   8  10
BRANCH   1  22
ATOM     22  C   UNL     1      -1.651  10.155  17.485  0.00  0.00    +0.000 C 
BRANCH  22  24
ATOM     23  C   UNL     1      -3.727   9.336  16.507  0.00  0.00    +0.000 C 
ATOM     24  N   UNL     1      -2.508  10.116  16.278  0.00  0.00    +0.000 NA
ATOM     25  C   UNL     1      -2.874  11.493  15.907  0.00  0.00    +0.000 C 
ENDBRANCH  22  24
ENDBRANCH   1  22
TORSDOF 4
ENDMDL
MODEL 9
REMARK VINA RESULT:      -6.3      9.162     10.738
REMARK  Name = 
REMARK  6 active torsions:
REMARK  status: ('A' for Active; 'I' for Inactive)
REMARK    1  A    between atoms: C_1  and  N_2
REMARK    2  A    between atoms: N_2  and  C_3
REMARK    3  A    between atoms: N_2  and  C_4
REMARK    4  A    between atoms: C_4  and  C_5
REMARK    5  A    between atoms: C_12  and  C_14
REMARK    6  A    between atoms: C_17  and  C_18
REMARK                            x       y       z     vdW  Elec       q    Type
REMARK                         _______ _______ _______ _____ _____    ______ ____
ROOT
ATOM      1  C   UNL     1       9.109  14.371  17.958  0.00  0.00    +0.000 C 
ATOM      2  C   UNL     1       9.501  15.829  18.247  0.00  0.00    +0.000 C 
ATOM      3  S   UNL     1      10.633  16.517  16.982  0.00  0.00    +0.000 S 
ATOM      4  C   UNL     1      12.149  15.660  17.475  0.00  0.00    +0.000 C 
ATOM      5  C   UNL     1      12.318  14.258  16.905  0.00  0.00    +0.000 C 
ATOM      6  C   UNL     1      11.124  13.304  16.940  0.00  0.00    +0.000 C 
ATOM      7  N   UNL     1      10.263  13.398  18.129  0.00  0.00    +0.000 N 
ATOM      8  C   UNL     1      10.857  12.856  19.296  0.00  0.00    +0.000 C 
ATOM      9  O   UNL     1      12.019  12.436  19.291  0.00  0.00    +0.000 OA
ENDROOT
BRANCH   8  10
ATOM     10  C   UNL     1      10.140  12.674  20.579  0.00  0.00    +0.000 A 
ATOM     11  C   UNL     1       9.930  13.729  21.450  0.00  0.00    +0.000 A 
ATOM     12  C   UNL     1       9.311  13.531  22.684  0.00  0.00    +0.000 A 
ATOM     13  C   UNL     1       8.643  12.336  22.991  0.00  0.00    +0.000 A 
ATOM     14  C   UNL     1       8.709  11.320  22.021  0.00  0.00    +0.000 A 
ATOM     15  C   UNL     1       9.466  11.475  20.844  0.00  0.00    +0.000 A 
BRANCH  13  16
ATOM     16  C   UNL     1       7.846  12.223  24.242  0.00  0.00    +0.000 A 
ATOM     17  C   UNL     1       8.315  12.783  25.450  0.00  0.00    +0.000 A 
ATOM     18  C   UNL     1       7.584  12.706  26.638  0.00  0.00    +0.000 A 
ATOM     19  C   UNL     1       6.344  12.083  26.649  0.00  0.00    +0.000 A 
ATOM     20  C   UNL     1       5.849  11.526  25.480  0.00  0.00    +0.000 A 
ATOM     21  C   UNL     1       6.596  11.589  24.287  0.00  0.00    +0.000 A 
ENDBRANCH  13  16
ENDBRANCH   8  10
BRANCH   1  22
ATOM     22  C   UNL     1       7.762  14.031  18.645  0.00  0.00    +0.000 C 
BRANCH  22  24
ATOM     23  C   UNL     1       5.743  15.342  18.269  0.00  0.00    +0.000 C 
ATOM     24  N   UNL     1       6.913  15.144  19.128  0.00  0.00    +0.000 NA
ATOM     25  C   UNL     1       6.465  14.843  20.498  0.00  0.00    +0.000 C 
ENDBRANCH  22  24
ENDBRANCH   1  22
TORSDOF 4
ENDMDL
