MODEL 1
REMARK VINA RESULT:      -8.9      0.000      0.000
REMARK  Name = 
REMARK  10 active torsions:
REMARK  status: ('A' for Active; 'I' for Inactive)
REMARK    1  A    between atoms: C_1  and  C_2
REMARK    2  A    between atoms: C_2  and  O_3
REMARK    3  A    between atoms: O_3  and  C_4
REMARK    4  A    between atoms: C_4  and  C_6
REMARK    5  A    between atoms: C_7  and  C_8
REMARK    6  A    between atoms: C_8  and  C_9
REMARK    7  A    between atoms: C_8  and  N_16
REMARK    8  A    between atoms: C_9  and  C_10
REMARK    9  A    between atoms: C_17  and  C_19
REMARK   10  A    between atoms: C_20  and  C_21
REMARK                            x       y       z     vdW  Elec       q    Type
REMARK                         _______ _______ _______ _____ _____    ______ ____
ROOT
ATOM      1  C   UNL     1       6.584   5.217  17.878  0.00  0.00    +0.000 C 
ENDROOT
BRANCH   1   2
ATOM      2  N   UNL     1       7.495   6.240  18.351  0.00  0.00    +0.000 N 
ATOM      3  C   UNL     1       7.545   7.479  17.765  0.00  0.00    +0.000 C 
ATOM      4  O   UNL     1       6.873   7.817  16.800  0.00  0.00    +0.000 OA
ATOM      5  H   UNL     1       8.108   6.019  19.124  0.00  0.00    +0.000 HD
BRANCH   3   6
ATOM      6  C   UNL     1       8.526   8.382  18.416  0.00  0.00    +0.000 C 
ATOM      7  C   UNL     1       8.445   9.706  18.214  0.00  0.00    +0.000 C 
BRANCH   7   8
ATOM      8  C   UNL     1       9.389  10.689  18.765  0.00  0.00    +0.000 A 
ATOM      9  C   UNL     1       9.568  10.860  20.147  0.00  0.00    +0.000 A 
ATOM     10  C   UNL     1      10.509  11.767  20.640  0.00  0.00    +0.000 A 
ATOM     11  C   UNL     1      11.294  12.505  19.758  0.00  0.00    +0.000 A 
ATOM     12  C   UNL     1      11.135  12.329  18.385  0.00  0.00    +0.000 A 
ATOM     13 BR   UNL     1      12.217  13.314  17.187  0.00  0.00    +0.000 Br
ATOM     14  C   UNL     1      10.194  11.426  17.887  0.00  0.00    +0.000 A 
ENDBRANCH   7   8
ENDBRANCH   3   6
ENDBRANCH   1   2
BRANCH   1  16
ATOM     15  C   UNL     1       6.332   4.970  15.404  0.00  0.00    +0.000 C 
ATOM     16  C   UNL     1       7.078   4.837  16.512  0.00  0.00    +0.000 C 
BRANCH  15  17
ATOM     17  C   UNL     1       6.916   4.677  14.083  0.00  0.00    +0.000 C 
ATOM     18  O   UNL     1       7.673   5.415  13.474  0.00  0.00    +0.000 OA
BRANCH  17  19
ATOM     19  O   UNL     1       6.383   3.510  13.648  0.00  0.00    +0.000 OA
BRANCH  19  21
ATOM     20  C   UNL     1       4.802   3.311  11.869  0.00  0.00    +0.000 C 
ATOM     21  C   UNL     1       6.276   3.387  12.224  0.00  0.00    +0.000 C 
ENDBRANCH  19  21
ENDBRANCH  17  19
ENDBRANCH  15  17
ENDBRANCH   1  16
BRANCH   1  22
ATOM     22  C   UNL     1       5.131   5.735  17.861  0.00  0.00    +0.000 C 
BRANCH  22  23
ATOM     23  C   UNL     1       4.183   4.958  18.785  0.00  0.00    +0.000 C 
ATOM     24  C   UNL     1       4.566   3.471  18.895  0.00  0.00    +0.000 C 
ATOM     25  C   UNL     1       3.787   2.796  17.781  0.00  0.00    +0.000 C 
ATOM     26  N   UNL     1       2.622   3.614  17.655  0.00  0.00    +0.000 N 
ATOM     27  C   UNL     1       2.788   4.871  18.195  0.00  0.00    +0.000 C 
ATOM     28  O   UNL     1       1.963   5.764  18.161  0.00  0.00    +0.000 OA
ATOM     29  H   UNL     1       1.792   3.390  17.119  0.00  0.00    +0.000 HD
ENDBRANCH  22  23
ENDBRANCH   1  22
TORSDOF 9
ENDMDL
MODEL 2
REMARK VINA RESULT:      -8.6      1.808      2.116
REMARK  Name = 
REMARK  10 active torsions:
REMARK  status: ('A' for Active; 'I' for Inactive)
REMARK    1  A    between atoms: C_1  and  C_2
REMARK    2  A    between atoms: C_2  and  O_3
REMARK    3  A    between atoms: O_3  and  C_4
REMARK    4  A    between atoms: C_4  and  C_6
REMARK    5  A    between atoms: C_7  and  C_8
REMARK    6  A    between atoms: C_8  and  C_9
REMARK    7  A    between atoms: C_8  and  N_16
REMARK    8  A    between atoms: C_9  and  C_10
REMARK    9  A    between atoms: C_17  and  C_19
REMARK   10  A    between atoms: C_20  and  C_21
REMARK                            x       y       z     vdW  Elec       q    Type
REMARK                         _______ _______ _______ _____ _____    ______ ____
ROOT
ATOM      1  C   UNL     1       6.208   5.408  16.860  0.00  0.00    +0.000 C 
ENDROOT
BRANCH   1   2
ATOM      2  N   UNL     1       6.616   6.799  16.859  0.00  0.00    +0.000 N 
ATOM      3  C   UNL     1       7.512   7.280  17.780  0.00  0.00    +0.000 C 
ATOM      4  O   UNL     1       8.010   6.614  18.676  0.00  0.00    +0.000 OA
ATOM      5  H   UNL     1       6.217   7.418  16.168  0.00  0.00    +0.000 HD
BRANCH   3   6
ATOM      6  C   UNL     1       7.810   8.721  17.589  0.00  0.00    +0.000 C 
ATOM      7  C   UNL     1       8.826   9.284  18.263  0.00  0.00    +0.000 C 
BRANCH   7   8
ATOM      8  C   UNL     1       9.180  10.708  18.191  0.00  0.00    +0.000 A 
ATOM      9  C   UNL     1      10.512  11.150  18.225  0.00  0.00    +0.000 A 
ATOM     10  C   UNL     1      10.820  12.507  18.105  0.00  0.00    +0.000 A 
ATOM     11  C   UNL     1       9.800  13.441  17.936  0.00  0.00    +0.000 A 
ATOM     12  C   UNL     1       8.477  13.009  17.884  0.00  0.00    +0.000 A 
ATOM     13 BR   UNL     1       7.094  14.274  17.632  0.00  0.00    +0.000 Br
ATOM     14  C   UNL     1       8.163  11.654  18.007  0.00  0.00    +0.000 A 
ENDBRANCH   7   8
ENDBRANCH   3   6
ENDBRANCH   1   2
BRANCH   1  16
ATOM     15  C   UNL     1       7.113   4.900  14.587  0.00  0.00    +0.000 C 
ATOM     16  C   UNL     1       6.064   5.029  15.414  0.00  0.00    +0.000 C 
BRANCH  15  17
ATOM     17  C   UNL     1       6.909   4.423  13.207  0.00  0.00    +0.000 C 
ATOM     18  O   UNL     1       7.558   4.784  12.240  0.00  0.00    +0.000 OA
BRANCH  17  19
ATOM     19  O   UNL     1       5.829   3.607  13.211  0.00  0.00    +0.000 OA
BRANCH  19  21
ATOM     20  C   UNL     1       4.310   3.240  11.404  0.00  0.00    +0.000 C 
ATOM     21  C   UNL     1       5.643   2.841  12.014  0.00  0.00    +0.000 C 
ENDBRANCH  19  21
ENDBRANCH  17  19
ENDBRANCH  15  17
ENDBRANCH   1  16
BRANCH   1  22
ATOM     22  C   UNL     1       4.902   5.215  17.658  0.00  0.00    +0.000 C 
BRANCH  22  23
ATOM     23  C   UNL     1       4.400   3.764  17.689  0.00  0.00    +0.000 C 
ATOM     24  C   UNL     1       2.971   3.631  17.132  0.00  0.00    +0.000 C 
ATOM     25  C   UNL     1       2.075   3.805  18.343  0.00  0.00    +0.000 C 
ATOM     26  N   UNL     1       2.876   3.307  19.417  0.00  0.00    +0.000 N 
ATOM     27  C   UNL     1       4.220   3.274  19.112  0.00  0.00    +0.000 C 
ATOM     28  O   UNL     1       5.105   2.944  19.878  0.00  0.00    +0.000 OA
ATOM     29  H   UNL     1       2.557   3.115  20.359  0.00  0.00    +0.000 HD
ENDBRANCH  22  23
ENDBRANCH   1  22
TORSDOF 9
ENDMDL
MODEL 3
REMARK VINA RESULT:      -8.6      1.685      2.074
REMARK  Name = 
REMARK  10 active torsions:
REMARK  status: ('A' for Active; 'I' for Inactive)
REMARK    1  A    between atoms: C_1  and  C_2
REMARK    2  A    between atoms: C_2  and  O_3
REMARK    3  A    between atoms: O_3  and  C_4
REMARK    4  A    between atoms: C_4  and  C_6
REMARK    5  A    between atoms: C_7  and  C_8
REMARK    6  A    between atoms: C_8  and  C_9
REMARK    7  A    between atoms: C_8  and  N_16
REMARK    8  A    between atoms: C_9  and  C_10
REMARK    9  A    between atoms: C_17  and  C_19
REMARK   10  A    between atoms: C_20  and  C_21
REMARK                            x       y       z     vdW  Elec       q    Type
REMARK                         _______ _______ _______ _____ _____    ______ ____
ROOT
ATOM      1  C   UNL     1       5.947   5.516  17.364  0.00  0.00    +0.000 C 
ENDROOT
BRANCH   1   2
ATOM      2  N   UNL     1       6.547   6.835  17.362  0.00  0.00    +0.000 N 
ATOM      3  C   UNL     1       7.642   7.122  18.136  0.00  0.00    +0.000 C 
ATOM      4  O   UNL     1       8.178   6.332  18.900  0.00  0.00    +0.000 OA
ATOM      5  H   UNL     1       6.135   7.551  16.780  0.00  0.00    +0.000 HD
BRANCH   3   6
ATOM      6  C   UNL     1       8.112   8.520  17.967  0.00  0.00    +0.000 C 
ATOM      7  C   UNL     1       8.837   9.099  18.937  0.00  0.00    +0.000 C 
BRANCH   7   8
ATOM      8  C   UNL     1       9.311  10.489  18.901  0.00  0.00    +0.000 A 
ATOM      9  C   UNL     1       9.716  11.110  17.708  0.00  0.00    +0.000 A 
ATOM     10  C   UNL     1      10.115  12.448  17.698  0.00  0.00    +0.000 A 
ATOM     11  C   UNL     1      10.102  13.189  18.877  0.00  0.00    +0.000 A 
ATOM     12  C   UNL     1       9.686  12.586  20.062  0.00  0.00    +0.000 A 
ATOM     13 BR   UNL     1       9.646  13.597  21.659  0.00  0.00    +0.000 Br
ATOM     14  C   UNL     1       9.289  11.247  20.079  0.00  0.00    +0.000 A 
ENDBRANCH   7   8
ENDBRANCH   3   6
ENDBRANCH   1   2
BRANCH   1  16
ATOM     15  C   UNL     1       6.457   5.548  14.919  0.00  0.00    +0.000 C 
ATOM     16  C   UNL     1       6.376   4.874  16.077  0.00  0.00    +0.000 C 
BRANCH  15  17
ATOM     17  C   UNL     1       6.987   4.882  13.715  0.00  0.00    +0.000 C 
ATOM     18  O   UNL     1       7.824   5.357  12.965  0.00  0.00    +0.000 OA
BRANCH  17  19
ATOM     19  O   UNL     1       6.309   3.721  13.556  0.00  0.00    +0.000 OA
BRANCH  19  21
ATOM     20  C   UNL     1       4.722   3.290  11.824  0.00  0.00    +0.000 C 
ATOM     21  C   UNL     1       6.193   3.268  12.202  0.00  0.00    +0.000 C 
ENDBRANCH  19  21
ENDBRANCH  17  19
ENDBRANCH  15  17
ENDBRANCH   1  16
BRANCH   1  22
ATOM     22  C   UNL     1       4.413   5.607  17.501  0.00  0.00    +0.000 C 
BRANCH  22  23
ATOM     23  C   UNL     1       3.726   4.252  17.723  0.00  0.00    +0.000 C 
ATOM     24  C   UNL     1       2.191   4.373  17.734  0.00  0.00    +0.000 C 
ATOM     25  C   UNL     1       1.841   4.615  19.190  0.00  0.00    +0.000 C 
ATOM     26  N   UNL     1       2.886   3.940  19.895  0.00  0.00    +0.000 N 
ATOM     27  C   UNL     1       4.000   3.717  19.115  0.00  0.00    +0.000 C 
ATOM     28  O   UNL     1       5.037   3.212  19.502  0.00  0.00    +0.000 OA
ATOM     29  H   UNL     1       2.906   3.748  20.889  0.00  0.00    +0.000 HD
ENDBRANCH  22  23
ENDBRANCH   1  22
TORSDOF 9
ENDMDL
MODEL 4
REMARK VINA RESULT:      -8.6      5.392      6.628
REMARK  Name = 
REMARK  10 active torsions:
REMARK  status: ('A' for Active; 'I' for Inactive)
REMARK    1  A    between atoms: C_1  and  C_2
REMARK    2  A    between atoms: C_2  and  O_3
REMARK    3  A    between atoms: O_3  and  C_4
REMARK    4  A    between atoms: C_4  and  C_6
REMARK    5  A    between atoms: C_7  and  C_8
REMARK    6  A    between atoms: C_8  and  C_9
REMARK    7  A    between atoms: C_8  and  N_16
REMARK    8  A    between atoms: C_9  and  C_10
REMARK    9  A    between atoms: C_17  and  C_19
REMARK   10  A    between atoms: C_20  and  C_21
REMARK                            x       y       z     vdW  Elec       q    Type
REMARK                         _______ _______ _______ _____ _____    ______ ____
ROOT
ATOM      1  C   UNL     1       3.384   4.705  17.834  0.00  0.00    +0.000 C 
ENDROOT
BRANCH   1   2
ATOM      2  N   UNL     1       2.703   5.907  18.272  0.00  0.00    +0.000 N 
ATOM      3  C   UNL     1       2.680   6.273  19.593  0.00  0.00    +0.000 C 
ATOM      4  O   UNL     1       3.185   5.627  20.501  0.00  0.00    +0.000 OA
ATOM      5  H   UNL     1       2.232   6.473  17.580  0.00  0.00    +0.000 HD
BRANCH   3   6
ATOM      6  C   UNL     1       1.953   7.546  19.822  0.00  0.00    +0.000 C 
ATOM      7  C   UNL     1       1.367   7.773  21.008  0.00  0.00    +0.000 C 
BRANCH   7   8
ATOM      8  C   UNL     1       0.580   8.971  21.330  0.00  0.00    +0.000 A 
ATOM      9  C   UNL     1       0.051   9.197  22.610  0.00  0.00    +0.000 A 
ATOM     10  C   UNL     1      -0.651  10.370  22.898  0.00  0.00    +0.000 A 
ATOM     11  C   UNL     1      -0.822  11.340  21.913  0.00  0.00    +0.000 A 
ATOM     12  C   UNL     1      -0.287  11.131  20.644  0.00  0.00    +0.000 A 
ATOM     13 BR   UNL     1      -0.500  12.456  19.312  0.00  0.00    +0.000 Br
ATOM     14  C   UNL     1       0.413   9.959  20.350  0.00  0.00    +0.000 A 
ENDBRANCH   7   8
ENDBRANCH   3   6
ENDBRANCH   1   2
BRANCH   1  16
ATOM     15  C   UNL     1       5.418   4.385  16.417  0.00  0.00    +0.000 C 
ATOM     16  C   UNL     1       4.398   5.159  16.825  0.00  0.00    +0.000 C 
BRANCH  15  17
ATOM     17  C   UNL     1       6.315   4.854  15.346  0.00  0.00    +0.000 C 
ATOM     18  O   UNL     1       7.393   5.395  15.525  0.00  0.00    +0.000 OA
BRANCH  17  19
ATOM     19  O   UNL     1       5.680   4.661  14.165  0.00  0.00    +0.000 OA
BRANCH  19  21
ATOM     20  C   UNL     1       5.298   3.370  12.192  0.00  0.00    +0.000 C 
ATOM     21  C   UNL     1       6.280   3.680  13.309  0.00  0.00    +0.000 C 
ENDBRANCH  19  21
ENDBRANCH  17  19
ENDBRANCH  15  17
ENDBRANCH   1  16
BRANCH   1  22
ATOM     22  C   UNL     1       2.384   3.684  17.253  0.00  0.00    +0.000 C 
BRANCH  22  23
ATOM     23  C   UNL     1       2.246   2.403  18.090  0.00  0.00    +0.000 C 
ATOM     24  C   UNL     1       0.859   2.286  18.749  0.00  0.00    +0.000 C 
ATOM     25  C   UNL     1       1.022   2.965  20.096  0.00  0.00    +0.000 C 
ATOM     26  N   UNL     1       2.399   2.744  20.409  0.00  0.00    +0.000 N 
ATOM     27  C   UNL     1       3.158   2.435  19.301  0.00  0.00    +0.000 C 
ATOM     28  O   UNL     1       4.362   2.260  19.301  0.00  0.00    +0.000 OA
ATOM     29  H   UNL     1       2.841   2.916  21.304  0.00  0.00    +0.000 HD
ENDBRANCH  22  23
ENDBRANCH   1  22
TORSDOF 9
ENDMDL
MODEL 5
REMARK VINA RESULT:      -8.5      2.391      4.452
REMARK  Name = 
REMARK  10 active torsions:
REMARK  status: ('A' for Active; 'I' for Inactive)
REMARK    1  A    between atoms: C_1  and  C_2
REMARK    2  A    between atoms: C_2  and  O_3
REMARK    3  A    between atoms: O_3  and  C_4
REMARK    4  A    between atoms: C_4  and  C_6
REMARK    5  A    between atoms: C_7  and  C_8
REMARK    6  A    between atoms: C_8  and  C_9
REMARK    7  A    between atoms: C_8  and  N_16
REMARK    8  A    between atoms: C_9  and  C_10
REMARK    9  A    between atoms: C_17  and  C_19
REMARK   10  A    between atoms: C_20  and  C_21
REMARK                            x       y       z     vdW  Elec       q    Type
REMARK                         _______ _______ _______ _____ _____    ______ ____
ROOT
ATOM      1  C   UNL     1       4.866   5.952  17.394  0.00  0.00    +0.000 C 
ENDROOT
BRANCH   1   2
ATOM      2  N   UNL     1       5.941   6.755  17.943  0.00  0.00    +0.000 N 
ATOM      3  C   UNL     1       7.139   6.888  17.288  0.00  0.00    +0.000 C 
ATOM      4  O   UNL     1       7.417   6.336  16.233  0.00  0.00    +0.000 OA
ATOM      5  H   UNL     1       5.795   7.213  18.832  0.00  0.00    +0.000 HD
BRANCH   3   6
ATOM      6  C   UNL     1       8.090   7.771  18.008  0.00  0.00    +0.000 C 
ATOM      7  C   UNL     1       7.984   9.103  17.882  0.00  0.00    +0.000 C 
BRANCH   7   8
ATOM      8  C   UNL     1       8.899  10.070  18.506  0.00  0.00    +0.000 A 
ATOM      9  C   UNL     1       9.101  10.120  19.894  0.00  0.00    +0.000 A 
ATOM     10  C   UNL     1      10.014  11.017  20.453  0.00  0.00    +0.000 A 
ATOM     11  C   UNL     1      10.749  11.867  19.630  0.00  0.00    +0.000 A 
ATOM     12  C   UNL     1      10.566  11.813  18.250  0.00  0.00    +0.000 A 
ATOM     13 BR   UNL     1      11.579  12.952  17.130  0.00  0.00    +0.000 Br
ATOM     14  C   UNL     1       9.652  10.921  17.686  0.00  0.00    +0.000 A 
ENDBRANCH   7   8
ENDBRANCH   3   6
ENDBRANCH   1   2
BRANCH   1  16
ATOM     15  C   UNL     1       3.423   7.962  17.740  0.00  0.00    +0.000 C 
ATOM     16  C   UNL     1       3.597   6.633  17.816  0.00  0.00    +0.000 C 
BRANCH  15  17
ATOM     17  C   UNL     1       2.114   8.554  18.071  0.00  0.00    +0.000 C 
ATOM     18  O   UNL     1       1.507   9.343  17.367  0.00  0.00    +0.000 OA
BRANCH  17  19
ATOM     19  O   UNL     1       1.780   8.140  19.315  0.00  0.00    +0.000 OA
BRANCH  19  21
ATOM     20  C   UNL     1       1.180   8.700  21.559  0.00  0.00    +0.000 C 
ATOM     21  C   UNL     1       1.055   9.097  20.098  0.00  0.00    +0.000 C 
ENDBRANCH  19  21
ENDBRANCH  17  19
ENDBRANCH  15  17
ENDBRANCH   1  16
BRANCH   1  22
ATOM     22  C   UNL     1       4.954   4.495  17.895  0.00  0.00    +0.000 C 
BRANCH  22  23
ATOM     23  C   UNL     1       3.664   3.984  18.553  0.00  0.00    +0.000 C 
ATOM     24  C   UNL     1       3.948   3.105  19.784  0.00  0.00    +0.000 C 
ATOM     25  C   UNL     1       4.041   1.696  19.229  0.00  0.00    +0.000 C 
ATOM     26  N   UNL     1       3.173   1.733  18.094  0.00  0.00    +0.000 N 
ATOM     27  C   UNL     1       2.931   3.014  17.647  0.00  0.00    +0.000 C 
ATOM     28  O   UNL     1       2.272   3.302  16.666  0.00  0.00    +0.000 OA
ATOM     29  H   UNL     1       2.856   0.933  17.560  0.00  0.00    +0.000 HD
ENDBRANCH  22  23
ENDBRANCH   1  22
TORSDOF 9
ENDMDL
MODEL 6
REMARK VINA RESULT:      -8.3      1.741      2.167
REMARK  Name = 
REMARK  10 active torsions:
REMARK  status: ('A' for Active; 'I' for Inactive)
REMARK    1  A    between atoms: C_1  and  C_2
REMARK    2  A    between atoms: C_2  and  O_3
REMARK    3  A    between atoms: O_3  and  C_4
REMARK    4  A    between atoms: C_4  and  C_6
REMARK    5  A    between atoms: C_7  and  C_8
REMARK    6  A    between atoms: C_8  and  C_9
REMARK    7  A    between atoms: C_8  and  N_16
REMARK    8  A    between atoms: C_9  and  C_10
REMARK    9  A    between atoms: C_17  and  C_19
REMARK   10  A    between atoms: C_20  and  C_21
REMARK                            x       y       z     vdW  Elec       q    Type
REMARK                         _______ _______ _______ _____ _____    ______ ____
ROOT
ATOM      1  C   UNL     1       6.623   5.518  16.860  0.00  0.00    +0.000 C 
ENDROOT
BRANCH   1   2
ATOM      2  N   UNL     1       6.979   6.923  16.848  0.00  0.00    +0.000 N 
ATOM      3  C   UNL     1       7.756   7.471  17.837  0.00  0.00    +0.000 C 
ATOM      4  O   UNL     1       8.180   6.857  18.806  0.00  0.00    +0.000 OA
ATOM      5  H   UNL     1       6.634   7.502  16.095  0.00  0.00    +0.000 HD
BRANCH   3   6
ATOM      6  C   UNL     1       8.022   8.915  17.622  0.00  0.00    +0.000 C 
ATOM      7  C   UNL     1       8.932   9.543  18.384  0.00  0.00    +0.000 C 
BRANCH   7   8
ATOM      8  C   UNL     1       9.240  10.977  18.295  0.00  0.00    +0.000 A 
ATOM      9  C   UNL     1      10.558  11.461  18.314  0.00  0.00    +0.000 A 
ATOM     10  C   UNL     1      10.821  12.826  18.177  0.00  0.00    +0.000 A 
ATOM     11  C   UNL     1       9.771  13.724  18.006  0.00  0.00    +0.000 A 
ATOM     12  C   UNL     1       8.461  13.251  17.969  0.00  0.00    +0.000 A 
ATOM     13 BR   UNL     1       7.037  14.469  17.714  0.00  0.00    +0.000 Br
ATOM     14  C   UNL     1       8.192  11.888  18.108  0.00  0.00    +0.000 A 
ENDBRANCH   7   8
ENDBRANCH   3   6
ENDBRANCH   1   2
BRANCH   1  16
ATOM     15  C   UNL     1       7.305   4.871  14.545  0.00  0.00    +0.000 C 
ATOM     16  C   UNL     1       6.338   5.161  15.430  0.00  0.00    +0.000 C 
BRANCH  15  17
ATOM     17  C   UNL     1       6.949   4.426  13.186  0.00  0.00    +0.000 C 
ATOM     18  O   UNL     1       7.497   4.800  12.163  0.00  0.00    +0.000 OA
BRANCH  17  19
ATOM     19  O   UNL     1       5.864   3.623  13.288  0.00  0.00    +0.000 OA
BRANCH  19  21
ATOM     20  C   UNL     1       4.277   3.325  11.527  0.00  0.00    +0.000 C 
ATOM     21  C   UNL     1       5.583   2.833  12.125  0.00  0.00    +0.000 C 
ENDBRANCH  19  21
ENDBRANCH  17  19
ENDBRANCH  15  17
ENDBRANCH   1  16
BRANCH   1  22
ATOM     22  C   UNL     1       5.418   5.262  17.789  0.00  0.00    +0.000 C 
BRANCH  22  23
ATOM     23  C   UNL     1       4.070   5.689  17.191  0.00  0.00    +0.000 C 
ATOM     24  C   UNL     1       3.579   7.031  17.763  0.00  0.00    +0.000 C 
ATOM     25  C   UNL     1       2.747   6.646  18.971  0.00  0.00    +0.000 C 
ATOM     26  N   UNL     1       2.233   5.360  18.619  0.00  0.00    +0.000 N 
ATOM     27  C   UNL     1       2.957   4.751  17.616  0.00  0.00    +0.000 C 
ATOM     28  O   UNL     1       2.752   3.633  17.183  0.00  0.00    +0.000 OA
ATOM     29  H   UNL     1       1.508   4.853  19.111  0.00  0.00    +0.000 HD
ENDBRANCH  22  23
ENDBRANCH   1  22
TORSDOF 9
ENDMDL
MODEL 7
REMARK VINA RESULT:      -8.3      1.561      1.902
REMARK  Name = 
REMARK  10 active torsions:
REMARK  status: ('A' for Active; 'I' for Inactive)
REMARK    1  A    between atoms: C_1  and  C_2
REMARK    2  A    between atoms: C_2  and  O_3
REMARK    3  A    between atoms: O_3  and  C_4
REMARK    4  A    between atoms: C_4  and  C_6
REMARK    5  A    between atoms: C_7  and  C_8
REMARK    6  A    between atoms: C_8  and  C_9
REMARK    7  A    between atoms: C_8  and  N_16
REMARK    8  A    between atoms: C_9  and  C_10
REMARK    9  A    between atoms: C_17  and  C_19
REMARK   10  A    between atoms: C_20  and  C_21
REMARK                            x       y       z     vdW  Elec       q    Type
REMARK                         _______ _______ _______ _____ _____    ______ ____
ROOT
ATOM      1  C   UNL     1       5.832   5.779  16.535  0.00  0.00    +0.000 C 
ENDROOT
BRANCH   1   2
ATOM      2  N   UNL     1       6.487   7.060  16.715  0.00  0.00    +0.000 N 
ATOM      3  C   UNL     1       7.437   7.245  17.687  0.00  0.00    +0.000 C 
ATOM      4  O   UNL     1       7.786   6.388  18.488  0.00  0.00    +0.000 OA
ATOM      5  H   UNL     1       6.223   7.826  16.112  0.00  0.00    +0.000 HD
BRANCH   3   6
ATOM      6  C   UNL     1       7.998   8.618  17.685  0.00  0.00    +0.000 C 
ATOM      7  C   UNL     1       8.769   9.022  18.707  0.00  0.00    +0.000 C 
BRANCH   7   8
ATOM      8  C   UNL     1       9.336  10.372  18.836  0.00  0.00    +0.000 A 
ATOM      9  C   UNL     1       9.947  11.032  17.758  0.00  0.00    +0.000 A 
ATOM     10  C   UNL     1      10.432  12.334  17.898  0.00  0.00    +0.000 A 
ATOM     11  C   UNL     1      10.300  13.000  19.114  0.00  0.00    +0.000 A 
ATOM     12  C   UNL     1       9.679  12.359  20.184  0.00  0.00    +0.000 A 
ATOM     13 BR   UNL     1       9.479  13.271  21.828  0.00  0.00    +0.000 Br
ATOM     14  C   UNL     1       9.196  11.056  20.050  0.00  0.00    +0.000 A 
ENDBRANCH   7   8
ENDBRANCH   3   6
ENDBRANCH   1   2
BRANCH   1  16
ATOM     15  C   UNL     1       6.177   4.198  14.632  0.00  0.00    +0.000 C 
ATOM     16  C   UNL     1       5.983   5.449  15.079  0.00  0.00    +0.000 C 
BRANCH  15  17
ATOM     17  C   UNL     1       6.212   3.930  13.183  0.00  0.00    +0.000 C 
ATOM     18  O   UNL     1       7.185   4.094  12.465  0.00  0.00    +0.000 OA
BRANCH  17  19
ATOM     19  O   UNL     1       4.963   3.573  12.802  0.00  0.00    +0.000 OA
BRANCH  19  21
ATOM     20  C   UNL     1       3.441   2.928  11.077  0.00  0.00    +0.000 C 
ATOM     21  C   UNL     1       4.688   3.732  11.404  0.00  0.00    +0.000 C 
ENDBRANCH  19  21
ENDBRANCH  17  19
ENDBRANCH  15  17
ENDBRANCH   1  16
BRANCH   1  22
ATOM     22  C   UNL     1       4.356   5.847  16.979  0.00  0.00    +0.000 C 
BRANCH  22  23
ATOM     23  C   UNL     1       4.018   4.924  18.159  0.00  0.00    +0.000 C 
ATOM     24  C   UNL     1       3.920   3.448  17.734  0.00  0.00    +0.000 C 
ATOM     25  C   UNL     1       2.461   3.256  17.365  0.00  0.00    +0.000 C 
ATOM     26  N   UNL     1       1.785   4.194  18.205  0.00  0.00    +0.000 N 
ATOM     27  C   UNL     1       2.617   5.185  18.679  0.00  0.00    +0.000 C 
ATOM     28  O   UNL     1       2.267   6.128  19.364  0.00  0.00    +0.000 OA
ATOM     29  H   UNL     1       0.785   4.247  18.354  0.00  0.00    +0.000 HD
ENDBRANCH  22  23
ENDBRANCH   1  22
TORSDOF 9
ENDMDL
MODEL 8
REMARK VINA RESULT:      -8.3      4.961      7.920
REMARK  Name = 
REMARK  10 active torsions:
REMARK  status: ('A' for Active; 'I' for Inactive)
REMARK    1  A    between atoms: C_1  and  C_2
REMARK    2  A    between atoms: C_2  and  O_3
REMARK    3  A    between atoms: O_3  and  C_4
REMARK    4  A    between atoms: C_4  and  C_6
REMARK    5  A    between atoms: C_7  and  C_8
REMARK    6  A    between atoms: C_8  and  C_9
REMARK    7  A    between atoms: C_8  and  N_16
REMARK    8  A    between atoms: C_9  and  C_10
REMARK    9  A    between atoms: C_17  and  C_19
REMARK   10  A    between atoms: C_20  and  C_21
REMARK                            x       y       z     vdW  Elec       q    Type
REMARK                         _______ _______ _______ _____ _____    ______ ____
ROOT
ATOM      1  C   UNL     1       3.340   5.794  17.739  0.00  0.00    +0.000 C 
ENDROOT
BRANCH   1   2
ATOM      2  N   UNL     1       2.517   6.756  18.446  0.00  0.00    +0.000 N 
ATOM      3  C   UNL     1       2.324   8.024  17.960  0.00  0.00    +0.000 C 
ATOM      4  O   UNL     1       2.836   8.460  16.938  0.00  0.00    +0.000 OA
ATOM      5  H   UNL     1       2.090   6.476  19.318  0.00  0.00    +0.000 HD
BRANCH   3   6
ATOM      6  C   UNL     1       1.431   8.837  18.821  0.00  0.00    +0.000 C 
ATOM      7  C   UNL     1       1.519   8.732  20.156  0.00  0.00    +0.000 C 
BRANCH   7   8
ATOM      8  C   UNL     1       0.654   9.448  21.104  0.00  0.00    +0.000 A 
ATOM      9  C   UNL     1       0.251   8.883  22.324  0.00  0.00    +0.000 A 
ATOM     10  C   UNL     1      -0.531   9.608  23.226  0.00  0.00    +0.000 A 
ATOM     11  C   UNL     1      -0.909  10.914  22.927  0.00  0.00    +0.000 A 
ATOM     12  C   UNL     1      -0.500  11.489  21.725  0.00  0.00    +0.000 A 
ATOM     13 BR   UNL     1      -0.996  13.271  21.329  0.00  0.00    +0.000 Br
ATOM     14  C   UNL     1       0.279  10.768  20.819  0.00  0.00    +0.000 A 
ENDBRANCH   7   8
ENDBRANCH   3   6
ENDBRANCH   1   2
BRANCH   1  16
ATOM     15  C   UNL     1       1.571   4.194  18.482  0.00  0.00    +0.000 C 
ATOM     16  C   UNL     1       2.856   4.444  18.183  0.00  0.00    +0.000 C 
BRANCH  15  17
ATOM     17  C   UNL     1       1.145   2.821  18.809  0.00  0.00    +0.000 C 
ATOM     18  O   UNL     1       0.201   2.242  18.298  0.00  0.00    +0.000 OA
BRANCH  17  19
ATOM     19  O   UNL     1       1.923   2.381  19.826  0.00  0.00    +0.000 OA
BRANCH  19  21
ATOM     20  C   UNL     1       2.298   3.619  21.834  0.00  0.00    +0.000 C 
ATOM     21  C   UNL     1       1.395   2.616  21.137  0.00  0.00    +0.000 C 
ENDBRANCH  19  21
ENDBRANCH  17  19
ENDBRANCH  15  17
ENDBRANCH   1  16
BRANCH   1  22
ATOM     22  C   UNL     1       4.836   6.019  18.043  0.00  0.00    +0.000 C 
BRANCH  22  23
ATOM     23  C   UNL     1       5.687   6.310  16.798  0.00  0.00    +0.000 C 
ATOM     24  C   UNL     1       5.373   5.346  15.640  0.00  0.00    +0.000 C 
ATOM     25  C   UNL     1       6.335   4.190  15.839  0.00  0.00    +0.000 C 
ATOM     26  N   UNL     1       7.461   4.805  16.468  0.00  0.00    +0.000 N 
ATOM     27  C   UNL     1       7.152   6.015  17.052  0.00  0.00    +0.000 C 
ATOM     28  O   UNL     1       7.925   6.702  17.694  0.00  0.00    +0.000 OA
ATOM     29  H   UNL     1       8.368   4.380  16.614  0.00  0.00    +0.000 HD
ENDBRANCH  22  23
ENDBRANCH   1  22
TORSDOF 9
ENDMDL
MODEL 9
REMARK VINA RESULT:      -8.3      5.514      6.565
REMARK  Name = 
REMARK  10 active torsions:
REMARK  status: ('A' for Active; 'I' for Inactive)
REMARK    1  A    between atoms: C_1  and  C_2
REMARK    2  A    between atoms: C_2  and  O_3
REMARK    3  A    between atoms: O_3  and  C_4
REMARK    4  A    between atoms: C_4  and  C_6
REMARK    5  A    between atoms: C_7  and  C_8
REMARK    6  A    between atoms: C_8  and  C_9
REMARK    7  A    between atoms: C_8  and  N_16
REMARK    8  A    between atoms: C_9  and  C_10
REMARK    9  A    between atoms: C_17  and  C_19
REMARK   10  A    between atoms: C_20  and  C_21
REMARK                            x       y       z     vdW  Elec       q    Type
REMARK                         _______ _______ _______ _____ _____    ______ ____
ROOT
ATOM      1  C   UNL     1       3.930   4.398  18.065  0.00  0.00    +0.000 C 
ENDROOT
BRANCH   1   2
ATOM      2  N   UNL     1       3.292   5.699  18.133  0.00  0.00    +0.000 N 
ATOM      3  C   UNL     1       2.863   6.222  19.325  0.00  0.00    +0.000 C 
ATOM      4  O   UNL     1       2.945   5.650  20.403  0.00  0.00    +0.000 OA
ATOM      5  H   UNL     1       3.159   6.215  17.274  0.00  0.00    +0.000 HD
BRANCH   3   6
ATOM      6  C   UNL     1       2.262   7.570  19.176  0.00  0.00    +0.000 C 
ATOM      7  C   UNL     1       1.597   8.119  20.205  0.00  0.00    +0.000 C 
BRANCH   7   8
ATOM      8  C   UNL     1       0.920   9.422  20.154  0.00  0.00    +0.000 A 
ATOM      9  C   UNL     1       0.844  10.180  18.975  0.00  0.00    +0.000 A 
ATOM     10  C   UNL     1       0.151  11.392  18.947  0.00  0.00    +0.000 A 
ATOM     11  C   UNL     1      -0.489  11.857  20.093  0.00  0.00    +0.000 A 
ATOM     12  C   UNL     1      -0.433  11.103  21.264  0.00  0.00    +0.000 A 
ATOM     13 BR   UNL     1      -1.319  11.722  22.815  0.00  0.00    +0.000 Br
ATOM     14  C   UNL     1       0.262   9.892  21.298  0.00  0.00    +0.000 A 
ENDBRANCH   7   8
ENDBRANCH   3   6
ENDBRANCH   1   2
BRANCH   1  16
ATOM     15  C   UNL     1       5.492   4.157  16.130  0.00  0.00    +0.000 C 
ATOM     16  C   UNL     1       5.237   4.625  17.362  0.00  0.00    +0.000 C 
BRANCH  15  17
ATOM     17  C   UNL     1       6.755   4.506  15.456  0.00  0.00    +0.000 C 
ATOM     18  O   UNL     1       7.839   4.597  16.007  0.00  0.00    +0.000 OA
BRANCH  17  19
ATOM     19  O   UNL     1       6.466   4.795  14.165  0.00  0.00    +0.000 OA
BRANCH  19  21
ATOM     20  C   UNL     1       6.192   3.345  12.286  0.00  0.00    +0.000 C 
ATOM     21  C   UNL     1       5.537   3.902  13.538  0.00  0.00    +0.000 C 
ENDBRANCH  19  21
ENDBRANCH  17  19
ENDBRANCH  15  17
ENDBRANCH   1  16
BRANCH   1  22
ATOM     22  C   UNL     1       3.031   3.379  17.335  0.00  0.00    +0.000 C 
BRANCH  22  23
ATOM     23  C   UNL     1       2.630   2.174  18.197  0.00  0.00    +0.000 C 
ATOM     24  C   UNL     1       1.127   2.172  18.531  0.00  0.00    +0.000 C 
ATOM     25  C   UNL     1       1.028   2.942  19.835  0.00  0.00    +0.000 C 
ATOM     26  N   UNL     1       2.284   2.681  20.465  0.00  0.00    +0.000 N 
ATOM     27  C   UNL     1       3.249   2.254  19.579  0.00  0.00    +0.000 C 
ATOM     28  O   UNL     1       4.410   2.023  19.863  0.00  0.00    +0.000 OA
ATOM     29  H   UNL     1       2.526   2.899  21.424  0.00  0.00    +0.000 HD
ENDBRANCH  22  23
ENDBRANCH   1  22
TORSDOF 9
ENDMDL
