MODEL 1
REMARK VINA RESULT:      -6.5      0.000      0.000
REMARK  Name = 
REMARK  6 active torsions:
REMARK  status: ('A' for Active; 'I' for Inactive)
REMARK    1  A    between atoms: C_1  and  C_2
REMARK    2  A    between atoms: C_2  and  O_3
REMARK    3  A    between atoms: O_3  and  P_4
REMARK    4  A    between atoms: N_15  and  C_16
REMARK    5  A    between atoms: C_16  and  C_17
REMARK    6  A    between atoms: C_16  and  C_18
REMARK                            x       y       z     vdW  Elec       q    Type
REMARK                         _______ _______ _______ _____ _____    ______ ____
ROOT
ATOM      1  P   UNL     1       4.584   4.968  17.762  0.00  0.00    +0.000 P 
ATOM      2  S   UNL     1       5.330   4.137  16.159  0.00  0.00    +0.000 S 
ATOM      3  O   UNL     1       3.729   6.268  17.303  0.00  0.00    +0.000 OA
ATOM      4  C   UNL     1       2.954   6.957  18.177  0.00  0.00    +0.000 A 
ATOM      5  C   UNL     1       2.611   8.260  17.827  0.00  0.00    +0.000 A 
ATOM      6  C   UNL     1       1.887   9.050  18.711  0.00  0.00    +0.000 A 
ATOM      7  C   UNL     1       1.495   8.519  19.939  0.00  0.00    +0.000 A 
ATOM      8 BR   UNL     1       0.565   9.603  21.176  0.00  0.00    +0.000 Br
ATOM      9  C   UNL     1       1.800   7.197  20.267  0.00  0.00    +0.000 A 
ATOM     10  C   UNL     1       2.538   6.392  19.378  0.00  0.00    +0.000 A 
ATOM     11  C   UNL     1       2.864   4.976  19.774  0.00  0.00    +0.000 C 
ATOM     12  N   UNL     1       3.559   4.138  18.777  0.00  0.00    +0.000 NA
ENDROOT
BRANCH  12  13
ATOM     13  C   UNL     1       3.912   2.838  19.403  0.00  0.00    +0.000 C 
ATOM     14  C   UNL     1       3.198   2.650  20.762  0.00  0.00    +0.000 C 
ATOM     15  C   UNL     1       3.584   1.591  18.576  0.00  0.00    +0.000 C 
ENDBRANCH  12  13
BRANCH   1  16
ATOM     16  O   UNL     1       5.699   5.665  18.734  0.00  0.00    +0.000 OA
BRANCH  16  18
ATOM     17  C   UNL     1       7.439   7.005  17.697  0.00  0.00    +0.000 C 
ATOM     18  C   UNL     1       7.053   5.662  18.286  0.00  0.00    +0.000 C 
ENDBRANCH  16  18
ENDBRANCH   1  16
TORSDOF 3
ENDMDL
MODEL 2
REMARK VINA RESULT:      -6.5      2.131      3.841
REMARK  Name = 
REMARK  6 active torsions:
REMARK  status: ('A' for Active; 'I' for Inactive)
REMARK    1  A    between atoms: C_1  and  C_2
REMARK    2  A    between atoms: C_2  and  O_3
REMARK    3  A    between atoms: O_3  and  P_4
REMARK    4  A    between atoms: N_15  and  C_16
REMARK    5  A    between atoms: C_16  and  C_17
REMARK    6  A    between atoms: C_16  and  C_18
REMARK                            x       y       z     vdW  Elec       q    Type
REMARK                         _______ _______ _______ _____ _____    ______ ____
ROOT
ATOM      1  P   UNL     1       3.801   4.116  18.815  0.00  0.00    +0.000 P 
ATOM      2  S   UNL     1       4.527   2.567  19.759  0.00  0.00    +0.000 S 
ATOM      3  O   UNL     1       3.182   5.132  19.917  0.00  0.00    +0.000 OA
ATOM      4  C   UNL     1       2.753   6.374  19.581  0.00  0.00    +0.000 A 
ATOM      5  C   UNL     1       1.871   6.998  20.459  0.00  0.00    +0.000 A 
ATOM      6  C   UNL     1       1.330   8.237  20.138  0.00  0.00    +0.000 A 
ATOM      7  C   UNL     1       1.693   8.852  18.941  0.00  0.00    +0.000 A 
ATOM      8 BR   UNL     1       0.916  10.506  18.463  0.00  0.00    +0.000 Br
ATOM      9  C   UNL     1       2.614   8.245  18.085  0.00  0.00    +0.000 A 
ATOM     10  C   UNL     1       3.162   6.987  18.402  0.00  0.00    +0.000 A 
ATOM     11  C   UNL     1       4.139   6.355  17.445  0.00  0.00    +0.000 C 
ATOM     12  N   UNL     1       4.760   5.080  17.857  0.00  0.00    +0.000 NA
ENDROOT
BRANCH  12  13
ATOM     13  C   UNL     1       5.573   4.555  16.730  0.00  0.00    +0.000 C 
ATOM     14  C   UNL     1       5.361   5.386  15.443  0.00  0.00    +0.000 C 
ATOM     15  C   UNL     1       7.086   4.516  16.965  0.00  0.00    +0.000 C 
ENDBRANCH  12  13
BRANCH   1  16
ATOM     16  O   UNL     1       2.470   3.789  17.921  0.00  0.00    +0.000 OA
BRANCH  16  18
ATOM     17  C   UNL     1       0.721   2.734  19.236  0.00  0.00    +0.000 C 
ATOM     18  C   UNL     1       1.793   2.560  18.178  0.00  0.00    +0.000 C 
ENDBRANCH  16  18
ENDBRANCH   1  16
TORSDOF 3
ENDMDL
MODEL 3
REMARK VINA RESULT:      -6.1      2.129      3.774
REMARK  Name = 
REMARK  6 active torsions:
REMARK  status: ('A' for Active; 'I' for Inactive)
REMARK    1  A    between atoms: C_1  and  C_2
REMARK    2  A    between atoms: C_2  and  O_3
REMARK    3  A    between atoms: O_3  and  P_4
REMARK    4  A    between atoms: N_15  and  C_16
REMARK    5  A    between atoms: C_16  and  C_17
REMARK    6  A    between atoms: C_16  and  C_18
REMARK                            x       y       z     vdW  Elec       q    Type
REMARK                         _______ _______ _______ _____ _____    ______ ____
ROOT
ATOM      1  P   UNL     1       3.563   4.959  18.691  0.00  0.00    +0.000 P 
ATOM      2  S   UNL     1       4.538   3.463  19.483  0.00  0.00    +0.000 S 
ATOM      3  O   UNL     1       2.999   5.886  19.897  0.00  0.00    +0.000 OA
ATOM      4  C   UNL     1       2.421   7.090  19.660  0.00  0.00    +0.000 A 
ATOM      5  C   UNL     1       1.604   7.608  20.663  0.00  0.00    +0.000 A 
ATOM      6  C   UNL     1       0.918   8.798  20.454  0.00  0.00    +0.000 A 
ATOM      7  C   UNL     1       1.071   9.473  19.245  0.00  0.00    +0.000 A 
ATOM      8 BR   UNL     1       0.094  11.058  18.925  0.00  0.00    +0.000 Br
ATOM      9  C   UNL     1       1.927   8.976  18.261  0.00  0.00    +0.000 A 
ATOM     10  C   UNL     1       2.622   7.767  18.462  0.00  0.00    +0.000 A 
ATOM     11  C   UNL     1       3.523   7.253  17.371  0.00  0.00    +0.000 C 
ATOM     12  N   UNL     1       4.303   6.032  17.657  0.00  0.00    +0.000 NA
ENDROOT
BRANCH  12  13
ATOM     13  C   UNL     1       5.011   5.612  16.421  0.00  0.00    +0.000 C 
ATOM     14  C   UNL     1       6.521   5.939  16.492  0.00  0.00    +0.000 C 
ATOM     15  C   UNL     1       4.917   4.123  16.075  0.00  0.00    +0.000 C 
ENDBRANCH  12  13
BRANCH   1  16
ATOM     16  O   UNL     1       2.165   4.531  17.958  0.00  0.00    +0.000 OA
BRANCH  16  18
ATOM     17  C   UNL     1       0.839   3.129  19.432  0.00  0.00    +0.000 C 
ATOM     18  C   UNL     1       1.688   3.205  18.178  0.00  0.00    +0.000 C 
ENDBRANCH  16  18
ENDBRANCH   1  16
TORSDOF 3
ENDMDL
MODEL 4
REMARK VINA RESULT:      -6.1      0.904      1.172
REMARK  Name = 
REMARK  6 active torsions:
REMARK  status: ('A' for Active; 'I' for Inactive)
REMARK    1  A    between atoms: C_1  and  C_2
REMARK    2  A    between atoms: C_2  and  O_3
REMARK    3  A    between atoms: O_3  and  P_4
REMARK    4  A    between atoms: N_15  and  C_16
REMARK    5  A    between atoms: C_16  and  C_17
REMARK    6  A    between atoms: C_16  and  C_18
REMARK                            x       y       z     vdW  Elec       q    Type
REMARK                         _______ _______ _______ _____ _____    ______ ____
ROOT
ATOM      1  P   UNL     1       3.870   4.734  18.365  0.00  0.00    +0.000 P 
ATOM      2  S   UNL     1       4.504   3.717  16.822  0.00  0.00    +0.000 S 
ATOM      3  O   UNL     1       3.192   6.104  17.821  0.00  0.00    +0.000 OA
ATOM      4  C   UNL     1       2.514   6.939  18.645  0.00  0.00    +0.000 A 
ATOM      5  C   UNL     1       2.344   8.253  18.214  0.00  0.00    +0.000 A 
ATOM      6  C   UNL     1       1.727   9.182  19.044  0.00  0.00    +0.000 A 
ATOM      7  C   UNL     1       1.267   8.782  20.297  0.00  0.00    +0.000 A 
ATOM      8 BR   UNL     1       0.486  10.050  21.458  0.00  0.00    +0.000 Br
ATOM      9  C   UNL     1       1.397   7.453  20.706  0.00  0.00    +0.000 A 
ATOM     10  C   UNL     1       2.025   6.507  19.874  0.00  0.00    +0.000 A 
ATOM     11  C   UNL     1       2.163   5.087  20.357  0.00  0.00    +0.000 C 
ATOM     12  N   UNL     1       2.744   4.107  19.418  0.00  0.00    +0.000 NA
ENDROOT
BRANCH  12  13
ATOM     13  C   UNL     1       2.924   2.813  20.124  0.00  0.00    +0.000 C 
ATOM     14  C   UNL     1       4.409   2.383  20.152  0.00  0.00    +0.000 C 
ATOM     15  C   UNL     1       2.447   2.779  21.580  0.00  0.00    +0.000 C 
ENDBRANCH  12  13
BRANCH   1  16
ATOM     16  O   UNL     1       5.065   5.337  19.304  0.00  0.00    +0.000 OA
BRANCH  16  18
ATOM     17  C   UNL     1       6.793   6.407  17.973  0.00  0.00    +0.000 C 
ATOM     18  C   UNL     1       6.402   5.214  18.823  0.00  0.00    +0.000 C 
ENDBRANCH  16  18
ENDBRANCH   1  16
TORSDOF 3
ENDMDL
MODEL 5
REMARK VINA RESULT:      -6.0      5.075      7.424
REMARK  Name = 
REMARK  6 active torsions:
REMARK  status: ('A' for Active; 'I' for Inactive)
REMARK    1  A    between atoms: C_1  and  C_2
REMARK    2  A    between atoms: C_2  and  O_3
REMARK    3  A    between atoms: O_3  and  P_4
REMARK    4  A    between atoms: N_15  and  C_16
REMARK    5  A    between atoms: C_16  and  C_17
REMARK    6  A    between atoms: C_16  and  C_18
REMARK                            x       y       z     vdW  Elec       q    Type
REMARK                         _______ _______ _______ _____ _____    ______ ____
ROOT
ATOM      1  P   UNL     1      -0.350  11.142  19.180  0.00  0.00    +0.000 P 
ATOM      2  S   UNL     1      -0.636  12.951  18.501  0.00  0.00    +0.000 S 
ATOM      3  O   UNL     1       0.934  10.514  18.413  0.00  0.00    +0.000 OA
ATOM      4  C   UNL     1       1.479   9.330  18.787  0.00  0.00    +0.000 A 
ATOM      5  C   UNL     1       2.270   8.672  17.848  0.00  0.00    +0.000 A 
ATOM      6  C   UNL     1       2.794   7.418  18.137  0.00  0.00    +0.000 A 
ATOM      7  C   UNL     1       2.536   6.838  19.378  0.00  0.00    +0.000 A 
ATOM      8 BR   UNL     1       3.189   5.107  19.758  0.00  0.00    +0.000 Br
ATOM      9  C   UNL     1       1.782   7.521  20.335  0.00  0.00    +0.000 A 
ATOM     10  C   UNL     1       1.243   8.789  20.047  0.00  0.00    +0.000 A 
ATOM     11  C   UNL     1       0.419   9.487  21.097  0.00  0.00    +0.000 C 
ATOM     12  N   UNL     1      -0.050  10.854  20.791  0.00  0.00    +0.000 NA
ENDROOT
BRANCH  12  13
ATOM     13  C   UNL     1      -0.953  11.308  21.880  0.00  0.00    +0.000 C 
ATOM     14  C   UNL     1      -0.870  10.376  23.111  0.00  0.00    +0.000 C 
ATOM     15  C   UNL     1      -0.700  12.725  22.403  0.00  0.00    +0.000 C 
ENDBRANCH  12  13
BRANCH   1  16
ATOM     16  O   UNL     1      -1.514  10.076  18.749  0.00  0.00    +0.000 OA
BRANCH  16  18
ATOM     17  C   UNL     1      -3.374  10.110  17.187  0.00  0.00    +0.000 C 
ATOM     18  C   UNL     1      -1.871  10.017  17.370  0.00  0.00    +0.000 C 
ENDBRANCH  16  18
ENDBRANCH   1  16
TORSDOF 3
ENDMDL
MODEL 6
REMARK VINA RESULT:      -6.0      0.921      1.028
REMARK  Name = 
REMARK  6 active torsions:
REMARK  status: ('A' for Active; 'I' for Inactive)
REMARK    1  A    between atoms: C_1  and  C_2
REMARK    2  A    between atoms: C_2  and  O_3
REMARK    3  A    between atoms: O_3  and  P_4
REMARK    4  A    between atoms: N_15  and  C_16
REMARK    5  A    between atoms: C_16  and  C_17
REMARK    6  A    between atoms: C_16  and  C_18
REMARK                            x       y       z     vdW  Elec       q    Type
REMARK                         _______ _______ _______ _____ _____    ______ ____
ROOT
ATOM      1  P   UNL     1       3.923   4.926  18.351  0.00  0.00    +0.000 P 
ATOM      2  S   UNL     1       4.485   3.700  16.937  0.00  0.00    +0.000 S 
ATOM      3  O   UNL     1       3.188   6.193  17.654  0.00  0.00    +0.000 OA
ATOM      4  C   UNL     1       2.542   7.134  18.387  0.00  0.00    +0.000 A 
ATOM      5  C   UNL     1       2.322   8.368  17.780  0.00  0.00    +0.000 A 
ATOM      6  C   UNL     1       1.737   9.402  18.500  0.00  0.00    +0.000 A 
ATOM      7  C   UNL     1       1.359   9.185  19.824  0.00  0.00    +0.000 A 
ATOM      8 BR   UNL     1       0.623  10.603  20.833  0.00  0.00    +0.000 Br
ATOM      9  C   UNL     1       1.539   7.933  20.415  0.00  0.00    +0.000 A 
ATOM     10  C   UNL     1       2.135   6.882  19.693  0.00  0.00    +0.000 A 
ATOM     11  C   UNL     1       2.329   5.550  20.370  0.00  0.00    +0.000 C 
ATOM     12  N   UNL     1       2.873   4.448  19.550  0.00  0.00    +0.000 NA
ENDROOT
BRANCH  12  13
ATOM     13  C   UNL     1       3.120   3.274  20.426  0.00  0.00    +0.000 C 
ATOM     14  C   UNL     1       1.806   2.528  20.758  0.00  0.00    +0.000 C 
ATOM     15  C   UNL     1       4.076   2.217  19.865  0.00  0.00    +0.000 C 
ENDBRANCH  12  13
BRANCH   1  16
ATOM     16  O   UNL     1       5.159   5.674  19.116  0.00  0.00    +0.000 OA
BRANCH  16  18
ATOM     17  C   UNL     1       7.586   5.759  19.160  0.00  0.00    +0.000 C 
ATOM     18  C   UNL     1       6.323   5.970  18.348  0.00  0.00    +0.000 C 
ENDBRANCH  16  18
ENDBRANCH   1  16
TORSDOF 3
ENDMDL
MODEL 7
REMARK VINA RESULT:      -5.9      0.732      1.049
REMARK  Name = 
REMARK  6 active torsions:
REMARK  status: ('A' for Active; 'I' for Inactive)
REMARK    1  A    between atoms: C_1  and  C_2
REMARK    2  A    between atoms: C_2  and  O_3
REMARK    3  A    between atoms: O_3  and  P_4
REMARK    4  A    between atoms: N_15  and  C_16
REMARK    5  A    between atoms: C_16  and  C_17
REMARK    6  A    between atoms: C_16  and  C_18
REMARK                            x       y       z     vdW  Elec       q    Type
REMARK                         _______ _______ _______ _____ _____    ______ ____
ROOT
ATOM      1  P   UNL     1       4.164   4.763  17.936  0.00  0.00    +0.000 P 
ATOM      2  S   UNL     1       4.839   4.060  16.242  0.00  0.00    +0.000 S 
ATOM      3  O   UNL     1       3.391   6.156  17.629  0.00  0.00    +0.000 OA
ATOM      4  C   UNL     1       2.672   6.797  18.584  0.00  0.00    +0.000 A 
ATOM      5  C   UNL     1       2.411   8.149  18.378  0.00  0.00    +0.000 A 
ATOM      6  C   UNL     1       1.748   8.885  19.353  0.00  0.00    +0.000 A 
ATOM      7  C   UNL     1       1.335   8.253  20.524  0.00  0.00    +0.000 A 
ATOM      8 BR   UNL     1       0.490   9.257  21.884  0.00  0.00    +0.000 Br
ATOM      9  C   UNL     1       1.556   6.887  20.707  0.00  0.00    +0.000 A 
ATOM     10  C   UNL     1       2.232   6.136  19.726  0.00  0.00    +0.000 A 
ATOM     11  C   UNL     1       2.469   4.668  19.966  0.00  0.00    +0.000 C 
ATOM     12  N   UNL     1       3.098   3.897  18.874  0.00  0.00    +0.000 NA
ENDROOT
BRANCH  12  13
ATOM     13  C   UNL     1       3.372   2.519  19.355  0.00  0.00    +0.000 C 
ATOM     14  C   UNL     1       3.499   1.522  18.179  0.00  0.00    +0.000 C 
ATOM     15  C   UNL     1       4.644   2.349  20.193  0.00  0.00    +0.000 C 
ENDBRANCH  12  13
BRANCH   1  16
ATOM     16  O   UNL     1       5.332   5.281  18.956  0.00  0.00    +0.000 OA
BRANCH  16  18
ATOM     17  C   UNL     1       7.590   6.159  18.769  0.00  0.00    +0.000 C 
ATOM     18  C   UNL     1       6.681   4.952  18.630  0.00  0.00    +0.000 C 
ENDBRANCH  16  18
ENDBRANCH   1  16
TORSDOF 3
ENDMDL
MODEL 8
REMARK VINA RESULT:      -5.7      2.361      4.403
REMARK  Name = 
REMARK  6 active torsions:
REMARK  status: ('A' for Active; 'I' for Inactive)
REMARK    1  A    between atoms: C_1  and  C_2
REMARK    2  A    between atoms: C_2  and  O_3
REMARK    3  A    between atoms: O_3  and  P_4
REMARK    4  A    between atoms: N_15  and  C_16
REMARK    5  A    between atoms: C_16  and  C_17
REMARK    6  A    between atoms: C_16  and  C_18
REMARK                            x       y       z     vdW  Elec       q    Type
REMARK                         _______ _______ _______ _____ _____    ______ ____
ROOT
ATOM      1  P   UNL     1       5.021   5.838  16.898  0.00  0.00    +0.000 P 
ATOM      2  S   UNL     1       5.486   6.249  15.046  0.00  0.00    +0.000 S 
ATOM      3  O   UNL     1       3.722   4.865  16.886  0.00  0.00    +0.000 OA
ATOM      4  C   UNL     1       3.263   4.276  18.018  0.00  0.00    +0.000 A 
ATOM      5  C   UNL     1       1.944   3.826  18.007  0.00  0.00    +0.000 A 
ATOM      6  C   UNL     1       1.385   3.285  19.158  0.00  0.00    +0.000 A 
ATOM      7  C   UNL     1       2.160   3.181  20.311  0.00  0.00    +0.000 A 
ATOM      8 BR   UNL     1       1.392   2.506  21.900  0.00  0.00    +0.000 Br
ATOM      9  C   UNL     1       3.495   3.589  20.306  0.00  0.00    +0.000 A 
ATOM     10  C   UNL     1       4.067   4.144  19.145  0.00  0.00    +0.000 A 
ATOM     11  C   UNL     1       5.506   4.590  19.181  0.00  0.00    +0.000 C 
ATOM     12  N   UNL     1       6.094   5.080  17.918  0.00  0.00    +0.000 NA
ENDROOT
BRANCH  12  13
ATOM     13  C   UNL     1       7.459   5.598  18.193  0.00  0.00    +0.000 C 
ATOM     14  C   UNL     1       7.617   7.060  17.714  0.00  0.00    +0.000 C 
ATOM     15  C   UNL     1       7.890   5.585  19.663  0.00  0.00    +0.000 C 
ENDBRANCH  12  13
BRANCH   1  16
ATOM     16  O   UNL     1       4.437   7.114  17.739  0.00  0.00    +0.000 OA
BRANCH  16  18
ATOM     17  C   UNL     1       2.200   7.842  18.341  0.00  0.00    +0.000 C 
ATOM     18  C   UNL     1       3.248   7.732  17.251  0.00  0.00    +0.000 C 
ENDBRANCH  16  18
ENDBRANCH   1  16
TORSDOF 3
ENDMDL
MODEL 9
REMARK VINA RESULT:      -5.6      5.293      7.558
REMARK  Name = 
REMARK  6 active torsions:
REMARK  status: ('A' for Active; 'I' for Inactive)
REMARK    1  A    between atoms: C_1  and  C_2
REMARK    2  A    between atoms: C_2  and  O_3
REMARK    3  A    between atoms: O_3  and  P_4
REMARK    4  A    between atoms: N_15  and  C_16
REMARK    5  A    between atoms: C_16  and  C_17
REMARK    6  A    between atoms: C_16  and  C_18
REMARK                            x       y       z     vdW  Elec       q    Type
REMARK                         _______ _______ _______ _____ _____    ______ ____
ROOT
ATOM      1  P   UNL     1      -0.237  11.617  19.396  0.00  0.00    +0.000 P 
ATOM      2  S   UNL     1      -0.418  13.458  18.766  0.00  0.00    +0.000 S 
ATOM      3  O   UNL     1       0.948  10.908  18.545  0.00  0.00    +0.000 OA
ATOM      4  C   UNL     1       1.418   9.678  18.867  0.00  0.00    +0.000 A 
ATOM      5  C   UNL     1       2.101   8.981  17.872  0.00  0.00    +0.000 A 
ATOM      6  C   UNL     1       2.540   7.685  18.109  0.00  0.00    +0.000 A 
ATOM      7  C   UNL     1       2.307   7.099  19.352  0.00  0.00    +0.000 A 
ATOM      8 BR   UNL     1       2.843   5.315  19.663  0.00  0.00    +0.000 Br
ATOM      9  C   UNL     1       1.665   7.817  20.362  0.00  0.00    +0.000 A 
ATOM     10  C   UNL     1       1.212   9.130  20.128  0.00  0.00    +0.000 A 
ATOM     11  C   UNL     1       0.506   9.867  21.236  0.00  0.00    +0.000 C 
ATOM     12  N   UNL     1       0.130  11.272  20.981  0.00  0.00    +0.000 NA
ENDROOT
BRANCH  12  13
ATOM     13  C   UNL     1      -0.672  11.770  22.128  0.00  0.00    +0.000 C 
ATOM     14  C   UNL     1      -1.985  12.437  21.656  0.00  0.00    +0.000 C 
ATOM     15  C   UNL     1      -1.080  10.715  23.161  0.00  0.00    +0.000 C 
ENDBRANCH  12  13
BRANCH   1  16
ATOM     16  O   UNL     1      -1.503  10.655  19.014  0.00  0.00    +0.000 OA
BRANCH  16  18
ATOM     17  C   UNL     1      -2.077   9.875  16.786  0.00  0.00    +0.000 C 
ATOM     18  C   UNL     1      -2.231  10.967  17.828  0.00  0.00    +0.000 C 
ENDBRANCH  16  18
ENDBRANCH   1  16
TORSDOF 3
ENDMDL
