MODEL 1
REMARK VINA RESULT:      -8.3      0.000      0.000
REMARK  Name = 
REMARK  8 active torsions:
REMARK  status: ('A' for Active; 'I' for Inactive)
REMARK    1  A    between atoms: C_1  and  C_2
REMARK    2  A    between atoms: C_2  and  C_4
REMARK    3  A    between atoms: C_8  and  N_9
REMARK    4  A    between atoms: C_10  and  C_12
REMARK    5  A    between atoms: C_12  and  O_13
REMARK    6  A    between atoms: O_13  and  C_14
REMARK    7  A    between atoms: C_17  and  S_18
REMARK    8  A    between atoms: S_18  and  N_21
REMARK                            x       y       z     vdW  Elec       q    Type
REMARK                         _______ _______ _______ _____ _____    ______ ____
ROOT
ATOM      1  O   UNL     1       3.492   5.586  17.975  0.00  0.00    +0.000 OA
ENDROOT
BRANCH   1   2
ATOM      2  C   UNL     1       2.798   6.493  18.728  0.00  0.00    +0.000 A 
ATOM      3  C   UNL     1       2.364   6.266  20.036  0.00  0.00    +0.000 A 
ATOM      4  C   UNL     1       1.650   7.252  20.715  0.00  0.00    +0.000 A 
ATOM      5  C   UNL     1       1.412   8.481  20.095  0.00  0.00    +0.000 A 
ATOM      6  C   UNL     1       1.827   8.710  18.780  0.00  0.00    +0.000 A 
ATOM      7  C   UNL     1       2.538   7.716  18.105  0.00  0.00    +0.000 A 
BRANCH   5   8
ATOM      8  S   UNL     1       0.566   9.763  21.004  0.00  0.00    +0.000 S 
ATOM      9  O   UNL     1      -0.720   9.231  21.405  0.00  0.00    +0.000 OA
ATOM     10  O   UNL     1       1.501  10.284  21.979  0.00  0.00    +0.000 OA
BRANCH   8  11
ATOM     11  N   UNL     1       0.308  10.970  19.804  0.00  0.00    +0.000 NA
ATOM     12  C   UNL     1      -1.118  11.192  19.439  0.00  0.00    +0.000 C 
ATOM     13  C   UNL     1      -1.252  12.152  18.263  0.00  0.00    +0.000 C 
ATOM     14  C   UNL     1      -0.516  13.457  18.534  0.00  0.00    +0.000 C 
ATOM     15  C   UNL     1       0.949  13.162  18.819  0.00  0.00    +0.000 C 
ATOM     16  C   UNL     1       1.099  12.213  20.001  0.00  0.00    +0.000 C 
ENDBRANCH   8  11
ENDBRANCH   5   8
ENDBRANCH   1   2
BRANCH   1  17
ATOM     17  C   UNL     1       4.866   5.913  17.777  0.00  0.00    +0.000 C 
BRANCH  17  19
ATOM     18  N   UNL     1       5.752   4.838  15.786  0.00  0.00    +0.000 N 
ATOM     19  C   UNL     1       5.209   6.003  16.295  0.00  0.00    +0.000 C 
ATOM     20  O   UNL     1       5.010   7.052  15.687  0.00  0.00    +0.000 OA
ATOM     21  H   UNL     1       5.818   4.068  16.447  0.00  0.00    +0.000 HD
BRANCH  18  26
ATOM     22  C   UNL     1       5.993   3.489  12.348  0.00  0.00    +0.000 A 
ATOM     23  C   UNL     1       7.174   4.085  11.892  0.00  0.00    +0.000 A 
ATOM     24  C   UNL     1       7.883   4.947  12.727  0.00  0.00    +0.000 A 
ATOM     25  C   UNL     1       7.422   5.215  14.013  0.00  0.00    +0.000 A 
ATOM     26  C   UNL     1       6.249   4.624  14.487  0.00  0.00    +0.000 A 
ATOM     27  C   UNL     1       5.534   3.763  13.646  0.00  0.00    +0.000 A 
BRANCH  22  29
ATOM     28  C   UNL     1       3.850   2.986  10.999  0.00  0.00    +0.000 C 
ATOM     29  C   UNL     1       5.208   2.551  11.491  0.00  0.00    +0.000 C 
ATOM     30  O   UNL     1       5.677   1.455  11.193  0.00  0.00    +0.000 OA
ENDBRANCH  22  29
ENDBRANCH  18  26
ENDBRANCH  17  19
ENDBRANCH   1  17
TORSDOF 7
ENDMDL
MODEL 2
REMARK VINA RESULT:      -8.2      5.685      9.559
REMARK  Name = 
REMARK  8 active torsions:
REMARK  status: ('A' for Active; 'I' for Inactive)
REMARK    1  A    between atoms: C_1  and  C_2
REMARK    2  A    between atoms: C_2  and  C_4
REMARK    3  A    between atoms: C_8  and  N_9
REMARK    4  A    between atoms: C_10  and  C_12
REMARK    5  A    between atoms: C_12  and  O_13
REMARK    6  A    between atoms: O_13  and  C_14
REMARK    7  A    between atoms: C_17  and  S_18
REMARK    8  A    between atoms: S_18  and  N_21
REMARK                            x       y       z     vdW  Elec       q    Type
REMARK                         _______ _______ _______ _____ _____    ______ ____
ROOT
ATOM      1  O   UNL     1       7.550   7.539  17.163  0.00  0.00    +0.000 OA
ENDROOT
BRANCH   1   2
ATOM      2  C   UNL     1       6.672   6.496  17.265  0.00  0.00    +0.000 A 
ATOM      3  C   UNL     1       6.966   5.273  17.872  0.00  0.00    +0.000 A 
ATOM      4  C   UNL     1       6.004   4.266  17.912  0.00  0.00    +0.000 A 
ATOM      5  C   UNL     1       4.733   4.503  17.382  0.00  0.00    +0.000 A 
ATOM      6  C   UNL     1       4.437   5.718  16.756  0.00  0.00    +0.000 A 
ATOM      7  C   UNL     1       5.407   6.720  16.716  0.00  0.00    +0.000 A 
BRANCH   5   8
ATOM      8  S   UNL     1       3.485   3.233  17.510  0.00  0.00    +0.000 S 
ATOM      9  O   UNL     1       2.445   3.553  16.555  0.00  0.00    +0.000 OA
ATOM     10  O   UNL     1       4.170   1.958  17.478  0.00  0.00    +0.000 OA
BRANCH   8  11
ATOM     11  N   UNL     1       2.864   3.473  19.098  0.00  0.00    +0.000 NA
ATOM     12  C   UNL     1       1.433   3.881  19.152  0.00  0.00    +0.000 C 
ATOM     13  C   UNL     1       1.004   4.229  20.572  0.00  0.00    +0.000 C 
ATOM     14  C   UNL     1       1.317   3.092  21.534  0.00  0.00    +0.000 C 
ATOM     15  C   UNL     1       2.806   2.782  21.486  0.00  0.00    +0.000 C 
ATOM     16  C   UNL     1       3.246   2.419  20.074  0.00  0.00    +0.000 C 
ENDBRANCH   8  11
ENDBRANCH   5   8
ENDBRANCH   1   2
BRANCH   1  17
ATOM     17  C   UNL     1       8.231   7.858  18.375  0.00  0.00    +0.000 C 
BRANCH  17  19
ATOM     18  N   UNL     1       9.416   9.660  19.494  0.00  0.00    +0.000 N 
ATOM     19  C   UNL     1       8.559   9.344  18.455  0.00  0.00    +0.000 C 
ATOM     20  O   UNL     1       8.057  10.124  17.650  0.00  0.00    +0.000 OA
ATOM     21  H   UNL     1       9.742   8.868  20.040  0.00  0.00    +0.000 HD
BRANCH  18  26
ATOM     22  C   UNL     1       9.478  12.884  21.311  0.00  0.00    +0.000 A 
ATOM     23  C   UNL     1      10.574  13.521  20.719  0.00  0.00    +0.000 A 
ATOM     24  C   UNL     1      11.300  12.871  19.722  0.00  0.00    +0.000 A 
ATOM     25  C   UNL     1      10.937  11.591  19.312  0.00  0.00    +0.000 A 
ATOM     26  C   UNL     1       9.843  10.942  19.888  0.00  0.00    +0.000 A 
ATOM     27  C   UNL     1       9.118  11.593  20.892  0.00  0.00    +0.000 A 
BRANCH  22  29
ATOM     28  C   UNL     1       9.193  14.813  23.002  0.00  0.00    +0.000 C 
ATOM     29  C   UNL     1       8.667  13.547  22.375  0.00  0.00    +0.000 C 
ATOM     30  O   UNL     1       7.589  13.064  22.713  0.00  0.00    +0.000 OA
ENDBRANCH  22  29
ENDBRANCH  18  26
ENDBRANCH  17  19
ENDBRANCH   1  17
TORSDOF 7
ENDMDL
MODEL 3
REMARK VINA RESULT:      -7.8      3.432      9.880
REMARK  Name = 
REMARK  8 active torsions:
REMARK  status: ('A' for Active; 'I' for Inactive)
REMARK    1  A    between atoms: C_1  and  C_2
REMARK    2  A    between atoms: C_2  and  C_4
REMARK    3  A    between atoms: C_8  and  N_9
REMARK    4  A    between atoms: C_10  and  C_12
REMARK    5  A    between atoms: C_12  and  O_13
REMARK    6  A    between atoms: O_13  and  C_14
REMARK    7  A    between atoms: C_17  and  S_18
REMARK    8  A    between atoms: S_18  and  N_21
REMARK                            x       y       z     vdW  Elec       q    Type
REMARK                         _______ _______ _______ _____ _____    ______ ____
ROOT
ATOM      1  O   UNL     1       1.385   9.467  20.244  0.00  0.00    +0.000 OA
ENDROOT
BRANCH   1   2
ATOM      2  C   UNL     1       1.802   8.255  19.769  0.00  0.00    +0.000 A 
ATOM      3  C   UNL     1       2.297   8.040  18.481  0.00  0.00    +0.000 A 
ATOM      4  C   UNL     1       2.684   6.759  18.089  0.00  0.00    +0.000 A 
ATOM      5  C   UNL     1       2.615   5.706  19.004  0.00  0.00    +0.000 A 
ATOM      6  C   UNL     1       2.103   5.910  20.289  0.00  0.00    +0.000 A 
ATOM      7  C   UNL     1       1.713   7.194  20.673  0.00  0.00    +0.000 A 
BRANCH   5   8
ATOM      8  S   UNL     1       3.188   4.088  18.513  0.00  0.00    +0.000 S 
ATOM      9  O   UNL     1       3.005   3.204  19.645  0.00  0.00    +0.000 OA
ATOM     10  O   UNL     1       2.591   3.797  17.227  0.00  0.00    +0.000 OA
BRANCH   8  11
ATOM     11  N   UNL     1       4.875   4.339  18.281  0.00  0.00    +0.000 NA
ATOM     12  C   UNL     1       5.295   4.485  16.861  0.00  0.00    +0.000 C 
ATOM     13  C   UNL     1       6.812   4.541  16.728  0.00  0.00    +0.000 C 
ATOM     14  C   UNL     1       7.400   5.627  17.618  0.00  0.00    +0.000 C 
ATOM     15  C   UNL     1       6.999   5.371  19.063  0.00  0.00    +0.000 C 
ATOM     16  C   UNL     1       5.484   5.325  19.213  0.00  0.00    +0.000 C 
ENDBRANCH   8  11
ENDBRANCH   5   8
ENDBRANCH   1   2
BRANCH   1  17
ATOM     17  C   UNL     1      -0.026   9.577  20.424  0.00  0.00    +0.000 C 
BRANCH  17  19
ATOM     18  N   UNL     1      -1.859   9.867  18.855  0.00  0.00    +0.000 N 
ATOM     19  C   UNL     1      -0.667  10.399  19.313  0.00  0.00    +0.000 C 
ATOM     20  O   UNL     1      -0.108  11.414  18.905  0.00  0.00    +0.000 OA
ATOM     21  H   UNL     1      -2.169   9.028  19.337  0.00  0.00    +0.000 HD
BRANCH  18  26
ATOM     22  C   UNL     1      -4.745  11.346  17.070  0.00  0.00    +0.000 A 
ATOM     23  C   UNL     1      -4.329  11.256  15.737  0.00  0.00    +0.000 A 
ATOM     24  C   UNL     1      -3.082  10.713  15.435  0.00  0.00    +0.000 A 
ATOM     25  C   UNL     1      -2.248  10.259  16.454  0.00  0.00    +0.000 A 
ATOM     26  C   UNL     1      -2.649  10.335  17.789  0.00  0.00    +0.000 A 
ATOM     27  C   UNL     1      -3.899  10.885  18.093  0.00  0.00    +0.000 A 
BRANCH  22  29
ATOM     28  C   UNL     1      -6.415  13.313  17.000  0.00  0.00    +0.000 C 
ATOM     29  C   UNL     1      -6.077  11.910  17.439  0.00  0.00    +0.000 C 
ATOM     30  O   UNL     1      -6.875  11.229  18.079  0.00  0.00    +0.000 OA
ENDBRANCH  22  29
ENDBRANCH  18  26
ENDBRANCH  17  19
ENDBRANCH   1  17
TORSDOF 7
ENDMDL
MODEL 4
REMARK VINA RESULT:      -7.8      7.139      8.542
REMARK  Name = 
REMARK  8 active torsions:
REMARK  status: ('A' for Active; 'I' for Inactive)
REMARK    1  A    between atoms: C_1  and  C_2
REMARK    2  A    between atoms: C_2  and  C_4
REMARK    3  A    between atoms: C_8  and  N_9
REMARK    4  A    between atoms: C_10  and  C_12
REMARK    5  A    between atoms: C_12  and  O_13
REMARK    6  A    between atoms: O_13  and  C_14
REMARK    7  A    between atoms: C_17  and  S_18
REMARK    8  A    between atoms: S_18  and  N_21
REMARK                            x       y       z     vdW  Elec       q    Type
REMARK                         _______ _______ _______ _____ _____    ______ ____
ROOT
ATOM      1  O   UNL     1       9.039   9.493  18.978  0.00  0.00    +0.000 OA
ENDROOT
BRANCH   1   2
ATOM      2  C   UNL     1       9.656  10.711  18.901  0.00  0.00    +0.000 A 
ATOM      3  C   UNL     1      10.289  11.204  17.758  0.00  0.00    +0.000 A 
ATOM      4  C   UNL     1      10.903  12.455  17.787  0.00  0.00    +0.000 A 
ATOM      5  C   UNL     1      10.841  13.228  18.949  0.00  0.00    +0.000 A 
ATOM      6  C   UNL     1      10.225  12.734  20.103  0.00  0.00    +0.000 A 
ATOM      7  C   UNL     1       9.617  11.478  20.068  0.00  0.00    +0.000 A 
BRANCH   5   8
ATOM      8  S   UNL     1      11.563  14.861  18.947  0.00  0.00    +0.000 S 
ATOM      9  O   UNL     1      12.331  14.994  20.168  0.00  0.00    +0.000 OA
ATOM     10  O   UNL     1      12.173  15.056  17.649  0.00  0.00    +0.000 OA
BRANCH   8  11
ATOM     11  N   UNL     1      10.182  15.884  19.055  0.00  0.00    +0.000 NA
ATOM     12  C   UNL     1      10.482  17.302  19.396  0.00  0.00    +0.000 C 
ATOM     13  C   UNL     1       9.207  18.102  19.631  0.00  0.00    +0.000 C 
ATOM     14  C   UNL     1       8.258  17.982  18.447  0.00  0.00    +0.000 C 
ATOM     15  C   UNL     1       7.931  16.516  18.206  0.00  0.00    +0.000 C 
ATOM     16  C   UNL     1       9.197  15.705  17.956  0.00  0.00    +0.000 C 
ENDBRANCH   8  11
ENDBRANCH   5   8
ENDBRANCH   1   2
BRANCH   1  17
ATOM     17  C   UNL     1       8.176   9.198  17.881  0.00  0.00    +0.000 C 
BRANCH  17  19
ATOM     18  N   UNL     1       6.865   7.419  16.872  0.00  0.00    +0.000 N 
ATOM     19  C   UNL     1       7.771   7.730  17.870  0.00  0.00    +0.000 C 
ATOM     20  O   UNL     1       8.234   6.963  18.710  0.00  0.00    +0.000 OA
ATOM     21  H   UNL     1       6.617   8.191  16.259  0.00  0.00    +0.000 HD
BRANCH  18  26
ATOM     22  C   UNL     1       4.308   4.749  17.057  0.00  0.00    +0.000 A 
ATOM     23  C   UNL     1       4.906   3.732  16.305  0.00  0.00    +0.000 A 
ATOM     24  C   UNL     1       6.156   3.941  15.725  0.00  0.00    +0.000 A 
ATOM     25  C   UNL     1       6.813   5.157  15.894  0.00  0.00    +0.000 A 
ATOM     26  C   UNL     1       6.234   6.182  16.647  0.00  0.00    +0.000 A 
ATOM     27  C   UNL     1       4.976   5.973  17.224  0.00  0.00    +0.000 A 
BRANCH  22  29
ATOM     28  C   UNL     1       2.530   3.169  18.060  0.00  0.00    +0.000 C 
ATOM     29  C   UNL     1       2.975   4.565  17.704  0.00  0.00    +0.000 C 
ATOM     30  O   UNL     1       2.271   5.543  17.945  0.00  0.00    +0.000 OA
ENDBRANCH  22  29
ENDBRANCH  18  26
ENDBRANCH  17  19
ENDBRANCH   1  17
TORSDOF 7
ENDMDL
MODEL 5
REMARK VINA RESULT:      -7.7      3.230      9.860
REMARK  Name = 
REMARK  8 active torsions:
REMARK  status: ('A' for Active; 'I' for Inactive)
REMARK    1  A    between atoms: C_1  and  C_2
REMARK    2  A    between atoms: C_2  and  C_4
REMARK    3  A    between atoms: C_8  and  N_9
REMARK    4  A    between atoms: C_10  and  C_12
REMARK    5  A    between atoms: C_12  and  O_13
REMARK    6  A    between atoms: O_13  and  C_14
REMARK    7  A    between atoms: C_17  and  S_18
REMARK    8  A    between atoms: S_18  and  N_21
REMARK                            x       y       z     vdW  Elec       q    Type
REMARK                         _______ _______ _______ _____ _____    ______ ____
ROOT
ATOM      1  O   UNL     1       1.654   9.492  19.579  0.00  0.00    +0.000 OA
ENDROOT
BRANCH   1   2
ATOM      2  C   UNL     1       1.964   8.177  19.367  0.00  0.00    +0.000 A 
ATOM      3  C   UNL     1       1.925   7.188  20.351  0.00  0.00    +0.000 A 
ATOM      4  C   UNL     1       2.275   5.876  20.036  0.00  0.00    +0.000 A 
ATOM      5  C   UNL     1       2.620   5.551  18.722  0.00  0.00    +0.000 A 
ATOM      6  C   UNL     1       2.680   6.539  17.734  0.00  0.00    +0.000 A 
ATOM      7  C   UNL     1       2.332   7.851  18.059  0.00  0.00    +0.000 A 
BRANCH   5   8
ATOM      8  S   UNL     1       2.989   3.852  18.314  0.00  0.00    +0.000 S 
ATOM      9  O   UNL     1       2.992   3.103  19.554  0.00  0.00    +0.000 OA
ATOM     10  O   UNL     1       2.127   3.481  17.213  0.00  0.00    +0.000 OA
BRANCH   8  11
ATOM     11  N   UNL     1       4.605   3.947  17.728  0.00  0.00    +0.000 NA
ATOM     12  C   UNL     1       4.724   4.186  16.264  0.00  0.00    +0.000 C 
ATOM     13  C   UNL     1       6.172   4.095  15.798  0.00  0.00    +0.000 C 
ATOM     14  C   UNL     1       7.067   5.022  16.608  0.00  0.00    +0.000 C 
ATOM     15  C   UNL     1       6.958   4.671  18.084  0.00  0.00    +0.000 C 
ATOM     16  C   UNL     1       5.517   4.769  18.567  0.00  0.00    +0.000 C 
ENDBRANCH   8  11
ENDBRANCH   5   8
ENDBRANCH   1   2
BRANCH   1  17
ATOM     17  C   UNL     1       0.360   9.710  20.136  0.00  0.00    +0.000 C 
BRANCH  17  19
ATOM     18  N   UNL     1      -1.534   9.845  18.620  0.00  0.00    +0.000 N 
ATOM     19  C   UNL     1      -0.509  10.557  19.215  0.00  0.00    +0.000 C 
ATOM     20  O   UNL     1      -0.247  11.747  19.054  0.00  0.00    +0.000 OA
ATOM     21  H   UNL     1      -1.599   8.870  18.898  0.00  0.00    +0.000 HD
BRANCH  18  26
ATOM     22  C   UNL     1      -4.682  11.173  17.194  0.00  0.00    +0.000 A 
ATOM     23  C   UNL     1      -4.379  11.211  15.829  0.00  0.00    +0.000 A 
ATOM     24  C   UNL     1      -3.122  10.806  15.385  0.00  0.00    +0.000 A 
ATOM     25  C   UNL     1      -2.166  10.361  16.294  0.00  0.00    +0.000 A 
ATOM     26  C   UNL     1      -2.452  10.310  17.660  0.00  0.00    +0.000 A 
ATOM     27  C   UNL     1      -3.713  10.723  18.106  0.00  0.00    +0.000 A 
BRANCH  22  29
ATOM     28  C   UNL     1      -6.599  12.900  17.249  0.00  0.00    +0.000 C 
ATOM     29  C   UNL     1      -6.019  11.588  17.713  0.00  0.00    +0.000 C 
ATOM     30  O   UNL     1      -6.626  10.859  18.494  0.00  0.00    +0.000 OA
ENDBRANCH  22  29
ENDBRANCH  18  26
ENDBRANCH  17  19
ENDBRANCH   1  17
TORSDOF 7
ENDMDL
MODEL 6
REMARK VINA RESULT:      -7.7      6.828      8.115
REMARK  Name = 
REMARK  8 active torsions:
REMARK  status: ('A' for Active; 'I' for Inactive)
REMARK    1  A    between atoms: C_1  and  C_2
REMARK    2  A    between atoms: C_2  and  C_4
REMARK    3  A    between atoms: C_8  and  N_9
REMARK    4  A    between atoms: C_10  and  C_12
REMARK    5  A    between atoms: C_12  and  O_13
REMARK    6  A    between atoms: O_13  and  C_14
REMARK    7  A    between atoms: C_17  and  S_18
REMARK    8  A    between atoms: S_18  and  N_21
REMARK                            x       y       z     vdW  Elec       q    Type
REMARK                         _______ _______ _______ _____ _____    ______ ____
ROOT
ATOM      1  O   UNL     1       8.984   9.310  18.916  0.00  0.00    +0.000 OA
ENDROOT
BRANCH   1   2
ATOM      2  C   UNL     1       9.435  10.599  18.969  0.00  0.00    +0.000 A 
ATOM      3  C   UNL     1      10.294  11.096  19.951  0.00  0.00    +0.000 A 
ATOM      4  C   UNL     1      10.685  12.434  19.924  0.00  0.00    +0.000 A 
ATOM      5  C   UNL     1      10.248  13.260  18.884  0.00  0.00    +0.000 A 
ATOM      6  C   UNL     1       9.373  12.775  17.908  0.00  0.00    +0.000 A 
ATOM      7  C   UNL     1       8.983  11.435  17.944  0.00  0.00    +0.000 A 
BRANCH   5   8
ATOM      8  S   UNL     1      10.820  14.949  18.818  0.00  0.00    +0.000 S 
ATOM      9  O   UNL     1      11.874  15.087  19.801  0.00  0.00    +0.000 OA
ATOM     10  O   UNL     1      11.044  15.269  17.424  0.00  0.00    +0.000 OA
BRANCH   8  11
ATOM     11  N   UNL     1       9.446  15.834  19.361  0.00  0.00    +0.000 NA
ATOM     12  C   UNL     1       9.553  16.362  20.748  0.00  0.00    +0.000 C 
ATOM     13  C   UNL     1       8.244  16.989  21.211  0.00  0.00    +0.000 C 
ATOM     14  C   UNL     1       7.765  18.047  20.227  0.00  0.00    +0.000 C 
ATOM     15  C   UNL     1       7.600  17.421  18.850  0.00  0.00    +0.000 C 
ATOM     16  C   UNL     1       8.906  16.801  18.369  0.00  0.00    +0.000 C 
ENDBRANCH   8  11
ENDBRANCH   5   8
ENDBRANCH   1   2
BRANCH   1  17
ATOM     17  C   UNL     1       8.027   9.061  17.889  0.00  0.00    +0.000 C 
BRANCH  17  19
ATOM     18  N   UNL     1       6.801   7.284  16.773  0.00  0.00    +0.000 N 
ATOM     19  C   UNL     1       7.653   7.586  17.820  0.00  0.00    +0.000 C 
ATOM     20  O   UNL     1       8.093   6.806  18.662  0.00  0.00    +0.000 OA
ATOM     21  H   UNL     1       6.566   8.067  16.170  0.00  0.00    +0.000 HD
BRANCH  18  26
ATOM     22  C   UNL     1       4.343   4.517  16.853  0.00  0.00    +0.000 A 
ATOM     23  C   UNL     1       4.956   3.571  16.024  0.00  0.00    +0.000 A 
ATOM     24  C   UNL     1       6.183   3.860  15.430  0.00  0.00    +0.000 A 
ATOM     25  C   UNL     1       6.802   5.086  15.658  0.00  0.00    +0.000 A 
ATOM     26  C   UNL     1       6.208   6.041  16.487  0.00  0.00    +0.000 A 
ATOM     27  C   UNL     1       4.973   5.752  17.079  0.00  0.00    +0.000 A 
BRANCH  22  29
ATOM     28  C   UNL     1       2.332   5.380  18.222  0.00  0.00    +0.000 C 
ATOM     29  C   UNL     1       3.035   4.246  17.518  0.00  0.00    +0.000 C 
ATOM     30  O   UNL     1       2.547   3.119  17.474  0.00  0.00    +0.000 OA
ENDBRANCH  22  29
ENDBRANCH  18  26
ENDBRANCH  17  19
ENDBRANCH   1  17
TORSDOF 7
ENDMDL
MODEL 7
REMARK VINA RESULT:      -7.7      3.453      9.970
REMARK  Name = 
REMARK  8 active torsions:
REMARK  status: ('A' for Active; 'I' for Inactive)
REMARK    1  A    between atoms: C_1  and  C_2
REMARK    2  A    between atoms: C_2  and  C_4
REMARK    3  A    between atoms: C_8  and  N_9
REMARK    4  A    between atoms: C_10  and  C_12
REMARK    5  A    between atoms: C_12  and  O_13
REMARK    6  A    between atoms: O_13  and  C_14
REMARK    7  A    between atoms: C_17  and  S_18
REMARK    8  A    between atoms: S_18  and  N_21
REMARK                            x       y       z     vdW  Elec       q    Type
REMARK                         _______ _______ _______ _____ _____    ______ ____
ROOT
ATOM      1  O   UNL     1       1.325   9.446  19.845  0.00  0.00    +0.000 OA
ENDROOT
BRANCH   1   2
ATOM      2  C   UNL     1       1.809   8.223  19.471  0.00  0.00    +0.000 A 
ATOM      3  C   UNL     1       2.341   7.934  18.213  0.00  0.00    +0.000 A 
ATOM      4  C   UNL     1       2.796   6.648  17.926  0.00  0.00    +0.000 A 
ATOM      5  C   UNL     1       2.759   5.666  18.919  0.00  0.00    +0.000 A 
ATOM      6  C   UNL     1       2.212   5.942  20.176  0.00  0.00    +0.000 A 
ATOM      7  C   UNL     1       1.754   7.231  20.453  0.00  0.00    +0.000 A 
BRANCH   5   8
ATOM      8  S   UNL     1       3.419   4.046  18.564  0.00  0.00    +0.000 S 
ATOM      9  O   UNL     1       3.191   3.222  19.733  0.00  0.00    +0.000 OA
ATOM     10  O   UNL     1       2.920   3.658  17.261  0.00  0.00    +0.000 OA
BRANCH   8  11
ATOM     11  N   UNL     1       5.108   4.347  18.428  0.00  0.00    +0.000 NA
ATOM     12  C   UNL     1       5.617   4.426  17.031  0.00  0.00    +0.000 C 
ATOM     13  C   UNL     1       7.137   4.532  16.994  0.00  0.00    +0.000 C 
ATOM     14  C   UNL     1       7.626   5.690  17.853  0.00  0.00    +0.000 C 
ATOM     15  C   UNL     1       7.138   5.503  19.282  0.00  0.00    +0.000 C 
ATOM     16  C   UNL     1       5.619   5.408  19.335  0.00  0.00    +0.000 C 
ENDBRANCH   8  11
ENDBRANCH   5   8
ENDBRANCH   1   2
BRANCH   1  17
ATOM     17  C   UNL     1       1.352  10.430  18.813  0.00  0.00    +0.000 C 
BRANCH  17  19
ATOM     18  N   UNL     1      -0.870  10.328  17.834  0.00  0.00    +0.000 N 
ATOM     19  C   UNL     1      -0.015  11.076  18.624  0.00  0.00    +0.000 C 
ATOM     20  O   UNL     1      -0.252  12.165  19.140  0.00  0.00    +0.000 OA
ATOM     21  H   UNL     1      -0.494   9.438  17.516  0.00  0.00    +0.000 HD
BRANCH  18  26
ATOM     22  C   UNL     1      -4.414  11.379  18.008  0.00  0.00    +0.000 A 
ATOM     23  C   UNL     1      -4.782  11.357  16.658  0.00  0.00    +0.000 A 
ATOM     24  C   UNL     1      -3.845  11.004  15.689  0.00  0.00    +0.000 A 
ATOM     25  C   UNL     1      -2.545  10.671  16.059  0.00  0.00    +0.000 A 
ATOM     26  C   UNL     1      -2.161  10.681  17.402  0.00  0.00    +0.000 A 
ATOM     27  C   UNL     1      -3.101  11.042  18.374  0.00  0.00    +0.000 A 
BRANCH  22  29
ATOM     28  C   UNL     1      -5.234  13.069  19.779  0.00  0.00    +0.000 C 
ATOM     29  C   UNL     1      -5.388  11.742  19.080  0.00  0.00    +0.000 C 
ATOM     30  O   UNL     1      -6.299  10.968  19.368  0.00  0.00    +0.000 OA
ENDBRANCH  22  29
ENDBRANCH  18  26
ENDBRANCH  17  19
ENDBRANCH   1  17
TORSDOF 7
ENDMDL
MODEL 8
REMARK VINA RESULT:      -7.7      3.280     10.075
REMARK  Name = 
REMARK  8 active torsions:
REMARK  status: ('A' for Active; 'I' for Inactive)
REMARK    1  A    between atoms: C_1  and  C_2
REMARK    2  A    between atoms: C_2  and  C_4
REMARK    3  A    between atoms: C_8  and  N_9
REMARK    4  A    between atoms: C_10  and  C_12
REMARK    5  A    between atoms: C_12  and  O_13
REMARK    6  A    between atoms: O_13  and  C_14
REMARK    7  A    between atoms: C_17  and  S_18
REMARK    8  A    between atoms: S_18  and  N_21
REMARK                            x       y       z     vdW  Elec       q    Type
REMARK                         _______ _______ _______ _____ _____    ______ ____
ROOT
ATOM      1  O   UNL     1       0.881   9.844  20.140  0.00  0.00    +0.000 OA
ENDROOT
BRANCH   1   2
ATOM      2  C   UNL     1       1.407   8.639  19.765  0.00  0.00    +0.000 A 
ATOM      3  C   UNL     1       2.005   8.389  18.529  0.00  0.00    +0.000 A 
ATOM      4  C   UNL     1       2.500   7.118  18.237  0.00  0.00    +0.000 A 
ATOM      5  C   UNL     1       2.433   6.113  19.205  0.00  0.00    +0.000 A 
ATOM      6  C   UNL     1       1.819   6.350  20.439  0.00  0.00    +0.000 A 
ATOM      7  C   UNL     1       1.323   7.624  20.722  0.00  0.00    +0.000 A 
BRANCH   5   8
ATOM      8  S   UNL     1       3.141   4.514  18.848  0.00  0.00    +0.000 S 
ATOM      9  O   UNL     1       3.345   3.841  20.114  0.00  0.00    +0.000 OA
ATOM     10  O   UNL     1       2.340   3.918  17.800  0.00  0.00    +0.000 OA
BRANCH   8  11
ATOM     11  N   UNL     1       4.679   4.920  18.190  0.00  0.00    +0.000 NA
ATOM     12  C   UNL     1       5.721   5.251  19.199  0.00  0.00    +0.000 C 
ATOM     13  C   UNL     1       7.000   5.754  18.539  0.00  0.00    +0.000 C 
ATOM     14  C   UNL     1       7.501   4.768  17.494  0.00  0.00    +0.000 C 
ATOM     15  C   UNL     1       6.417   4.537  16.452  0.00  0.00    +0.000 C 
ATOM     16  C   UNL     1       5.136   4.022  17.097  0.00  0.00    +0.000 C 
ENDBRANCH   8  11
ENDBRANCH   5   8
ENDBRANCH   1   2
BRANCH   1  17
ATOM     17  C   UNL     1       1.216  10.928  19.277  0.00  0.00    +0.000 C 
BRANCH  17  19
ATOM     18  N   UNL     1      -1.033  10.648  18.401  0.00  0.00    +0.000 N 
ATOM     19  C   UNL     1      -0.029  11.561  18.668  0.00  0.00    +0.000 C 
ATOM     20  O   UNL     1      -0.054  12.770  18.449  0.00  0.00    +0.000 OA
ATOM     21  H   UNL     1      -0.829   9.691  18.674  0.00  0.00    +0.000 HD
BRANCH  18  26
ATOM     22  C   UNL     1      -4.576  11.632  17.977  0.00  0.00    +0.000 A 
ATOM     23  C   UNL     1      -4.779  11.378  16.616  0.00  0.00    +0.000 A 
ATOM     24  C   UNL     1      -3.732  10.889  15.837  0.00  0.00    +0.000 A 
ATOM     25  C   UNL     1      -2.484  10.652  16.409  0.00  0.00    +0.000 A 
ATOM     26  C   UNL     1      -2.264  10.895  17.766  0.00  0.00    +0.000 A 
ATOM     27  C   UNL     1      -3.315  11.390  18.547  0.00  0.00    +0.000 A 
BRANCH  22  29
ATOM     28  C   UNL     1      -5.371  13.277  19.800  0.00  0.00    +0.000 C 
ATOM     29  C   UNL     1      -5.672  12.146  18.851  0.00  0.00    +0.000 C 
ATOM     30  O   UNL     1      -6.796  11.652  18.777  0.00  0.00    +0.000 OA
ENDBRANCH  22  29
ENDBRANCH  18  26
ENDBRANCH  17  19
ENDBRANCH   1  17
TORSDOF 7
ENDMDL
MODEL 9
REMARK VINA RESULT:      -7.7      3.764     10.083
REMARK  Name = 
REMARK  8 active torsions:
REMARK  status: ('A' for Active; 'I' for Inactive)
REMARK    1  A    between atoms: C_1  and  C_2
REMARK    2  A    between atoms: C_2  and  C_4
REMARK    3  A    between atoms: C_8  and  N_9
REMARK    4  A    between atoms: C_10  and  C_12
REMARK    5  A    between atoms: C_12  and  O_13
REMARK    6  A    between atoms: O_13  and  C_14
REMARK    7  A    between atoms: C_17  and  S_18
REMARK    8  A    between atoms: S_18  and  N_21
REMARK                            x       y       z     vdW  Elec       q    Type
REMARK                         _______ _______ _______ _____ _____    ______ ____
ROOT
ATOM      1  O   UNL     1       0.544   9.614  20.066  0.00  0.00    +0.000 OA
ENDROOT
BRANCH   1   2
ATOM      2  C   UNL     1       1.449   8.769  19.486  0.00  0.00    +0.000 A 
ATOM      3  C   UNL     1       2.035   8.976  18.236  0.00  0.00    +0.000 A 
ATOM      4  C   UNL     1       2.939   8.045  17.726  0.00  0.00    +0.000 A 
ATOM      5  C   UNL     1       3.287   6.930  18.493  0.00  0.00    +0.000 A 
ATOM      6  C   UNL     1       2.691   6.706  19.738  0.00  0.00    +0.000 A 
ATOM      7  C   UNL     1       1.784   7.641  20.239  0.00  0.00    +0.000 A 
BRANCH   5   8
ATOM      8  S   UNL     1       4.505   5.787  17.863  0.00  0.00    +0.000 S 
ATOM      9  O   UNL     1       4.480   5.885  16.418  0.00  0.00    +0.000 OA
ATOM     10  O   UNL     1       5.724   6.007  18.612  0.00  0.00    +0.000 OA
BRANCH   8  11
ATOM     11  N   UNL     1       3.859   4.258  18.319  0.00  0.00    +0.000 NA
ATOM     12  C   UNL     1       3.203   3.504  17.216  0.00  0.00    +0.000 C 
ATOM     13  C   UNL     1       2.518   2.243  17.729  0.00  0.00    +0.000 C 
ATOM     14  C   UNL     1       3.487   1.378  18.522  0.00  0.00    +0.000 C 
ATOM     15  C   UNL     1       4.058   2.185  19.679  0.00  0.00    +0.000 C 
ATOM     16  C   UNL     1       4.757   3.443  19.179  0.00  0.00    +0.000 C 
ENDBRANCH   8  11
ENDBRANCH   5   8
ENDBRANCH   1   2
BRANCH   1  17
ATOM     17  C   UNL     1       0.777  10.997  19.805  0.00  0.00    +0.000 C 
BRANCH  17  19
ATOM     18  N   UNL     1      -1.282  10.676  18.555  0.00  0.00    +0.000 N 
ATOM     19  C   UNL     1      -0.272  11.570  18.861  0.00  0.00    +0.000 C 
ATOM     20  O   UNL     1      -0.152  12.719  18.442  0.00  0.00    +0.000 OA
ATOM     21  H   UNL     1      -1.216   9.776  19.021  0.00  0.00    +0.000 HD
BRANCH  18  26
ATOM     22  C   UNL     1      -4.635  11.618  17.302  0.00  0.00    +0.000 A 
ATOM     23  C   UNL     1      -4.549  11.244  15.956  0.00  0.00    +0.000 A 
ATOM     24  C   UNL     1      -3.370  10.689  15.464  0.00  0.00    +0.000 A 
ATOM     25  C   UNL     1      -2.277  10.504  16.307  0.00  0.00    +0.000 A 
ATOM     26  C   UNL     1      -2.346  10.866  17.654  0.00  0.00    +0.000 A 
ATOM     27  C   UNL     1      -3.529  11.428  18.146  0.00  0.00    +0.000 A 
BRANCH  22  29
ATOM     28  C   UNL     1      -6.535  13.359  17.153  0.00  0.00    +0.000 C 
ATOM     29  C   UNL     1      -5.882  12.207  17.874  0.00  0.00    +0.000 C 
ATOM     30  O   UNL     1      -6.361  11.743  18.906  0.00  0.00    +0.000 OA
ENDBRANCH  22  29
ENDBRANCH  18  26
ENDBRANCH  17  19
ENDBRANCH   1  17
TORSDOF 7
ENDMDL
