MODEL 1
REMARK VINA RESULT:      -8.1      0.000      0.000
REMARK  Name = 
REMARK  12 active torsions:
REMARK  status: ('A' for Active; 'I' for Inactive)
REMARK    1  A    between atoms: C_1  and  C_2
REMARK    2  A    between atoms: C_2  and  N_3
REMARK    3  A    between atoms: N_3  and  C_4
REMARK    4  A    between atoms: N_3  and  C_6
REMARK    5  A    between atoms: C_4  and  C_5
REMARK    6  A    between atoms: C_6  and  C_7
REMARK    7  A    between atoms: C_7  and  C_8
REMARK    8  A    between atoms: C_8  and  C_9
REMARK    9  A    between atoms: C_9  and  C_10
REMARK   10  A    between atoms: C_9  and  N_11
REMARK   11  A    between atoms: N_11  and  C_12
REMARK   12  A    between atoms: C_14  and  C_15
REMARK                            x       y       z     vdW  Elec       q    Type
REMARK                         _______ _______ _______ _____ _____    ______ ____
ROOT
ATOM      1  C   UNL     1       5.559   6.245  17.151  0.00  0.00    +0.000 A 
ATOM      2  C   UNL     1       4.485   5.820  17.930  0.00  0.00    +0.000 A 
ATOM      3  C   UNL     1       3.768   4.672  17.605  0.00  0.00    +0.000 A 
ATOM      4  N   UNL     1       4.014   3.982  16.474  0.00  0.00    +0.000 NA
ATOM      5  C   UNL     1       5.031   4.369  15.694  0.00  0.00    +0.000 A 
ATOM      6  C   UNL     1       5.240   3.651  14.528  0.00  0.00    +0.000 A 
ATOM      7  C   UNL     1       6.299   3.947  13.675  0.00  0.00    +0.000 A 
ATOM      8 CL   UNL     1       6.500   3.056  12.217  0.00  0.00    +0.000 Cl
ATOM      9  C   UNL     1       7.189   4.962  13.993  0.00  0.00    +0.000 A 
ATOM     10  C   UNL     1       6.976   5.723  15.143  0.00  0.00    +0.000 A 
ATOM     11  C   UNL     1       5.880   5.463  16.002  0.00  0.00    +0.000 A 
ENDROOT
BRANCH   3  12
ATOM     12  C   UNL     1       2.716   4.136  18.495  0.00  0.00    +0.000 A 
ATOM     13  C   UNL     1       1.990   2.979  18.173  0.00  0.00    +0.000 A 
ATOM     14  C   UNL     1       0.979   2.498  19.015  0.00  0.00    +0.000 A 
ATOM     15  C   UNL     1       0.681   3.158  20.203  0.00  0.00    +0.000 A 
ATOM     16  C   UNL     1       1.408   4.284  20.562  0.00  0.00    +0.000 A 
ATOM     17  C   UNL     1       2.412   4.763  19.717  0.00  0.00    +0.000 A 
ENDBRANCH   3  12
BRANCH   1  18
ATOM     18  N   UNL     1       6.223   7.460  17.407  0.00  0.00    +0.000 N 
ATOM     19  H   UNL     1       5.818   8.247  16.908  0.00  0.00    +0.000 HD
BRANCH  18  20
ATOM     20  C   UNL     1       7.686   7.529  17.547  0.00  0.00    +0.000 C 
ATOM     21  C   UNL     1       8.095   6.765  18.811  0.00  0.00    +0.000 C 
BRANCH  20  22
ATOM     22  C   UNL     1       8.137   8.999  17.589  0.00  0.00    +0.000 C 
BRANCH  22  23
ATOM     23  C   UNL     1       8.807   9.421  18.902  0.00  0.00    +0.000 C 
BRANCH  23  24
ATOM     24  C   UNL     1       9.392  10.847  18.908  0.00  0.00    +0.000 C 
BRANCH  24  25
ATOM     25  N   UNL     1      10.366  11.117  19.981  0.00  0.00    +0.000 NA
BRANCH  25  27
ATOM     26  C   UNL     1      11.667  11.872  17.942  0.00  0.00    +0.000 C 
ATOM     27  C   UNL     1      11.598  11.735  19.460  0.00  0.00    +0.000 C 
ENDBRANCH  25  27
BRANCH  25  28
ATOM     28  C   UNL     1       9.747  11.868  21.089  0.00  0.00    +0.000 C 
ATOM     29  C   UNL     1       9.989  13.371  21.150  0.00  0.00    +0.000 C 
ENDBRANCH  25  28
ENDBRANCH  24  25
ENDBRANCH  23  24
ENDBRANCH  22  23
ENDBRANCH  20  22
ENDBRANCH  18  20
ENDBRANCH   1  18
TORSDOF 9
ENDMDL
MODEL 2
REMARK VINA RESULT:      -8.0      0.939      1.237
REMARK  Name = 
REMARK  12 active torsions:
REMARK  status: ('A' for Active; 'I' for Inactive)
REMARK    1  A    between atoms: C_1  and  C_2
REMARK    2  A    between atoms: C_2  and  N_3
REMARK    3  A    between atoms: N_3  and  C_4
REMARK    4  A    between atoms: N_3  and  C_6
REMARK    5  A    between atoms: C_4  and  C_5
REMARK    6  A    between atoms: C_6  and  C_7
REMARK    7  A    between atoms: C_7  and  C_8
REMARK    8  A    between atoms: C_8  and  C_9
REMARK    9  A    between atoms: C_9  and  C_10
REMARK   10  A    between atoms: C_9  and  N_11
REMARK   11  A    between atoms: N_11  and  C_12
REMARK   12  A    between atoms: C_14  and  C_15
REMARK                            x       y       z     vdW  Elec       q    Type
REMARK                         _______ _______ _______ _____ _____    ______ ____
ROOT
ATOM      1  C   UNL     1       5.863   6.035  17.323  0.00  0.00    +0.000 A 
ATOM      2  C   UNL     1       4.765   5.703  18.113  0.00  0.00    +0.000 A 
ATOM      3  C   UNL     1       3.882   4.694  17.736  0.00  0.00    +0.000 A 
ATOM      4  N   UNL     1       3.993   4.068  16.547  0.00  0.00    +0.000 NA
ATOM      5  C   UNL     1       5.029   4.370  15.755  0.00  0.00    +0.000 A 
ATOM      6  C   UNL     1       5.097   3.724  14.532  0.00  0.00    +0.000 A 
ATOM      7  C   UNL     1       6.159   3.937  13.660  0.00  0.00    +0.000 A 
ATOM      8 CL   UNL     1       6.185   3.144  12.133  0.00  0.00    +0.000 Cl
ATOM      9  C   UNL     1       7.193   4.790  14.013  0.00  0.00    +0.000 A 
ATOM     10  C   UNL     1       7.127   5.481  15.224  0.00  0.00    +0.000 A 
ATOM     11  C   UNL     1       6.033   5.308  16.107  0.00  0.00    +0.000 A 
ENDROOT
BRANCH   3  12
ATOM     12  C   UNL     1       2.795   4.241  18.627  0.00  0.00    +0.000 A 
ATOM     13  C   UNL     1       1.960   3.164  18.293  0.00  0.00    +0.000 A 
ATOM     14  C   UNL     1       0.917   2.762  19.137  0.00  0.00    +0.000 A 
ATOM     15  C   UNL     1       0.694   3.423  20.341  0.00  0.00    +0.000 A 
ATOM     16  C   UNL     1       1.527   4.469  20.713  0.00  0.00    +0.000 A 
ATOM     17  C   UNL     1       2.563   4.868  19.865  0.00  0.00    +0.000 A 
ENDBRANCH   3  12
BRANCH   1  18
ATOM     18  N   UNL     1       6.700   7.121  17.639  0.00  0.00    +0.000 N 
ATOM     19  H   UNL     1       6.671   7.860  16.943  0.00  0.00    +0.000 HD
BRANCH  18  20
ATOM     20  C   UNL     1       8.023   6.928  18.252  0.00  0.00    +0.000 C 
ATOM     21  C   UNL     1       7.918   5.826  19.311  0.00  0.00    +0.000 C 
BRANCH  20  22
ATOM     22  C   UNL     1       8.521   8.255  18.849  0.00  0.00    +0.000 C 
BRANCH  22  23
ATOM     23  C   UNL     1       8.353   9.470  17.928  0.00  0.00    +0.000 C 
BRANCH  23  24
ATOM     24  C   UNL     1       8.692  10.829  18.570  0.00  0.00    +0.000 C 
BRANCH  24  25
ATOM     25  N   UNL     1       9.933  11.456  18.082  0.00  0.00    +0.000 NA
BRANCH  25  27
ATOM     26  C   UNL     1       8.279  13.336  17.695  0.00  0.00    +0.000 C 
ATOM     27  C   UNL     1       9.678  12.771  17.468  0.00  0.00    +0.000 C 
ENDBRANCH  25  27
BRANCH  25  28
ATOM     28  C   UNL     1      10.969  11.482  19.131  0.00  0.00    +0.000 C 
ATOM     29  C   UNL     1      10.516  11.697  20.570  0.00  0.00    +0.000 C 
ENDBRANCH  25  28
ENDBRANCH  24  25
ENDBRANCH  23  24
ENDBRANCH  22  23
ENDBRANCH  20  22
ENDBRANCH  18  20
ENDBRANCH   1  18
TORSDOF 9
ENDMDL
MODEL 3
REMARK VINA RESULT:      -8.0      0.804      1.612
REMARK  Name = 
REMARK  12 active torsions:
REMARK  status: ('A' for Active; 'I' for Inactive)
REMARK    1  A    between atoms: C_1  and  C_2
REMARK    2  A    between atoms: C_2  and  N_3
REMARK    3  A    between atoms: N_3  and  C_4
REMARK    4  A    between atoms: N_3  and  C_6
REMARK    5  A    between atoms: C_4  and  C_5
REMARK    6  A    between atoms: C_6  and  C_7
REMARK    7  A    between atoms: C_7  and  C_8
REMARK    8  A    between atoms: C_8  and  C_9
REMARK    9  A    between atoms: C_9  and  C_10
REMARK   10  A    between atoms: C_9  and  N_11
REMARK   11  A    between atoms: N_11  and  C_12
REMARK   12  A    between atoms: C_14  and  C_15
REMARK                            x       y       z     vdW  Elec       q    Type
REMARK                         _______ _______ _______ _____ _____    ______ ____
ROOT
ATOM      1  C   UNL     1       5.631   6.384  17.000  0.00  0.00    +0.000 A 
ATOM      2  C   UNL     1       4.598   5.990  17.848  0.00  0.00    +0.000 A 
ATOM      3  C   UNL     1       3.886   4.815  17.623  0.00  0.00    +0.000 A 
ATOM      4  N   UNL     1       4.096   4.063  16.524  0.00  0.00    +0.000 NA
ATOM      5  C   UNL     1       5.072   4.417  15.679  0.00  0.00    +0.000 A 
ATOM      6  C   UNL     1       5.242   3.634  14.549  0.00  0.00    +0.000 A 
ATOM      7  C   UNL     1       6.258   3.894  13.635  0.00  0.00    +0.000 A 
ATOM      8 CL   UNL     1       6.411   2.921  12.225  0.00  0.00    +0.000 Cl
ATOM      9  C   UNL     1       7.144   4.938  13.854  0.00  0.00    +0.000 A 
ATOM     10  C   UNL     1       6.968   5.763  14.966  0.00  0.00    +0.000 A 
ATOM     11  C   UNL     1       5.915   5.539  15.885  0.00  0.00    +0.000 A 
ENDROOT
BRANCH   3  12
ATOM     12  C   UNL     1       2.883   4.318  18.588  0.00  0.00    +0.000 A 
ATOM     13  C   UNL     1       2.373   5.128  19.613  0.00  0.00    +0.000 A 
ATOM     14  C   UNL     1       1.442   4.634  20.535  0.00  0.00    +0.000 A 
ATOM     15  C   UNL     1       0.992   3.321  20.443  0.00  0.00    +0.000 A 
ATOM     16  C   UNL     1       1.454   2.508  19.418  0.00  0.00    +0.000 A 
ATOM     17  C   UNL     1       2.386   3.005  18.503  0.00  0.00    +0.000 A 
ENDBRANCH   3  12
BRANCH   1  18
ATOM     18  N   UNL     1       6.286   7.620  17.155  0.00  0.00    +0.000 N 
ATOM     19  H   UNL     1       5.985   8.316  16.479  0.00  0.00    +0.000 HD
BRANCH  18  20
ATOM     20  C   UNL     1       7.712   7.704  17.506  0.00  0.00    +0.000 C 
ATOM     21  C   UNL     1       7.972   6.809  18.722  0.00  0.00    +0.000 C 
BRANCH  20  22
ATOM     22  C   UNL     1       8.099   9.168  17.772  0.00  0.00    +0.000 C 
BRANCH  22  23
ATOM     23  C   UNL     1       8.960   9.381  19.023  0.00  0.00    +0.000 C 
BRANCH  23  24
ATOM     24  C   UNL     1       9.821  10.659  19.014  0.00  0.00    +0.000 C 
BRANCH  24  25
ATOM     25  N   UNL     1       9.065  11.918  18.881  0.00  0.00    +0.000 NA
BRANCH  25  27
ATOM     26  C   UNL     1      10.139  12.229  21.155  0.00  0.00    +0.000 C 
ATOM     27  C   UNL     1       9.228  12.782  20.064  0.00  0.00    +0.000 C 
ENDBRANCH  25  27
BRANCH  25  28
ATOM     28  C   UNL     1       9.371  12.593  17.606  0.00  0.00    +0.000 C 
ATOM     29  C   UNL     1      10.334  13.774  17.641  0.00  0.00    +0.000 C 
ENDBRANCH  25  28
ENDBRANCH  24  25
ENDBRANCH  23  24
ENDBRANCH  22  23
ENDBRANCH  20  22
ENDBRANCH  18  20
ENDBRANCH   1  18
TORSDOF 9
ENDMDL
MODEL 4
REMARK VINA RESULT:      -7.9      0.572      1.390
REMARK  Name = 
REMARK  12 active torsions:
REMARK  status: ('A' for Active; 'I' for Inactive)
REMARK    1  A    between atoms: C_1  and  C_2
REMARK    2  A    between atoms: C_2  and  N_3
REMARK    3  A    between atoms: N_3  and  C_4
REMARK    4  A    between atoms: N_3  and  C_6
REMARK    5  A    between atoms: C_4  and  C_5
REMARK    6  A    between atoms: C_6  and  C_7
REMARK    7  A    between atoms: C_7  and  C_8
REMARK    8  A    between atoms: C_8  and  C_9
REMARK    9  A    between atoms: C_9  and  C_10
REMARK   10  A    between atoms: C_9  and  N_11
REMARK   11  A    between atoms: N_11  and  C_12
REMARK   12  A    between atoms: C_14  and  C_15
REMARK                            x       y       z     vdW  Elec       q    Type
REMARK                         _______ _______ _______ _____ _____    ______ ____
ROOT
ATOM      1  C   UNL     1       5.570   6.307  17.211  0.00  0.00    +0.000 A 
ATOM      2  C   UNL     1       4.506   5.873  17.999  0.00  0.00    +0.000 A 
ATOM      3  C   UNL     1       3.796   4.718  17.681  0.00  0.00    +0.000 A 
ATOM      4  N   UNL     1       4.038   4.031  16.547  0.00  0.00    +0.000 NA
ATOM      5  C   UNL     1       5.044   4.427  15.757  0.00  0.00    +0.000 A 
ATOM      6  C   UNL     1       5.248   3.711  14.589  0.00  0.00    +0.000 A 
ATOM      7  C   UNL     1       6.296   4.016  13.727  0.00  0.00    +0.000 A 
ATOM      8 CL   UNL     1       6.491   3.128  12.267  0.00  0.00    +0.000 Cl
ATOM      9  C   UNL     1       7.180   5.039  14.037  0.00  0.00    +0.000 A 
ATOM     10  C   UNL     1       6.972   5.798  15.189  0.00  0.00    +0.000 A 
ATOM     11  C   UNL     1       5.886   5.528  16.058  0.00  0.00    +0.000 A 
ENDROOT
BRANCH   3  12
ATOM     12  C   UNL     1       2.758   4.173  18.580  0.00  0.00    +0.000 A 
ATOM     13  C   UNL     1       1.949   3.089  18.208  0.00  0.00    +0.000 A 
ATOM     14  C   UNL     1       0.951   2.600  19.062  0.00  0.00    +0.000 A 
ATOM     15  C   UNL     1       0.752   3.178  20.312  0.00  0.00    +0.000 A 
ATOM     16  C   UNL     1       1.561   4.229  20.718  0.00  0.00    +0.000 A 
ATOM     17  C   UNL     1       2.551   4.716  19.861  0.00  0.00    +0.000 A 
ENDBRANCH   3  12
BRANCH   1  18
ATOM     18  N   UNL     1       6.226   7.527  17.461  0.00  0.00    +0.000 N 
ATOM     19  H   UNL     1       5.799   8.314  16.980  0.00  0.00    +0.000 HD
BRANCH  18  20
ATOM     20  C   UNL     1       7.691   7.613  17.564  0.00  0.00    +0.000 C 
ATOM     21  C   UNL     1       8.132   6.926  18.860  0.00  0.00    +0.000 C 
BRANCH  20  22
ATOM     22  C   UNL     1       8.132   9.085  17.511  0.00  0.00    +0.000 C 
BRANCH  22  23
ATOM     23  C   UNL     1       8.854   9.579  18.770  0.00  0.00    +0.000 C 
BRANCH  23  24
ATOM     24  C   UNL     1       9.404  11.016  18.687  0.00  0.00    +0.000 C 
BRANCH  24  25
ATOM     25  N   UNL     1       9.763  11.622  19.982  0.00  0.00    +0.000 NA
BRANCH  25  27
ATOM     26  C   UNL     1       8.476  11.843  22.153  0.00  0.00    +0.000 C 
ATOM     27  C   UNL     1       9.111  10.931  21.109  0.00  0.00    +0.000 C 
ENDBRANCH  25  27
BRANCH  25  28
ATOM     28  C   UNL     1      11.225  11.748  20.127  0.00  0.00    +0.000 C 
ATOM     29  C   UNL     1      12.073  11.678  18.863  0.00  0.00    +0.000 C 
ENDBRANCH  25  28
ENDBRANCH  24  25
ENDBRANCH  23  24
ENDBRANCH  22  23
ENDBRANCH  20  22
ENDBRANCH  18  20
ENDBRANCH   1  18
TORSDOF 9
ENDMDL
MODEL 5
REMARK VINA RESULT:      -7.8      0.947      1.432
REMARK  Name = 
REMARK  12 active torsions:
REMARK  status: ('A' for Active; 'I' for Inactive)
REMARK    1  A    between atoms: C_1  and  C_2
REMARK    2  A    between atoms: C_2  and  N_3
REMARK    3  A    between atoms: N_3  and  C_4
REMARK    4  A    between atoms: N_3  and  C_6
REMARK    5  A    between atoms: C_4  and  C_5
REMARK    6  A    between atoms: C_6  and  C_7
REMARK    7  A    between atoms: C_7  and  C_8
REMARK    8  A    between atoms: C_8  and  C_9
REMARK    9  A    between atoms: C_9  and  C_10
REMARK   10  A    between atoms: C_9  and  N_11
REMARK   11  A    between atoms: N_11  and  C_12
REMARK   12  A    between atoms: C_14  and  C_15
REMARK                            x       y       z     vdW  Elec       q    Type
REMARK                         _______ _______ _______ _____ _____    ______ ____
ROOT
ATOM      1  C   UNL     1       5.939   6.278  17.179  0.00  0.00    +0.000 A 
ATOM      2  C   UNL     1       4.902   5.963  18.056  0.00  0.00    +0.000 A 
ATOM      3  C   UNL     1       4.055   4.886  17.814  0.00  0.00    +0.000 A 
ATOM      4  N   UNL     1       4.134   4.166  16.677  0.00  0.00    +0.000 NA
ATOM      5  C   UNL     1       5.109   4.449  15.805  0.00  0.00    +0.000 A 
ATOM      6  C   UNL     1       5.145   3.704  14.637  0.00  0.00    +0.000 A 
ATOM      7  C   UNL     1       6.147   3.892  13.690  0.00  0.00    +0.000 A 
ATOM      8 CL   UNL     1       6.132   2.974  12.235  0.00  0.00    +0.000 Cl
ATOM      9  C   UNL     1       7.153   4.820  13.912  0.00  0.00    +0.000 A 
ATOM     10  C   UNL     1       7.115   5.608  15.063  0.00  0.00    +0.000 A 
ATOM     11  C   UNL     1       6.081   5.459  16.019  0.00  0.00    +0.000 A 
ENDROOT
BRANCH   3  12
ATOM     12  C   UNL     1       3.041   4.459  18.802  0.00  0.00    +0.000 A 
ATOM     13  C   UNL     1       2.312   5.383  19.564  0.00  0.00    +0.000 A 
ATOM     14  C   UNL     1       1.373   4.961  20.515  0.00  0.00    +0.000 A 
ATOM     15  C   UNL     1       1.135   3.604  20.713  0.00  0.00    +0.000 A 
ATOM     16  C   UNL     1       1.818   2.670  19.948  0.00  0.00    +0.000 A 
ATOM     17  C   UNL     1       2.757   3.096  19.005  0.00  0.00    +0.000 A 
ENDBRANCH   3  12
BRANCH   1  18
ATOM     18  N   UNL     1       6.733   7.426  17.356  0.00  0.00    +0.000 N 
ATOM     19  H   UNL     1       6.690   8.065  16.567  0.00  0.00    +0.000 HD
BRANCH  18  20
ATOM     20  C   UNL     1       8.054   7.363  18.001  0.00  0.00    +0.000 C 
ATOM     21  C   UNL     1       8.059   6.198  18.996  0.00  0.00    +0.000 C 
BRANCH  20  22
ATOM     22  C   UNL     1       8.366   8.705  18.683  0.00  0.00    +0.000 C 
BRANCH  22  23
ATOM     23  C   UNL     1       8.862   9.802  17.733  0.00  0.00    +0.000 C 
BRANCH  23  24
ATOM     24  C   UNL     1       8.922  11.216  18.342  0.00  0.00    +0.000 C 
BRANCH  24  25
ATOM     25  N   UNL     1      10.244  11.865  18.281  0.00  0.00    +0.000 NA
BRANCH  25  27
ATOM     26  C   UNL     1      11.428  13.366  16.617  0.00  0.00    +0.000 C 
ATOM     27  C   UNL     1      10.207  13.112  17.496  0.00  0.00    +0.000 C 
ENDBRANCH  25  27
BRANCH  25  28
ATOM     28  C   UNL     1      10.824  12.027  19.627  0.00  0.00    +0.000 C 
ATOM     29  C   UNL     1      12.330  11.854  19.777  0.00  0.00    +0.000 C 
ENDBRANCH  25  28
ENDBRANCH  24  25
ENDBRANCH  23  24
ENDBRANCH  22  23
ENDBRANCH  20  22
ENDBRANCH  18  20
ENDBRANCH   1  18
TORSDOF 9
ENDMDL
MODEL 6
REMARK VINA RESULT:      -7.8      0.770      1.030
REMARK  Name = 
REMARK  12 active torsions:
REMARK  status: ('A' for Active; 'I' for Inactive)
REMARK    1  A    between atoms: C_1  and  C_2
REMARK    2  A    between atoms: C_2  and  N_3
REMARK    3  A    between atoms: N_3  and  C_4
REMARK    4  A    between atoms: N_3  and  C_6
REMARK    5  A    between atoms: C_4  and  C_5
REMARK    6  A    between atoms: C_6  and  C_7
REMARK    7  A    between atoms: C_7  and  C_8
REMARK    8  A    between atoms: C_8  and  C_9
REMARK    9  A    between atoms: C_9  and  C_10
REMARK   10  A    between atoms: C_9  and  N_11
REMARK   11  A    between atoms: N_11  and  C_12
REMARK   12  A    between atoms: C_14  and  C_15
REMARK                            x       y       z     vdW  Elec       q    Type
REMARK                         _______ _______ _______ _____ _____    ______ ____
ROOT
ATOM      1  C   UNL     1       5.638   6.112  17.263  0.00  0.00    +0.000 A 
ATOM      2  C   UNL     1       4.650   5.616  18.112  0.00  0.00    +0.000 A 
ATOM      3  C   UNL     1       3.980   4.430  17.826  0.00  0.00    +0.000 A 
ATOM      4  N   UNL     1       4.183   3.766  16.671  0.00  0.00    +0.000 NA
ATOM      5  C   UNL     1       5.115   4.220  15.824  0.00  0.00    +0.000 A 
ATOM      6  C   UNL     1       5.279   3.526  14.636  0.00  0.00    +0.000 A 
ATOM      7  C   UNL     1       6.253   3.893  13.712  0.00  0.00    +0.000 A 
ATOM      8 CL   UNL     1       6.397   3.028  12.232  0.00  0.00    +0.000 Cl
ATOM      9  C   UNL     1       7.102   4.956  13.978  0.00  0.00    +0.000 A 
ATOM     10  C   UNL     1       6.930   5.693  15.150  0.00  0.00    +0.000 A 
ATOM     11  C   UNL     1       5.918   5.360  16.083  0.00  0.00    +0.000 A 
ENDROOT
BRANCH   3  12
ATOM     12  C   UNL     1       3.032   3.824  18.783  0.00  0.00    +0.000 A 
ATOM     13  C   UNL     1       3.436   3.384  20.053  0.00  0.00    +0.000 A 
ATOM     14  C   UNL     1       2.529   2.788  20.939  0.00  0.00    +0.000 A 
ATOM     15  C   UNL     1       1.195   2.630  20.577  0.00  0.00    +0.000 A 
ATOM     16  C   UNL     1       0.761   3.088  19.341  0.00  0.00    +0.000 A 
ATOM     17  C   UNL     1       1.670   3.678  18.460  0.00  0.00    +0.000 A 
ENDBRANCH   3  12
BRANCH   1  18
ATOM     18  N   UNL     1       6.245   7.362  17.486  0.00  0.00    +0.000 N 
ATOM     19  H   UNL     1       5.773   8.124  17.008  0.00  0.00    +0.000 HD
BRANCH  18  20
ATOM     20  C   UNL     1       7.707   7.512  17.552  0.00  0.00    +0.000 C 
ATOM     21  C   UNL     1       8.221   6.769  18.789  0.00  0.00    +0.000 C 
BRANCH  20  22
ATOM     22  C   UNL     1       8.078   9.004  17.580  0.00  0.00    +0.000 C 
BRANCH  22  23
ATOM     23  C   UNL     1       8.781   9.462  18.863  0.00  0.00    +0.000 C 
BRANCH  23  24
ATOM     24  C   UNL     1       9.480  10.833  18.772  0.00  0.00    +0.000 C 
BRANCH  24  25
ATOM     25  N   UNL     1      10.005  11.349  20.048  0.00  0.00    +0.000 NA
BRANCH  25  27
ATOM     26  C   UNL     1      12.276  12.443  19.786  0.00  0.00    +0.000 C 
ATOM     27  C   UNL     1      10.761  12.601  19.863  0.00  0.00    +0.000 C 
ENDBRANCH  25  27
BRANCH  25  28
ATOM     28  C   UNL     1       8.942  11.442  21.067  0.00  0.00    +0.000 C 
ATOM     29  C   UNL     1       9.153  12.407  22.227  0.00  0.00    +0.000 C 
ENDBRANCH  25  28
ENDBRANCH  24  25
ENDBRANCH  23  24
ENDBRANCH  22  23
ENDBRANCH  20  22
ENDBRANCH  18  20
ENDBRANCH   1  18
TORSDOF 9
ENDMDL
MODEL 7
REMARK VINA RESULT:      -7.6      1.092      1.244
REMARK  Name = 
REMARK  12 active torsions:
REMARK  status: ('A' for Active; 'I' for Inactive)
REMARK    1  A    between atoms: C_1  and  C_2
REMARK    2  A    between atoms: C_2  and  N_3
REMARK    3  A    between atoms: N_3  and  C_4
REMARK    4  A    between atoms: N_3  and  C_6
REMARK    5  A    between atoms: C_4  and  C_5
REMARK    6  A    between atoms: C_6  and  C_7
REMARK    7  A    between atoms: C_7  and  C_8
REMARK    8  A    between atoms: C_8  and  C_9
REMARK    9  A    between atoms: C_9  and  C_10
REMARK   10  A    between atoms: C_9  and  N_11
REMARK   11  A    between atoms: N_11  and  C_12
REMARK   12  A    between atoms: C_14  and  C_15
REMARK                            x       y       z     vdW  Elec       q    Type
REMARK                         _______ _______ _______ _____ _____    ______ ____
ROOT
ATOM      1  C   UNL     1       5.914   6.244  17.046  0.00  0.00    +0.000 A 
ATOM      2  C   UNL     1       4.843   5.939  17.884  0.00  0.00    +0.000 A 
ATOM      3  C   UNL     1       3.991   4.873  17.607  0.00  0.00    +0.000 A 
ATOM      4  N   UNL     1       4.103   4.157  16.471  0.00  0.00    +0.000 NA
ATOM      5  C   UNL     1       5.112   4.430  15.635  0.00  0.00    +0.000 A 
ATOM      6  C   UNL     1       5.181   3.690  14.466  0.00  0.00    +0.000 A 
ATOM      7  C   UNL     1       6.218   3.868  13.557  0.00  0.00    +0.000 A 
ATOM      8 CL   UNL     1       6.245   2.956  12.098  0.00  0.00    +0.000 Cl
ATOM      9  C   UNL     1       7.227   4.783  13.819  0.00  0.00    +0.000 A 
ATOM     10  C   UNL     1       7.158   5.567  14.971  0.00  0.00    +0.000 A 
ATOM     11  C   UNL     1       6.088   5.428  15.888  0.00  0.00    +0.000 A 
ENDROOT
BRANCH   3  12
ATOM     12  C   UNL     1       2.938   4.455  18.556  0.00  0.00    +0.000 A 
ATOM     13  C   UNL     1       1.985   3.480  18.225  0.00  0.00    +0.000 A 
ATOM     14  C   UNL     1       0.977   3.113  19.126  0.00  0.00    +0.000 A 
ATOM     15  C   UNL     1       0.908   3.707  20.383  0.00  0.00    +0.000 A 
ATOM     16  C   UNL     1       1.859   4.649  20.748  0.00  0.00    +0.000 A 
ATOM     17  C   UNL     1       2.860   5.014  19.844  0.00  0.00    +0.000 A 
ENDBRANCH   3  12
BRANCH   1  18
ATOM     18  N   UNL     1       6.716   7.381  17.256  0.00  0.00    +0.000 N 
ATOM     19  H   UNL     1       6.715   8.020  16.466  0.00  0.00    +0.000 HD
BRANCH  18  20
ATOM     20  C   UNL     1       8.008   7.300  17.957  0.00  0.00    +0.000 C 
ATOM     21  C   UNL     1       7.932   6.180  18.998  0.00  0.00    +0.000 C 
BRANCH  20  22
ATOM     22  C   UNL     1       8.341   8.659  18.594  0.00  0.00    +0.000 C 
BRANCH  22  23
ATOM     23  C   UNL     1       8.628   9.781  17.588  0.00  0.00    +0.000 C 
BRANCH  23  24
ATOM     24  C   UNL     1       8.247  11.197  18.062  0.00  0.00    +0.000 C 
BRANCH  24  25
ATOM     25  N   UNL     1       9.377  12.027  18.516  0.00  0.00    +0.000 NA
BRANCH  25  27
ATOM     26  C   UNL     1      11.877  11.640  18.657  0.00  0.00    +0.000 C 
ATOM     27  C   UNL     1      10.621  11.701  17.794  0.00  0.00    +0.000 C 
ENDBRANCH  25  27
BRANCH  25  28
ATOM     28  C   UNL     1       9.033  13.461  18.489  0.00  0.00    +0.000 C 
ATOM     29  C   UNL     1       7.726  13.864  17.816  0.00  0.00    +0.000 C 
ENDBRANCH  25  28
ENDBRANCH  24  25
ENDBRANCH  23  24
ENDBRANCH  22  23
ENDBRANCH  20  22
ENDBRANCH  18  20
ENDBRANCH   1  18
TORSDOF 9
ENDMDL
MODEL 8
REMARK VINA RESULT:      -7.6      2.036      4.893
REMARK  Name = 
REMARK  12 active torsions:
REMARK  status: ('A' for Active; 'I' for Inactive)
REMARK    1  A    between atoms: C_1  and  C_2
REMARK    2  A    between atoms: C_2  and  N_3
REMARK    3  A    between atoms: N_3  and  C_4
REMARK    4  A    between atoms: N_3  and  C_6
REMARK    5  A    between atoms: C_4  and  C_5
REMARK    6  A    between atoms: C_6  and  C_7
REMARK    7  A    between atoms: C_7  and  C_8
REMARK    8  A    between atoms: C_8  and  C_9
REMARK    9  A    between atoms: C_9  and  C_10
REMARK   10  A    between atoms: C_9  and  N_11
REMARK   11  A    between atoms: N_11  and  C_12
REMARK   12  A    between atoms: C_14  and  C_15
REMARK                            x       y       z     vdW  Elec       q    Type
REMARK                         _______ _______ _______ _____ _____    ______ ____
ROOT
ATOM      1  C   UNL     1       5.505   6.454  17.098  0.00  0.00    +0.000 A 
ATOM      2  C   UNL     1       6.010   5.925  15.912  0.00  0.00    +0.000 A 
ATOM      3  C   UNL     1       5.427   4.812  15.312  0.00  0.00    +0.000 A 
ATOM      4  N   UNL     1       4.418   4.140  15.901  0.00  0.00    +0.000 NA
ATOM      5  C   UNL     1       3.915   4.612  17.049  0.00  0.00    +0.000 A 
ATOM      6  C   UNL     1       2.895   3.883  17.637  0.00  0.00    +0.000 A 
ATOM      7  C   UNL     1       2.277   4.315  18.806  0.00  0.00    +0.000 A 
ATOM      8 CL   UNL     1       1.041   3.359  19.525  0.00  0.00    +0.000 Cl
ATOM      9  C   UNL     1       2.659   5.511  19.396  0.00  0.00    +0.000 A 
ATOM     10  C   UNL     1       3.710   6.243  18.842  0.00  0.00    +0.000 A 
ATOM     11  C   UNL     1       4.378   5.797  17.675  0.00  0.00    +0.000 A 
ENDROOT
BRANCH   3  12
ATOM     12  C   UNL     1       5.866   4.325  13.988  0.00  0.00    +0.000 A 
ATOM     13  C   UNL     1       5.084   3.447  13.222  0.00  0.00    +0.000 A 
ATOM     14  C   UNL     1       5.526   2.974  11.980  0.00  0.00    +0.000 A 
ATOM     15  C   UNL     1       6.757   3.379  11.472  0.00  0.00    +0.000 A 
ATOM     16  C   UNL     1       7.534   4.274  12.192  0.00  0.00    +0.000 A 
ATOM     17  C   UNL     1       7.091   4.739  13.432  0.00  0.00    +0.000 A 
ENDBRANCH   3  12
BRANCH   1  18
ATOM     18  N   UNL     1       6.149   7.510  17.769  0.00  0.00    +0.000 N 
ATOM     19  H   UNL     1       5.615   8.374  17.756  0.00  0.00    +0.000 HD
BRANCH  18  20
ATOM     20  C   UNL     1       7.605   7.706  17.690  0.00  0.00    +0.000 C 
ATOM     21  C   UNL     1       8.267   6.935  18.836  0.00  0.00    +0.000 C 
BRANCH  20  22
ATOM     22  C   UNL     1       7.933   9.208  17.739  0.00  0.00    +0.000 C 
BRANCH  22  23
ATOM     23  C   UNL     1       8.967   9.599  18.801  0.00  0.00    +0.000 C 
BRANCH  23  24
ATOM     24  C   UNL     1       9.624  10.978  18.597  0.00  0.00    +0.000 C 
BRANCH  24  25
ATOM     25  N   UNL     1       9.586  11.866  19.772  0.00  0.00    +0.000 NA
BRANCH  25  27
ATOM     26  C   UNL     1      12.099  11.654  19.524  0.00  0.00    +0.000 C 
ATOM     27  C   UNL     1      10.907  11.976  20.418  0.00  0.00    +0.000 C 
ENDBRANCH  25  27
BRANCH  25  28
ATOM     28  C   UNL     1       8.977  13.168  19.440  0.00  0.00    +0.000 C 
ATOM     29  C   UNL     1       9.805  14.423  19.690  0.00  0.00    +0.000 C 
ENDBRANCH  25  28
ENDBRANCH  24  25
ENDBRANCH  23  24
ENDBRANCH  22  23
ENDBRANCH  20  22
ENDBRANCH  18  20
ENDBRANCH   1  18
TORSDOF 9
ENDMDL
MODEL 9
REMARK VINA RESULT:      -7.6      2.112      5.041
REMARK  Name = 
REMARK  12 active torsions:
REMARK  status: ('A' for Active; 'I' for Inactive)
REMARK    1  A    between atoms: C_1  and  C_2
REMARK    2  A    between atoms: C_2  and  N_3
REMARK    3  A    between atoms: N_3  and  C_4
REMARK    4  A    between atoms: N_3  and  C_6
REMARK    5  A    between atoms: C_4  and  C_5
REMARK    6  A    between atoms: C_6  and  C_7
REMARK    7  A    between atoms: C_7  and  C_8
REMARK    8  A    between atoms: C_8  and  C_9
REMARK    9  A    between atoms: C_9  and  C_10
REMARK   10  A    between atoms: C_9  and  N_11
REMARK   11  A    between atoms: N_11  and  C_12
REMARK   12  A    between atoms: C_14  and  C_15
REMARK                            x       y       z     vdW  Elec       q    Type
REMARK                         _______ _______ _______ _____ _____    ______ ____
ROOT
ATOM      1  C   UNL     1       5.766   6.354  17.202  0.00  0.00    +0.000 A 
ATOM      2  C   UNL     1       6.219   5.826  15.994  0.00  0.00    +0.000 A 
ATOM      3  C   UNL     1       5.536   4.795  15.356  0.00  0.00    +0.000 A 
ATOM      4  N   UNL     1       4.471   4.195  15.924  0.00  0.00    +0.000 NA
ATOM      5  C   UNL     1       4.015   4.666  17.092  0.00  0.00    +0.000 A 
ATOM      6  C   UNL     1       2.934   4.010  17.658  0.00  0.00    +0.000 A 
ATOM      7  C   UNL     1       2.360   4.453  18.845  0.00  0.00    +0.000 A 
ATOM      8 CL   UNL     1       1.044   3.586  19.534  0.00  0.00    +0.000 Cl
ATOM      9  C   UNL     1       2.850   5.585  19.477  0.00  0.00    +0.000 A 
ATOM     10  C   UNL     1       3.962   6.240  18.946  0.00  0.00    +0.000 A 
ATOM     11  C   UNL     1       4.585   5.780  17.760  0.00  0.00    +0.000 A 
ENDROOT
BRANCH   3  12
ATOM     12  C   UNL     1       5.927   4.320  14.012  0.00  0.00    +0.000 A 
ATOM     13  C   UNL     1       5.114   3.456  13.264  0.00  0.00    +0.000 A 
ATOM     14  C   UNL     1       5.510   2.994  12.002  0.00  0.00    +0.000 A 
ATOM     15  C   UNL     1       6.725   3.398  11.456  0.00  0.00    +0.000 A 
ATOM     16  C   UNL     1       7.532   4.280  12.160  0.00  0.00    +0.000 A 
ATOM     17  C   UNL     1       7.134   4.734  13.420  0.00  0.00    +0.000 A 
ENDBRANCH   3  12
BRANCH   1  18
ATOM     18  N   UNL     1       6.504   7.321  17.909  0.00  0.00    +0.000 N 
ATOM     19  H   UNL     1       6.265   8.273  17.647  0.00  0.00    +0.000 HD
BRANCH  18  20
ATOM     20  C   UNL     1       7.927   7.128  18.231  0.00  0.00    +0.000 C 
ATOM     21  C   UNL     1       8.060   5.916  19.158  0.00  0.00    +0.000 C 
BRANCH  20  22
ATOM     22  C   UNL     1       8.496   8.407  18.866  0.00  0.00    +0.000 C 
BRANCH  22  23
ATOM     23  C   UNL     1       8.446   9.644  17.962  0.00  0.00    +0.000 C 
BRANCH  23  24
ATOM     24  C   UNL     1       9.538  10.697  18.234  0.00  0.00    +0.000 C 
BRANCH  24  25
ATOM     25  N   UNL     1       9.037  12.046  18.552  0.00  0.00    +0.000 NA
BRANCH  25  27
ATOM     26  C   UNL     1      10.443  11.744  20.637  0.00  0.00    +0.000 C 
ATOM     27  C   UNL     1       9.225  12.379  19.975  0.00  0.00    +0.000 C 
ENDBRANCH  25  27
BRANCH  25  28
ATOM     28  C   UNL     1       9.590  13.054  17.628  0.00  0.00    +0.000 C 
ATOM     29  C   UNL     1      11.024  12.865  17.147  0.00  0.00    +0.000 C 
ENDBRANCH  25  28
ENDBRANCH  24  25
ENDBRANCH  23  24
ENDBRANCH  22  23
ENDBRANCH  20  22
ENDBRANCH  18  20
ENDBRANCH   1  18
TORSDOF 9
ENDMDL
