MODEL 1
REMARK VINA RESULT:      -6.7      0.000      0.000
REMARK  Name = 
REMARK  5 active torsions:
REMARK  status: ('A' for Active; 'I' for Inactive)
REMARK    1  A    between atoms: C_1  and  N_2
REMARK    2  A    between atoms: N_5  and  C_6
REMARK    3  A    between atoms: N_9  and  C_10
REMARK    4  A    between atoms: C_10  and  C_11
REMARK    5  A    between atoms: C_18  and  C_19
REMARK                            x       y       z     vdW  Elec       q    Type
REMARK                         _______ _______ _______ _____ _____    ______ ____
ROOT
ATOM      1  C   UNL     1       4.489   2.308  19.979  0.00  0.00    +0.000 C 
ATOM      2  N   UNL     1       4.365   3.706  19.672  0.00  0.00    +0.000 N 
ATOM      3  C   UNL     1       5.218   4.430  18.838  0.00  0.00    +0.000 A 
ATOM      4  O   UNL     1       6.245   3.992  18.345  0.00  0.00    +0.000 OA
ATOM      5  N   UNL     1       4.627   5.710  18.648  0.00  0.00    +0.000 N 
ATOM      6  C   UNL     1       3.434   5.774  19.445  0.00  0.00    +0.000 A 
ATOM      7  C   UNL     1       2.476   6.781  19.713  0.00  0.00    +0.000 A 
ATOM      8  C   UNL     1       2.483   8.135  19.274  0.00  0.00    +0.000 A 
ATOM      9  C   UNL     1       1.463   9.042  19.607  0.00  0.00    +0.000 A 
ATOM     10  C   UNL     1       0.444   8.613  20.449  0.00  0.00    +0.000 A 
ATOM     11  C   UNL     1       0.433   7.298  20.914  0.00  0.00    +0.000 A 
ATOM     12  C   UNL     1       1.410   6.380  20.564  0.00  0.00    +0.000 A 
ATOM     13  N   UNL     1       1.276   5.147  21.090  0.00  0.00    +0.000 NA
ATOM     14  C   UNL     1       2.219   4.225  20.830  0.00  0.00    +0.000 A 
ATOM     15  C   UNL     1       3.296   4.517  20.040  0.00  0.00    +0.000 A 
ENDROOT
BRANCH   5  16
ATOM     16  C   UNL     1       4.958   6.584  17.522  0.00  0.00    +0.000 C 
ATOM     17  C   UNL     1       4.332   6.120  16.204  0.00  0.00    +0.000 C 
ATOM     18  C   UNL     1       5.203   5.164  15.404  0.00  0.00    +0.000 C 
ATOM     19  N   UNL     1       6.567   5.685  15.207  0.00  0.00    +0.000 NA
ATOM     20  C   UNL     1       7.237   5.945  16.485  0.00  0.00    +0.000 C 
ATOM     21  C   UNL     1       6.447   6.915  17.364  0.00  0.00    +0.000 C 
BRANCH  19  22
ATOM     22  C   UNL     1       7.369   4.726  14.399  0.00  0.00    +0.000 C 
BRANCH  22  23
ATOM     23  C   UNL     1       6.483   4.023  13.384  0.00  0.00    +0.000 C 
ATOM     24  N   UNL     1       5.747   3.441  12.542  0.00  0.00    +0.000 NA
ENDBRANCH  22  23
ENDBRANCH  19  22
ENDBRANCH   5  16
BRANCH   9  25
ATOM     25  C   UNL     1       1.470  10.399  19.093  0.00  0.00    +0.000 A 
ATOM     26  C   UNL     1       0.775  11.557  19.520  0.00  0.00    +0.000 A 
ATOM     27  N   UNL     1       1.027  12.619  18.750  0.00  0.00    +0.000 NA
ATOM     28  N   UNL     1       1.870  12.146  17.820  0.00  0.00    +0.000 N 
ATOM     29  C   UNL     1       2.165  10.821  17.979  0.00  0.00    +0.000 A 
ATOM     30  H   UNL     1       2.199  12.779  17.102  0.00  0.00    +0.000 HD
ENDBRANCH   9  25
TORSDOF 4
ENDMDL
MODEL 2
REMARK VINA RESULT:      -6.3      7.876     10.622
REMARK  Name = 
REMARK  5 active torsions:
REMARK  status: ('A' for Active; 'I' for Inactive)
REMARK    1  A    between atoms: C_1  and  N_2
REMARK    2  A    between atoms: N_5  and  C_6
REMARK    3  A    between atoms: N_9  and  C_10
REMARK    4  A    between atoms: C_10  and  C_11
REMARK    5  A    between atoms: C_18  and  C_19
REMARK                            x       y       z     vdW  Elec       q    Type
REMARK                         _______ _______ _______ _____ _____    ______ ____
ROOT
ATOM      1  C   UNL     1      -2.442  10.832  15.678  0.00  0.00    +0.000 C 
ATOM      2  N   UNL     1      -2.872  11.120  17.018  0.00  0.00    +0.000 N 
ATOM      3  C   UNL     1      -2.052  11.125  18.147  0.00  0.00    +0.000 A 
ATOM      4  O   UNL     1      -0.882  10.778  18.158  0.00  0.00    +0.000 OA
ATOM      5  N   UNL     1      -2.824  11.653  19.220  0.00  0.00    +0.000 N 
ATOM      6  C   UNL     1      -4.154  11.899  18.734  0.00  0.00    +0.000 A 
ATOM      7  C   UNL     1      -5.355  12.353  19.329  0.00  0.00    +0.000 A 
ATOM      8  C   UNL     1      -5.596  12.647  20.701  0.00  0.00    +0.000 A 
ATOM      9  C   UNL     1      -6.842  13.098  21.168  0.00  0.00    +0.000 A 
ATOM     10  C   UNL     1      -7.893  13.199  20.263  0.00  0.00    +0.000 A 
ATOM     11  C   UNL     1      -7.685  12.888  18.919  0.00  0.00    +0.000 A 
ATOM     12  C   UNL     1      -6.453  12.480  18.435  0.00  0.00    +0.000 A 
ATOM     13  N   UNL     1      -6.399  12.208  17.116  0.00  0.00    +0.000 NA
ATOM     14  C   UNL     1      -5.245  11.757  16.594  0.00  0.00    +0.000 A 
ATOM     15  C   UNL     1      -4.136  11.581  17.374  0.00  0.00    +0.000 A 
ENDROOT
BRANCH   5  16
ATOM     16  C   UNL     1      -2.228  12.227  20.426  0.00  0.00    +0.000 C 
ATOM     17  C   UNL     1      -1.965  13.730  20.304  0.00  0.00    +0.000 C 
ATOM     18  C   UNL     1      -0.592  14.079  19.752  0.00  0.00    +0.000 C 
ATOM     19  N   UNL     1       0.491  13.393  20.478  0.00  0.00    +0.000 NA
ATOM     20  C   UNL     1       0.339  11.936  20.426  0.00  0.00    +0.000 C 
ATOM     21  C   UNL     1      -1.010  11.475  20.977  0.00  0.00    +0.000 C 
BRANCH  19  22
ATOM     22  C   UNL     1       1.813  13.787  19.917  0.00  0.00    +0.000 C 
BRANCH  22  23
ATOM     23  C   UNL     1       2.857  13.839  21.020  0.00  0.00    +0.000 C 
ATOM     24  N   UNL     1       3.724  13.882  21.935  0.00  0.00    +0.000 NA
ENDBRANCH  22  23
ENDBRANCH  19  22
ENDBRANCH   5  16
BRANCH   9  25
ATOM     25  C   UNL     1      -7.038  13.446  22.563  0.00  0.00    +0.000 A 
ATOM     26  C   UNL     1      -7.911  12.910  23.541  0.00  0.00    +0.000 A 
ATOM     27  N   UNL     1      -7.815  13.538  24.715  0.00  0.00    +0.000 NA
ATOM     28  N   UNL     1      -6.893  14.488  24.494  0.00  0.00    +0.000 N 
ATOM     29  C   UNL     1      -6.398  14.476  23.220  0.00  0.00    +0.000 A 
ATOM     30  H   UNL     1      -6.654  15.113  25.254  0.00  0.00    +0.000 HD
ENDBRANCH   9  25
TORSDOF 4
ENDMDL
MODEL 3
REMARK VINA RESULT:      -6.3      6.458      9.391
REMARK  Name = 
REMARK  5 active torsions:
REMARK  status: ('A' for Active; 'I' for Inactive)
REMARK    1  A    between atoms: C_1  and  N_2
REMARK    2  A    between atoms: N_5  and  C_6
REMARK    3  A    between atoms: N_9  and  C_10
REMARK    4  A    between atoms: C_10  and  C_11
REMARK    5  A    between atoms: C_18  and  C_19
REMARK                            x       y       z     vdW  Elec       q    Type
REMARK                         _______ _______ _______ _____ _____    ______ ____
ROOT
ATOM      1  C   UNL     1      -3.062  10.321  15.248  0.00  0.00    +0.000 C 
ATOM      2  N   UNL     1      -2.967  10.606  16.653  0.00  0.00    +0.000 N 
ATOM      3  C   UNL     1      -1.882  10.286  17.471  0.00  0.00    +0.000 A 
ATOM      4  O   UNL     1      -0.918   9.625  17.121  0.00  0.00    +0.000 OA
ATOM      5  N   UNL     1      -2.108  10.919  18.727  0.00  0.00    +0.000 N 
ATOM      6  C   UNL     1      -3.388  11.568  18.676  0.00  0.00    +0.000 A 
ATOM      7  C   UNL     1      -4.168  12.291  19.610  0.00  0.00    +0.000 A 
ATOM      8  C   UNL     1      -3.890  12.525  20.987  0.00  0.00    +0.000 A 
ATOM      9  C   UNL     1      -4.749  13.267  21.814  0.00  0.00    +0.000 A 
ATOM     10  C   UNL     1      -5.944  13.735  21.279  0.00  0.00    +0.000 A 
ATOM     11  C   UNL     1      -6.249  13.491  19.940  0.00  0.00    +0.000 A 
ATOM     12  C   UNL     1      -5.396  12.794  19.100  0.00  0.00    +0.000 A 
ATOM     13  N   UNL     1      -5.821  12.629  17.832  0.00  0.00    +0.000 NA
ATOM     14  C   UNL     1      -5.061  11.917  16.982  0.00  0.00    +0.000 A 
ATOM     15  C   UNL     1      -3.873  11.372  17.380  0.00  0.00    +0.000 A 
ENDROOT
BRANCH   5  16
ATOM     16  C   UNL     1      -1.037  11.199  19.683  0.00  0.00    +0.000 C 
ATOM     17  C   UNL     1      -0.611  12.670  19.687  0.00  0.00    +0.000 C 
ATOM     18  C   UNL     1       0.507  12.997  18.709  0.00  0.00    +0.000 C 
ATOM     19  N   UNL     1       1.662  12.094  18.861  0.00  0.00    +0.000 NA
ATOM     20  C   UNL     1       1.282  10.692  18.662  0.00  0.00    +0.000 C 
ATOM     21  C   UNL     1       0.169  10.254  19.614  0.00  0.00    +0.000 C 
BRANCH  19  22
ATOM     22  C   UNL     1       2.735  12.471  17.901  0.00  0.00    +0.000 C 
BRANCH  22  23
ATOM     23  C   UNL     1       3.138  13.922  18.106  0.00  0.00    +0.000 C 
ATOM     24  N   UNL     1       3.473  15.125  18.277  0.00  0.00    +0.000 NA
ENDBRANCH  22  23
ENDBRANCH  19  22
ENDBRANCH   5  16
BRANCH   9  25
ATOM     25  C   UNL     1      -4.407  13.539  23.198  0.00  0.00    +0.000 A 
ATOM     26  C   UNL     1      -3.795  14.666  23.799  0.00  0.00    +0.000 A 
ATOM     27  N   UNL     1      -3.615  14.512  25.113  0.00  0.00    +0.000 NA
ATOM     28  N   UNL     1      -4.096  13.284  25.359  0.00  0.00    +0.000 N 
ATOM     29  C   UNL     1      -4.580  12.658  24.244  0.00  0.00    +0.000 A 
ATOM     30  H   UNL     1      -4.057  12.933  26.308  0.00  0.00    +0.000 HD
ENDBRANCH   9  25
TORSDOF 4
ENDMDL
MODEL 4
REMARK VINA RESULT:      -6.2      6.924      9.756
REMARK  Name = 
REMARK  5 active torsions:
REMARK  status: ('A' for Active; 'I' for Inactive)
REMARK    1  A    between atoms: C_1  and  N_2
REMARK    2  A    between atoms: N_5  and  C_6
REMARK    3  A    between atoms: N_9  and  C_10
REMARK    4  A    between atoms: C_10  and  C_11
REMARK    5  A    between atoms: C_18  and  C_19
REMARK                            x       y       z     vdW  Elec       q    Type
REMARK                         _______ _______ _______ _____ _____    ______ ____
ROOT
ATOM      1  C   UNL     1      -2.943   9.854  15.675  0.00  0.00    +0.000 C 
ATOM      2  N   UNL     1      -2.984  10.468  16.973  0.00  0.00    +0.000 N 
ATOM      3  C   UNL     1      -1.924  10.513  17.880  0.00  0.00    +0.000 A 
ATOM      4  O   UNL     1      -0.856   9.942  17.730  0.00  0.00    +0.000 OA
ATOM      5  N   UNL     1      -2.320  11.378  18.940  0.00  0.00    +0.000 N 
ATOM      6  C   UNL     1      -3.671  11.796  18.693  0.00  0.00    +0.000 A 
ATOM      7  C   UNL     1      -4.605  12.589  19.401  0.00  0.00    +0.000 A 
ATOM      8  C   UNL     1      -4.457  13.175  20.690  0.00  0.00    +0.000 A 
ATOM      9  C   UNL     1      -5.466  13.950  21.287  0.00  0.00    +0.000 A 
ATOM     10  C   UNL     1      -6.675  14.095  20.617  0.00  0.00    +0.000 A 
ATOM     11  C   UNL     1      -6.851  13.505  19.366  0.00  0.00    +0.000 A 
ATOM     12  C   UNL     1      -5.854  12.770  18.745  0.00  0.00    +0.000 A 
ATOM     13  N   UNL     1      -6.165  12.254  17.540  0.00  0.00    +0.000 NA
ATOM     14  C   UNL     1      -5.258  11.487  16.910  0.00  0.00    +0.000 A 
ATOM     15  C   UNL     1      -4.035  11.235  17.466  0.00  0.00    +0.000 A 
ENDROOT
BRANCH   5  16
ATOM     16  C   UNL     1      -1.366  12.030  19.837  0.00  0.00    +0.000 C 
ATOM     17  C   UNL     1      -0.903  13.396  19.322  0.00  0.00    +0.000 C 
ATOM     18  C   UNL     1       0.335  13.342  18.439  0.00  0.00    +0.000 C 
ATOM     19  N   UNL     1       1.437  12.594  19.070  0.00  0.00    +0.000 NA
ATOM     20  C   UNL     1       1.045  11.216  19.385  0.00  0.00    +0.000 C 
ATOM     21  C   UNL     1      -0.187  11.158  20.288  0.00  0.00    +0.000 C 
BRANCH  19  22
ATOM     22  C   UNL     1       2.629  12.592  18.179  0.00  0.00    +0.000 C 
BRANCH  22  23
ATOM     23  C   UNL     1       3.263  13.973  18.145  0.00  0.00    +0.000 C 
ATOM     24  N   UNL     1       3.788  15.119  18.118  0.00  0.00    +0.000 NA
ENDBRANCH  22  23
ENDBRANCH  19  22
ENDBRANCH   5  16
BRANCH   9  25
ATOM     25  C   UNL     1      -5.259  14.583  22.577  0.00  0.00    +0.000 A 
ATOM     26  C   UNL     1      -4.116  14.639  23.412  0.00  0.00    +0.000 A 
ATOM     27  N   UNL     1      -4.345  15.297  24.551  0.00  0.00    +0.000 NA
ATOM     28  N   UNL     1      -5.636  15.651  24.461  0.00  0.00    +0.000 N 
ATOM     29  C   UNL     1      -6.229  15.246  23.298  0.00  0.00    +0.000 A 
ATOM     30  H   UNL     1      -6.049  16.162  25.231  0.00  0.00    +0.000 HD
ENDBRANCH   9  25
TORSDOF 4
ENDMDL
MODEL 5
REMARK VINA RESULT:      -6.1      4.999      8.951
REMARK  Name = 
REMARK  5 active torsions:
REMARK  status: ('A' for Active; 'I' for Inactive)
REMARK    1  A    between atoms: C_1  and  N_2
REMARK    2  A    between atoms: N_5  and  C_6
REMARK    3  A    between atoms: N_9  and  C_10
REMARK    4  A    between atoms: C_10  and  C_11
REMARK    5  A    between atoms: C_18  and  C_19
REMARK                            x       y       z     vdW  Elec       q    Type
REMARK                         _______ _______ _______ _____ _____    ______ ____
ROOT
ATOM      1  C   UNL     1       3.601  14.546  20.149  0.00  0.00    +0.000 C 
ATOM      2  N   UNL     1       2.274  14.068  20.422  0.00  0.00    +0.000 N 
ATOM      3  C   UNL     1       1.670  12.966  19.814  0.00  0.00    +0.000 A 
ATOM      4  O   UNL     1       2.154  12.329  18.893  0.00  0.00    +0.000 OA
ATOM      5  N   UNL     1       0.453  12.722  20.511  0.00  0.00    +0.000 N 
ATOM      6  C   UNL     1       0.294  13.746  21.505  0.00  0.00    +0.000 A 
ATOM      7  C   UNL     1      -0.716  14.065  22.443  0.00  0.00    +0.000 A 
ATOM      8  C   UNL     1      -1.983  13.436  22.613  0.00  0.00    +0.000 A 
ATOM      9  C   UNL     1      -2.904  13.848  23.591  0.00  0.00    +0.000 A 
ATOM     10  C   UNL     1      -2.588  14.950  24.378  0.00  0.00    +0.000 A 
ATOM     11  C   UNL     1      -1.364  15.598  24.207  0.00  0.00    +0.000 A 
ATOM     12  C   UNL     1      -0.429  15.182  23.274  0.00  0.00    +0.000 A 
ATOM     13  N   UNL     1       0.708  15.904  23.216  0.00  0.00    +0.000 NA
ATOM     14  C   UNL     1       1.633  15.583  22.296  0.00  0.00    +0.000 A 
ATOM     15  C   UNL     1       1.443  14.539  21.434  0.00  0.00    +0.000 A 
ENDROOT
BRANCH   5  16
ATOM     16  C   UNL     1      -0.238  11.432  20.484  0.00  0.00    +0.000 C 
ATOM     17  C   UNL     1       0.430  10.380  21.374  0.00  0.00    +0.000 C 
ATOM     18  C   UNL     1       1.492   9.552  20.669  0.00  0.00    +0.000 C 
ATOM     19  N   UNL     1       0.998   8.967  19.409  0.00  0.00    +0.000 NA
ATOM     20  C   UNL     1       0.538  10.001  18.477  0.00  0.00    +0.000 C 
ATOM     21  C   UNL     1      -0.551  10.885  19.086  0.00  0.00    +0.000 C 
BRANCH  19  22
ATOM     22  C   UNL     1       2.065   8.148  18.772  0.00  0.00    +0.000 C 
BRANCH  22  23
ATOM     23  C   UNL     1       2.282   6.864  19.558  0.00  0.00    +0.000 C 
ATOM     24  N   UNL     1       2.460   5.800  20.209  0.00  0.00    +0.000 NA
ENDBRANCH  22  23
ENDBRANCH  19  22
ENDBRANCH   5  16
BRANCH   9  25
ATOM     25  C   UNL     1      -4.161  13.148  23.778  0.00  0.00    +0.000 A 
ATOM     26  C   UNL     1      -5.395  13.255  23.092  0.00  0.00    +0.000 A 
ATOM     27  N   UNL     1      -6.335  12.452  23.597  0.00  0.00    +0.000 NA
ATOM     28  N   UNL     1      -5.715  11.839  24.617  0.00  0.00    +0.000 N 
ATOM     29  C   UNL     1      -4.412  12.222  24.769  0.00  0.00    +0.000 A 
ATOM     30  H   UNL     1      -6.243  11.176  25.172  0.00  0.00    +0.000 HD
ENDBRANCH   9  25
TORSDOF 4
ENDMDL
MODEL 6
REMARK VINA RESULT:      -6.1      3.966      7.983
REMARK  Name = 
REMARK  5 active torsions:
REMARK  status: ('A' for Active; 'I' for Inactive)
REMARK    1  A    between atoms: C_1  and  N_2
REMARK    2  A    between atoms: N_5  and  C_6
REMARK    3  A    between atoms: N_9  and  C_10
REMARK    4  A    between atoms: C_10  and  C_11
REMARK    5  A    between atoms: C_18  and  C_19
REMARK                            x       y       z     vdW  Elec       q    Type
REMARK                         _______ _______ _______ _____ _____    ______ ____
ROOT
ATOM      1  C   UNL     1       6.735   5.513  20.053  0.00  0.00    +0.000 C 
ATOM      2  N   UNL     1       6.203   4.859  18.890  0.00  0.00    +0.000 N 
ATOM      3  C   UNL     1       5.092   4.014  18.875  0.00  0.00    +0.000 A 
ATOM      4  O   UNL     1       4.492   3.636  19.868  0.00  0.00    +0.000 OA
ATOM      5  N   UNL     1       4.790   3.750  17.509  0.00  0.00    +0.000 N 
ATOM      6  C   UNL     1       5.787   4.392  16.698  0.00  0.00    +0.000 A 
ATOM      7  C   UNL     1       6.050   4.441  15.309  0.00  0.00    +0.000 A 
ATOM      8  C   UNL     1       5.372   3.750  14.264  0.00  0.00    +0.000 A 
ATOM      9  C   UNL     1       5.730   3.887  12.913  0.00  0.00    +0.000 A 
ATOM     10  C   UNL     1       6.827   4.680  12.594  0.00  0.00    +0.000 A 
ATOM     11  C   UNL     1       7.522   5.343  13.605  0.00  0.00    +0.000 A 
ATOM     12  C   UNL     1       7.160   5.249  14.939  0.00  0.00    +0.000 A 
ATOM     13  N   UNL     1       7.924   5.940  15.808  0.00  0.00    +0.000 NA
ATOM     14  C   UNL     1       7.655   5.849  17.122  0.00  0.00    +0.000 A 
ATOM     15  C   UNL     1       6.622   5.080  17.582  0.00  0.00    +0.000 A 
ENDROOT
BRANCH   5  16
ATOM     16  C   UNL     1       3.477   3.290  17.056  0.00  0.00    +0.000 C 
ATOM     17  C   UNL     1       2.386   4.353  17.215  0.00  0.00    +0.000 C 
ATOM     18  C   UNL     1       1.669   4.313  18.555  0.00  0.00    +0.000 C 
ATOM     19  N   UNL     1       1.169   2.965  18.880  0.00  0.00    +0.000 NA
ATOM     20  C   UNL     1       2.255   1.980  18.918  0.00  0.00    +0.000 C 
ATOM     21  C   UNL     1       3.034   1.928  17.604  0.00  0.00    +0.000 C 
BRANCH  19  22
ATOM     22  C   UNL     1       0.455   2.985  20.186  0.00  0.00    +0.000 C 
BRANCH  22  23
ATOM     23  C   UNL     1       1.455   2.992  21.331  0.00  0.00    +0.000 C 
ATOM     24  N   UNL     1       2.284   2.996  22.281  0.00  0.00    +0.000 NA
ENDBRANCH  22  23
ENDBRANCH  19  22
ENDBRANCH   5  16
BRANCH   9  25
ATOM     25  C   UNL     1       4.981   3.215  11.868  0.00  0.00    +0.000 A 
ATOM     26  C   UNL     1       3.792   3.585  11.193  0.00  0.00    +0.000 A 
ATOM     27  N   UNL     1       3.395   2.665  10.310  0.00  0.00    +0.000 NA
ATOM     28  N   UNL     1       4.316   1.696  10.424  0.00  0.00    +0.000 N 
ATOM     29  C   UNL     1       5.286   1.976  11.346  0.00  0.00    +0.000 A 
ATOM     30  H   UNL     1       4.217   0.869   9.849  0.00  0.00    +0.000 HD
ENDBRANCH   9  25
TORSDOF 4
ENDMDL
MODEL 7
REMARK VINA RESULT:      -6.0      7.513      9.850
REMARK  Name = 
REMARK  5 active torsions:
REMARK  status: ('A' for Active; 'I' for Inactive)
REMARK    1  A    between atoms: C_1  and  N_2
REMARK    2  A    between atoms: N_5  and  C_6
REMARK    3  A    between atoms: N_9  and  C_10
REMARK    4  A    between atoms: C_10  and  C_11
REMARK    5  A    between atoms: C_18  and  C_19
REMARK                            x       y       z     vdW  Elec       q    Type
REMARK                         _______ _______ _______ _____ _____    ______ ____
ROOT
ATOM      1  C   UNL     1      -2.293  10.014  16.345  0.00  0.00    +0.000 C 
ATOM      2  N   UNL     1      -2.341  10.704  17.604  0.00  0.00    +0.000 N 
ATOM      3  C   UNL     1      -1.244  10.965  18.426  0.00  0.00    +0.000 A 
ATOM      4  O   UNL     1      -0.115  10.544  18.232  0.00  0.00    +0.000 OA
ATOM      5  N   UNL     1      -1.694  11.836  19.458  0.00  0.00    +0.000 N 
ATOM      6  C   UNL     1      -3.106  12.038  19.287  0.00  0.00    +0.000 A 
ATOM      7  C   UNL     1      -4.100  12.736  20.013  0.00  0.00    +0.000 A 
ATOM      8  C   UNL     1      -3.958  13.426  21.251  0.00  0.00    +0.000 A 
ATOM      9  C   UNL     1      -5.029  14.088  21.873  0.00  0.00    +0.000 A 
ATOM     10  C   UNL     1      -6.287  14.011  21.286  0.00  0.00    +0.000 A 
ATOM     11  C   UNL     1      -6.454  13.315  20.088  0.00  0.00    +0.000 A 
ATOM     12  C   UNL     1      -5.401  12.689  19.442  0.00  0.00    +0.000 A 
ATOM     13  N   UNL     1      -5.709  12.051  18.296  0.00  0.00    +0.000 NA
ATOM     14  C   UNL     1      -4.741  11.380  17.648  0.00  0.00    +0.000 A 
ATOM     15  C   UNL     1      -3.460  11.345  18.126  0.00  0.00    +0.000 A 
ENDROOT
BRANCH   5  16
ATOM     16  C   UNL     1      -0.792  12.680  20.242  0.00  0.00    +0.000 C 
ATOM     17  C   UNL     1      -0.717  14.117  19.719  0.00  0.00    +0.000 C 
ATOM     18  C   UNL     1       0.366  14.345  18.677  0.00  0.00    +0.000 C 
ATOM     19  N   UNL     1       1.683  13.859  19.126  0.00  0.00    +0.000 NA
ATOM     20  C   UNL     1       1.652  12.427  19.440  0.00  0.00    +0.000 C 
ATOM     21  C   UNL     1       0.601  12.090  20.498  0.00  0.00    +0.000 C 
BRANCH  19  22
ATOM     22  C   UNL     1       2.710  14.127  18.083  0.00  0.00    +0.000 C 
BRANCH  22  23
ATOM     23  C   UNL     1       2.967  15.621  17.971  0.00  0.00    +0.000 C 
ATOM     24  N   UNL     1       3.180  16.860  17.877  0.00  0.00    +0.000 NA
ENDBRANCH  22  23
ENDBRANCH  19  22
ENDBRANCH   5  16
BRANCH   9  25
ATOM     25  C   UNL     1      -4.837  14.833  23.103  0.00  0.00    +0.000 A 
ATOM     26  C   UNL     1      -5.304  16.110  23.499  0.00  0.00    +0.000 A 
ATOM     27  N   UNL     1      -4.872  16.462  24.712  0.00  0.00    +0.000 NA
ATOM     28  N   UNL     1      -4.114  15.423  25.094  0.00  0.00    +0.000 N 
ATOM     29  C   UNL     1      -4.059  14.422  24.165  0.00  0.00    +0.000 A 
ATOM     30  H   UNL     1      -3.658  15.466  25.997  0.00  0.00    +0.000 HD
ENDBRANCH   9  25
TORSDOF 4
ENDMDL
MODEL 8
REMARK VINA RESULT:      -6.0      5.787      9.704
REMARK  Name = 
REMARK  5 active torsions:
REMARK  status: ('A' for Active; 'I' for Inactive)
REMARK    1  A    between atoms: C_1  and  N_2
REMARK    2  A    between atoms: N_5  and  C_6
REMARK    3  A    between atoms: N_9  and  C_10
REMARK    4  A    between atoms: C_10  and  C_11
REMARK    5  A    between atoms: C_18  and  C_19
REMARK                            x       y       z     vdW  Elec       q    Type
REMARK                         _______ _______ _______ _____ _____    ______ ____
ROOT
ATOM      1  C   UNL     1      -2.560   9.891  15.988  0.00  0.00    +0.000 C 
ATOM      2  N   UNL     1      -2.704  10.530  17.267  0.00  0.00    +0.000 N 
ATOM      3  C   UNL     1      -1.717  10.600  18.251  0.00  0.00    +0.000 A 
ATOM      4  O   UNL     1      -0.638  10.032  18.195  0.00  0.00    +0.000 OA
ATOM      5  N   UNL     1      -2.197  11.483  19.259  0.00  0.00    +0.000 N 
ATOM      6  C   UNL     1      -3.527  11.889  18.901  0.00  0.00    +0.000 A 
ATOM      7  C   UNL     1      -4.516  12.690  19.519  0.00  0.00    +0.000 A 
ATOM      8  C   UNL     1      -4.470  13.303  20.804  0.00  0.00    +0.000 A 
ATOM      9  C   UNL     1      -5.525  14.083  21.305  0.00  0.00    +0.000 A 
ATOM     10  C   UNL     1      -6.679  14.208  20.542  0.00  0.00    +0.000 A 
ATOM     11  C   UNL     1      -6.757  13.592  19.293  0.00  0.00    +0.000 A 
ATOM     12  C   UNL     1      -5.712  12.850  18.766  0.00  0.00    +0.000 A 
ATOM     13  N   UNL     1      -5.927  12.308  17.551  0.00  0.00    +0.000 NA
ATOM     14  C   UNL     1      -4.971  11.535  17.008  0.00  0.00    +0.000 A 
ATOM     15  C   UNL     1      -3.793  11.301  17.662  0.00  0.00    +0.000 A 
ENDROOT
BRANCH   5  16
ATOM     16  C   UNL     1      -1.317  12.159  20.213  0.00  0.00    +0.000 C 
ATOM     17  C   UNL     1       0.166  12.020  19.858  0.00  0.00    +0.000 C 
ATOM     18  C   UNL     1       0.841  10.802  20.469  0.00  0.00    +0.000 C 
ATOM     19  N   UNL     1       0.617  10.712  21.922  0.00  0.00    +0.000 NA
ATOM     20  C   UNL     1      -0.811  10.648  22.247  0.00  0.00    +0.000 C 
ATOM     21  C   UNL     1      -1.585  11.843  21.690  0.00  0.00    +0.000 C 
BRANCH  19  22
ATOM     22  C   UNL     1       1.318   9.520  22.474  0.00  0.00    +0.000 C 
BRANCH  22  23
ATOM     23  C   UNL     1       1.424   8.436  21.414  0.00  0.00    +0.000 C 
ATOM     24  N   UNL     1       1.512   7.536  20.536  0.00  0.00    +0.000 NA
ENDBRANCH  22  23
ENDBRANCH  19  22
ENDBRANCH   5  16
BRANCH   9  25
ATOM     25  C   UNL     1      -5.421  14.743  22.594  0.00  0.00    +0.000 A 
ATOM     26  C   UNL     1      -6.137  15.838  23.137  0.00  0.00    +0.000 A 
ATOM     27  N   UNL     1      -5.712  16.174  24.358  0.00  0.00    +0.000 NA
ATOM     28  N   UNL     1      -4.713  15.310  24.597  0.00  0.00    +0.000 N 
ATOM     29  C   UNL     1      -4.498  14.434  23.570  0.00  0.00    +0.000 A 
ATOM     30  H   UNL     1      -4.218  15.379  25.477  0.00  0.00    +0.000 HD
ENDBRANCH   9  25
TORSDOF 4
ENDMDL
MODEL 9
REMARK VINA RESULT:      -5.9      8.606     11.539
REMARK  Name = 
REMARK  5 active torsions:
REMARK  status: ('A' for Active; 'I' for Inactive)
REMARK    1  A    between atoms: C_1  and  N_2
REMARK    2  A    between atoms: N_5  and  C_6
REMARK    3  A    between atoms: N_9  and  C_10
REMARK    4  A    between atoms: C_10  and  C_11
REMARK    5  A    between atoms: C_18  and  C_19
REMARK                            x       y       z     vdW  Elec       q    Type
REMARK                         _______ _______ _______ _____ _____    ______ ____
ROOT
ATOM      1  C   UNL     1       4.149  16.521  23.353  0.00  0.00    +0.000 C 
ATOM      2  N   UNL     1       5.321  15.784  22.969  0.00  0.00    +0.000 N 
ATOM      3  C   UNL     1       6.005  14.876  23.778  0.00  0.00    +0.000 A 
ATOM      4  O   UNL     1       5.759  14.670  24.955  0.00  0.00    +0.000 OA
ATOM      5  N   UNL     1       6.969  14.228  22.953  0.00  0.00    +0.000 N 
ATOM      6  C   UNL     1       6.904  14.817  21.645  0.00  0.00    +0.000 A 
ATOM      7  C   UNL     1       7.633  14.642  20.445  0.00  0.00    +0.000 A 
ATOM      8  C   UNL     1       8.767  13.810  20.223  0.00  0.00    +0.000 A 
ATOM      9  C   UNL     1       9.404  13.720  18.974  0.00  0.00    +0.000 A 
ATOM     10  C   UNL     1       8.946  14.524  17.937  0.00  0.00    +0.000 A 
ATOM     11  C   UNL     1       7.855  15.369  18.141  0.00  0.00    +0.000 A 
ATOM     12  C   UNL     1       7.191  15.441  19.355  0.00  0.00    +0.000 A 
ATOM     13  N   UNL     1       6.157  16.303  19.411  0.00  0.00    +0.000 NA
ATOM     14  C   UNL     1       5.504  16.457  20.576  0.00  0.00    +0.000 A 
ATOM     15  C   UNL     1       5.866  15.751  21.689  0.00  0.00    +0.000 A 
ENDROOT
BRANCH   5  16
ATOM     16  C   UNL     1       7.567  12.936  23.288  0.00  0.00    +0.000 C 
ATOM     17  C   UNL     1       6.535  11.808  23.380  0.00  0.00    +0.000 C 
ATOM     18  C   UNL     1       5.942  11.619  24.767  0.00  0.00    +0.000 C 
ATOM     19  N   UNL     1       6.981  11.495  25.806  0.00  0.00    +0.000 NA
ATOM     20  C   UNL     1       7.852  12.674  25.843  0.00  0.00    +0.000 C 
ATOM     21  C   UNL     1       8.516  12.944  24.492  0.00  0.00    +0.000 C 
BRANCH  19  22
ATOM     22  C   UNL     1       6.350  11.288  27.138  0.00  0.00    +0.000 C 
BRANCH  22  23
ATOM     23  C   UNL     1       4.997  11.978  27.192  0.00  0.00    +0.000 C 
ATOM     24  N   UNL     1       3.874  12.550  27.237  0.00  0.00    +0.000 NA
ENDBRANCH  22  23
ENDBRANCH  19  22
ENDBRANCH   5  16
BRANCH   9  25
ATOM     25  C   UNL     1      10.520  12.816  18.766  0.00  0.00    +0.000 A 
ATOM     26  C   UNL     1      11.400  12.199  19.688  0.00  0.00    +0.000 A 
ATOM     27  N   UNL     1      12.333  11.455  19.088  0.00  0.00    +0.000 NA
ATOM     28  N   UNL     1      12.067  11.603  17.781  0.00  0.00    +0.000 N 
ATOM     29  C   UNL     1      10.992  12.411  17.535  0.00  0.00    +0.000 A 
ATOM     30  H   UNL     1      12.663  11.131  17.113  0.00  0.00    +0.000 HD
ENDBRANCH   9  25
TORSDOF 4
ENDMDL
