MODEL 1
REMARK VINA RESULT:      -7.8      0.000      0.000
REMARK  Name = 
REMARK  11 active torsions:
REMARK  status: ('A' for Active; 'I' for Inactive)
REMARK    1  A    between atoms: C_1  and  C_2
REMARK    2  A    between atoms: C_4  and  O_5
REMARK    3  A    between atoms: O_5  and  C_6
REMARK    4  A    between atoms: C_9  and  C_10
REMARK    5  A    between atoms: C_10  and  C_11
REMARK    6  A    between atoms: C_11  and  C_12
REMARK    7  A    between atoms: C_12  and  C_13
REMARK    8  A    between atoms: N_15  and  C_16
REMARK    9  A    between atoms: N_15  and  C_17
REMARK   10  A    between atoms: C_22  and  N_23
REMARK   11  A    between atoms: C_24  and  C_25
REMARK                            x       y       z     vdW  Elec       q    Type
REMARK                         _______ _______ _______ _____ _____    ______ ____
ROOT
ATOM      1  C   UNL     1       0.483   2.550  18.788  0.00  0.00    +0.000 C 
ATOM      2  C   UNL     1       1.680   3.431  18.576  0.00  0.00    +0.000 A 
ATOM      3  C   UNL     1       1.854   4.570  19.349  0.00  0.00    +0.000 A 
ATOM      4  C   UNL     1       2.900   5.449  19.048  0.00  0.00    +0.000 A 
ATOM      5  C   UNL     1       3.826   5.081  18.043  0.00  0.00    +0.000 A 
ATOM      6  C   UNL     1       5.017   5.696  17.516  0.00  0.00    +0.000 A 
ATOM      7  C   UNL     1       5.576   4.982  16.469  0.00  0.00    +0.000 A 
ATOM      8  S   UNL     1       4.665   3.566  16.133  0.00  0.00    +0.000 S 
ATOM      9  C   UNL     1       3.548   3.901  17.366  0.00  0.00    +0.000 A 
ATOM     10  N   UNL     1       2.508   3.070  17.577  0.00  0.00    +0.000 NA
ENDROOT
BRANCH   7  11
ATOM     11  C   UNL     1       6.754   5.227  15.661  0.00  0.00    +0.000 C 
ATOM     12  N   UNL     1       6.882   4.451  14.536  0.00  0.00    +0.000 N 
ATOM     13  O   UNL     1       7.607   6.082  15.877  0.00  0.00    +0.000 OA
ATOM     14  H   UNL     1       6.076   3.958  14.179  0.00  0.00    +0.000 HD
ATOM     15  H   UNL     1       7.597   4.749  13.885  0.00  0.00    +0.000 HD
ENDBRANCH   7  11
BRANCH   6  16
ATOM     16  N   UNL     1       5.506   6.870  17.995  0.00  0.00    +0.000 N 
ATOM     17  H   UNL     1       6.499   6.929  18.230  0.00  0.00    +0.000 HD
ATOM     18  H   UNL     1       4.943   7.437  18.625  0.00  0.00    +0.000 HD
ENDBRANCH   6  16
BRANCH   4  19
ATOM     19  O   UNL     1       3.063   6.658  19.706  0.00  0.00    +0.000 OA
BRANCH  19  20
ATOM     20  C   UNL     1       2.279   7.726  19.327  0.00  0.00    +0.000 A 
ATOM     21  C   UNL     1       2.286   8.278  18.042  0.00  0.00    +0.000 A 
ATOM     22  C   UNL     1       1.378   9.283  17.707  0.00  0.00    +0.000 A 
ATOM     23  C   UNL     1       0.499   9.800  18.665  0.00  0.00    +0.000 A 
ATOM     24  C   UNL     1       0.564   9.316  19.979  0.00  0.00    +0.000 A 
ATOM     25  C   UNL     1       1.452   8.288  20.299  0.00  0.00    +0.000 A 
ATOM     26  F   UNL     1       1.487   7.834  21.562  0.00  0.00    +0.000 F 
BRANCH  23  27
ATOM     27  C   UNL     1      -0.506  10.853  18.264  0.00  0.00    +0.000 C 
BRANCH  27  28
ATOM     28  C   UNL     1      -1.921  10.603  18.780  0.00  0.00    +0.000 C 
BRANCH  28  29
ATOM     29  C   UNL     1      -2.842   9.945  17.747  0.00  0.00    +0.000 C 
BRANCH  29  30
ATOM     30  C   UNL     1      -3.656  10.986  16.994  0.00  0.00    +0.000 C 
ATOM     31  O   UNL     1      -3.232  11.479  15.947  0.00  0.00    +0.000 OA
ATOM     32  N   UNL     1      -4.883  11.347  17.533  0.00  0.00    +0.000 N 
ATOM     33  C   UNL     1      -5.449  10.829  18.770  0.00  0.00    +0.000 C 
ATOM     34  C   UNL     1      -5.695  12.325  16.826  0.00  0.00    +0.000 C 
ENDBRANCH  29  30
ENDBRANCH  28  29
ENDBRANCH  27  28
ENDBRANCH  23  27
ENDBRANCH  19  20
ENDBRANCH   4  19
TORSDOF 8
ENDMDL
MODEL 2
REMARK VINA RESULT:      -7.6      2.000      2.402
REMARK  Name = 
REMARK  11 active torsions:
REMARK  status: ('A' for Active; 'I' for Inactive)
REMARK    1  A    between atoms: C_1  and  C_2
REMARK    2  A    between atoms: C_4  and  O_5
REMARK    3  A    between atoms: O_5  and  C_6
REMARK    4  A    between atoms: C_9  and  C_10
REMARK    5  A    between atoms: C_10  and  C_11
REMARK    6  A    between atoms: C_11  and  C_12
REMARK    7  A    between atoms: C_12  and  C_13
REMARK    8  A    between atoms: N_15  and  C_16
REMARK    9  A    between atoms: N_15  and  C_17
REMARK   10  A    between atoms: C_22  and  N_23
REMARK   11  A    between atoms: C_24  and  C_25
REMARK                            x       y       z     vdW  Elec       q    Type
REMARK                         _______ _______ _______ _____ _____    ______ ____
ROOT
ATOM      1  C   UNL     1       0.487   2.615  18.830  0.00  0.00    +0.000 C 
ATOM      2  C   UNL     1       1.686   3.483  18.586  0.00  0.00    +0.000 A 
ATOM      3  C   UNL     1       1.883   4.629  19.342  0.00  0.00    +0.000 A 
ATOM      4  C   UNL     1       2.931   5.497  19.013  0.00  0.00    +0.000 A 
ATOM      5  C   UNL     1       3.835   5.110  17.996  0.00  0.00    +0.000 A 
ATOM      6  C   UNL     1       5.021   5.709  17.440  0.00  0.00    +0.000 A 
ATOM      7  C   UNL     1       5.556   4.979  16.391  0.00  0.00    +0.000 A 
ATOM      8  S   UNL     1       4.627   3.567  16.087  0.00  0.00    +0.000 S 
ATOM      9  C   UNL     1       3.535   3.925  17.337  0.00  0.00    +0.000 A 
ATOM     10  N   UNL     1       2.492   3.105  17.576  0.00  0.00    +0.000 NA
ENDROOT
BRANCH   7  11
ATOM     11  C   UNL     1       6.720   5.205  15.559  0.00  0.00    +0.000 C 
ATOM     12  N   UNL     1       6.796   4.453  14.415  0.00  0.00    +0.000 N 
ATOM     13  O   UNL     1       7.605   6.028  15.773  0.00  0.00    +0.000 OA
ATOM     14  H   UNL     1       5.966   3.993  14.067  0.00  0.00    +0.000 HD
ATOM     15  H   UNL     1       7.504   4.742  13.753  0.00  0.00    +0.000 HD
ENDBRANCH   7  11
BRANCH   6  16
ATOM     16  N   UNL     1       5.528   6.884  17.897  0.00  0.00    +0.000 N 
ATOM     17  H   UNL     1       5.205   7.241  18.798  0.00  0.00    +0.000 HD
ATOM     18  H   UNL     1       5.719   7.643  17.246  0.00  0.00    +0.000 HD
ENDBRANCH   6  16
BRANCH   4  19
ATOM     19  O   UNL     1       3.115   6.711  19.654  0.00  0.00    +0.000 OA
BRANCH  19  20
ATOM     20  C   UNL     1       2.276   7.758  19.338  0.00  0.00    +0.000 A 
ATOM     21  C   UNL     1       2.191   8.328  18.064  0.00  0.00    +0.000 A 
ATOM     22  C   UNL     1       1.233   9.307  17.798  0.00  0.00    +0.000 A 
ATOM     23  C   UNL     1       0.395   9.781  18.813  0.00  0.00    +0.000 A 
ATOM     24  C   UNL     1       0.552   9.280  20.113  0.00  0.00    +0.000 A 
ATOM     25  C   UNL     1       1.489   8.278  20.366  0.00  0.00    +0.000 A 
ATOM     26  F   UNL     1       1.613   7.808  21.616  0.00  0.00    +0.000 F 
BRANCH  23  27
ATOM     27  C   UNL     1      -0.665  10.805  18.488  0.00  0.00    +0.000 C 
BRANCH  27  28
ATOM     28  C   UNL     1      -0.312  12.232  18.898  0.00  0.00    +0.000 C 
BRANCH  28  29
ATOM     29  C   UNL     1      -1.427  12.939  19.677  0.00  0.00    +0.000 C 
BRANCH  29  30
ATOM     30  C   UNL     1      -1.421  12.527  21.141  0.00  0.00    +0.000 C 
ATOM     31  O   UNL     1      -0.364  12.252  21.712  0.00  0.00    +0.000 OA
ATOM     32  N   UNL     1      -2.645  12.478  21.793  0.00  0.00    +0.000 N 
ATOM     33  C   UNL     1      -3.938  12.768  21.191  0.00  0.00    +0.000 C 
ATOM     34  C   UNL     1      -2.671  12.107  23.200  0.00  0.00    +0.000 C 
ENDBRANCH  29  30
ENDBRANCH  28  29
ENDBRANCH  27  28
ENDBRANCH  23  27
ENDBRANCH  19  20
ENDBRANCH   4  19
TORSDOF 8
ENDMDL
MODEL 3
REMARK VINA RESULT:      -7.6      1.395      1.741
REMARK  Name = 
REMARK  11 active torsions:
REMARK  status: ('A' for Active; 'I' for Inactive)
REMARK    1  A    between atoms: C_1  and  C_2
REMARK    2  A    between atoms: C_4  and  O_5
REMARK    3  A    between atoms: O_5  and  C_6
REMARK    4  A    between atoms: C_9  and  C_10
REMARK    5  A    between atoms: C_10  and  C_11
REMARK    6  A    between atoms: C_11  and  C_12
REMARK    7  A    between atoms: C_12  and  C_13
REMARK    8  A    between atoms: N_15  and  C_16
REMARK    9  A    between atoms: N_15  and  C_17
REMARK   10  A    between atoms: C_22  and  N_23
REMARK   11  A    between atoms: C_24  and  C_25
REMARK                            x       y       z     vdW  Elec       q    Type
REMARK                         _______ _______ _______ _____ _____    ______ ____
ROOT
ATOM      1  C   UNL     1       0.728   2.507  18.909  0.00  0.00    +0.000 C 
ATOM      2  C   UNL     1       1.916   3.364  18.583  0.00  0.00    +0.000 A 
ATOM      3  C   UNL     1       2.165   4.518  19.311  0.00  0.00    +0.000 A 
ATOM      4  C   UNL     1       3.196   5.375  18.908  0.00  0.00    +0.000 A 
ATOM      5  C   UNL     1       4.034   4.970  17.843  0.00  0.00    +0.000 A 
ATOM      6  C   UNL     1       5.188   5.554  17.210  0.00  0.00    +0.000 A 
ATOM      7  C   UNL     1       5.654   4.807  16.140  0.00  0.00    +0.000 A 
ATOM      8  S   UNL     1       4.700   3.398  15.910  0.00  0.00    +0.000 S 
ATOM      9  C   UNL     1       3.689   3.779  17.219  0.00  0.00    +0.000 A 
ATOM     10  N   UNL     1       2.657   2.968  17.531  0.00  0.00    +0.000 NA
ENDROOT
BRANCH   7  11
ATOM     11  C   UNL     1       6.768   5.016  15.237  0.00  0.00    +0.000 C 
ATOM     12  N   UNL     1       6.765   4.256  14.094  0.00  0.00    +0.000 N 
ATOM     13  O   UNL     1       7.673   5.830  15.390  0.00  0.00    +0.000 OA
ATOM     14  H   UNL     1       5.909   3.804  13.801  0.00  0.00    +0.000 HD
ATOM     15  H   UNL     1       7.433   4.534  13.388  0.00  0.00    +0.000 HD
ENDBRANCH   7  11
BRANCH   6  16
ATOM     16  N   UNL     1       5.729   6.731  17.620  0.00  0.00    +0.000 N 
ATOM     17  H   UNL     1       5.195   7.592  17.481  0.00  0.00    +0.000 HD
ATOM     18  H   UNL     1       6.728   6.896  17.517  0.00  0.00    +0.000 HD
ENDBRANCH   6  16
BRANCH   4  19
ATOM     19  O   UNL     1       3.425   6.595  19.522  0.00  0.00    +0.000 OA
BRANCH  19  20
ATOM     20  C   UNL     1       2.394   7.509  19.580  0.00  0.00    +0.000 A 
ATOM     21  C   UNL     1       1.597   7.708  20.711  0.00  0.00    +0.000 A 
ATOM     22  C   UNL     1       0.650   8.733  20.728  0.00  0.00    +0.000 A 
ATOM     23  C   UNL     1       0.436   9.526  19.595  0.00  0.00    +0.000 A 
ATOM     24  C   UNL     1       1.166   9.257  18.429  0.00  0.00    +0.000 A 
ATOM     25  C   UNL     1       2.134   8.253  18.430  0.00  0.00    +0.000 A 
ATOM     26  F   UNL     1       2.827   8.021  17.304  0.00  0.00    +0.000 F 
BRANCH  23  27
ATOM     27  C   UNL     1      -0.559  10.660  19.655  0.00  0.00    +0.000 C 
BRANCH  27  28
ATOM     28  C   UNL     1      -1.588  10.657  18.528  0.00  0.00    +0.000 C 
BRANCH  28  29
ATOM     29  C   UNL     1      -2.257  12.019  18.307  0.00  0.00    +0.000 C 
BRANCH  29  30
ATOM     30  C   UNL     1      -3.550  12.132  19.099  0.00  0.00    +0.000 C 
ATOM     31  O   UNL     1      -3.533  12.469  20.285  0.00  0.00    +0.000 OA
ATOM     32  N   UNL     1      -4.732  11.842  18.433  0.00  0.00    +0.000 N 
ATOM     33  C   UNL     1      -4.841  11.420  17.044  0.00  0.00    +0.000 C 
ATOM     34  C   UNL     1      -5.988  11.961  19.158  0.00  0.00    +0.000 C 
ENDBRANCH  29  30
ENDBRANCH  28  29
ENDBRANCH  27  28
ENDBRANCH  23  27
ENDBRANCH  19  20
ENDBRANCH   4  19
TORSDOF 8
ENDMDL
MODEL 4
REMARK VINA RESULT:      -7.5      1.112      1.437
REMARK  Name = 
REMARK  11 active torsions:
REMARK  status: ('A' for Active; 'I' for Inactive)
REMARK    1  A    between atoms: C_1  and  C_2
REMARK    2  A    between atoms: C_4  and  O_5
REMARK    3  A    between atoms: O_5  and  C_6
REMARK    4  A    between atoms: C_9  and  C_10
REMARK    5  A    between atoms: C_10  and  C_11
REMARK    6  A    between atoms: C_11  and  C_12
REMARK    7  A    between atoms: C_12  and  C_13
REMARK    8  A    between atoms: N_15  and  C_16
REMARK    9  A    between atoms: N_15  and  C_17
REMARK   10  A    between atoms: C_22  and  N_23
REMARK   11  A    between atoms: C_24  and  C_25
REMARK                            x       y       z     vdW  Elec       q    Type
REMARK                         _______ _______ _______ _____ _____    ______ ____
ROOT
ATOM      1  C   UNL     1       0.441   2.721  18.945  0.00  0.00    +0.000 C 
ATOM      2  C   UNL     1       1.684   3.519  18.676  0.00  0.00    +0.000 A 
ATOM      3  C   UNL     1       1.919   4.699  19.365  0.00  0.00    +0.000 A 
ATOM      4  C   UNL     1       3.011   5.497  19.007  0.00  0.00    +0.000 A 
ATOM      5  C   UNL     1       3.916   5.008  18.035  0.00  0.00    +0.000 A 
ATOM      6  C   UNL     1       5.139   5.518  17.471  0.00  0.00    +0.000 A 
ATOM      7  C   UNL     1       5.660   4.701  16.481  0.00  0.00    +0.000 A 
ATOM      8  S   UNL     1       4.673   3.317  16.242  0.00  0.00    +0.000 S 
ATOM      9  C   UNL     1       3.575   3.799  17.443  0.00  0.00    +0.000 A 
ATOM     10  N   UNL     1       2.492   3.043  17.709  0.00  0.00    +0.000 NA
ENDROOT
BRANCH   7  11
ATOM     11  C   UNL     1       6.850   4.824  15.663  0.00  0.00    +0.000 C 
ATOM     12  N   UNL     1       6.660   5.321  14.398  0.00  0.00    +0.000 N 
ATOM     13  O   UNL     1       7.995   4.562  16.018  0.00  0.00    +0.000 OA
ATOM     14  H   UNL     1       5.803   5.810  14.180  0.00  0.00    +0.000 HD
ATOM     15  H   UNL     1       7.504   5.577  13.903  0.00  0.00    +0.000 HD
ENDBRANCH   7  11
BRANCH   6  16
ATOM     16  N   UNL     1       5.691   6.695  17.866  0.00  0.00    +0.000 N 
ATOM     17  H   UNL     1       5.762   6.893  18.867  0.00  0.00    +0.000 HD
ATOM     18  H   UNL     1       5.513   7.545  17.334  0.00  0.00    +0.000 HD
ENDBRANCH   6  16
BRANCH   4  19
ATOM     19  O   UNL     1       3.239   6.739  19.577  0.00  0.00    +0.000 OA
BRANCH  19  20
ATOM     20  C   UNL     1       2.253   7.698  19.483  0.00  0.00    +0.000 A 
ATOM     21  C   UNL     1       1.406   8.048  20.539  0.00  0.00    +0.000 A 
ATOM     22  C   UNL     1       0.512   9.110  20.398  0.00  0.00    +0.000 A 
ATOM     23  C   UNL     1       0.401   9.792  19.181  0.00  0.00    +0.000 A 
ATOM     24  C   UNL     1       1.179   9.373  18.092  0.00  0.00    +0.000 A 
ATOM     25  C   UNL     1       2.094   8.331  18.250  0.00  0.00    +0.000 A 
ATOM     26  F   UNL     1       2.834   7.956  17.196  0.00  0.00    +0.000 F 
BRANCH  23  27
ATOM     27  C   UNL     1      -0.538  10.969  19.068  0.00  0.00    +0.000 C 
BRANCH  27  28
ATOM     28  C   UNL     1      -1.922  10.623  18.525  0.00  0.00    +0.000 C 
BRANCH  28  29
ATOM     29  C   UNL     1      -2.570  11.764  17.732  0.00  0.00    +0.000 C 
BRANCH  29  30
ATOM     30  C   UNL     1      -4.011  11.433  17.371  0.00  0.00    +0.000 C 
ATOM     31  O   UNL     1      -4.282  10.897  16.295  0.00  0.00    +0.000 OA
ATOM     32  N   UNL     1      -4.989  11.757  18.300  0.00  0.00    +0.000 N 
ATOM     33  C   UNL     1      -4.758  12.406  19.583  0.00  0.00    +0.000 C 
ATOM     34  C   UNL     1      -6.375  11.435  17.995  0.00  0.00    +0.000 C 
ENDBRANCH  29  30
ENDBRANCH  28  29
ENDBRANCH  27  28
ENDBRANCH  23  27
ENDBRANCH  19  20
ENDBRANCH   4  19
TORSDOF 8
ENDMDL
MODEL 5
REMARK VINA RESULT:      -7.5      4.123      9.581
REMARK  Name = 
REMARK  11 active torsions:
REMARK  status: ('A' for Active; 'I' for Inactive)
REMARK    1  A    between atoms: C_1  and  C_2
REMARK    2  A    between atoms: C_4  and  O_5
REMARK    3  A    between atoms: O_5  and  C_6
REMARK    4  A    between atoms: C_9  and  C_10
REMARK    5  A    between atoms: C_10  and  C_11
REMARK    6  A    between atoms: C_11  and  C_12
REMARK    7  A    between atoms: C_12  and  C_13
REMARK    8  A    between atoms: N_15  and  C_16
REMARK    9  A    between atoms: N_15  and  C_17
REMARK   10  A    between atoms: C_22  and  N_23
REMARK   11  A    between atoms: C_24  and  C_25
REMARK                            x       y       z     vdW  Elec       q    Type
REMARK                         _______ _______ _______ _____ _____    ______ ____
ROOT
ATOM      1  C   UNL     1      -3.168   9.903  16.396  0.00  0.00    +0.000 C 
ATOM      2  C   UNL     1      -2.537  10.632  17.546  0.00  0.00    +0.000 A 
ATOM      3  C   UNL     1      -1.178  10.504  17.793  0.00  0.00    +0.000 A 
ATOM      4  C   UNL     1      -0.633  11.080  18.945  0.00  0.00    +0.000 A 
ATOM      5  C   UNL     1      -1.465  11.887  19.757  0.00  0.00    +0.000 A 
ATOM      6  C   UNL     1      -1.242  12.654  20.955  0.00  0.00    +0.000 A 
ATOM      7  C   UNL     1      -2.395  13.247  21.441  0.00  0.00    +0.000 A 
ATOM      8  S   UNL     1      -3.743  12.881  20.442  0.00  0.00    +0.000 S 
ATOM      9  C   UNL     1      -2.800  11.952  19.380  0.00  0.00    +0.000 A 
ATOM     10  N   UNL     1      -3.374  11.347  18.321  0.00  0.00    +0.000 NA
ENDROOT
BRANCH   7  11
ATOM     11  C   UNL     1      -2.628  14.091  22.596  0.00  0.00    +0.000 C 
ATOM     12  N   UNL     1      -2.585  15.444  22.370  0.00  0.00    +0.000 N 
ATOM     13  O   UNL     1      -2.895  13.699  23.728  0.00  0.00    +0.000 OA
ATOM     14  H   UNL     1      -2.659  15.791  21.424  0.00  0.00    +0.000 HD
ATOM     15  H   UNL     1      -2.927  16.019  23.127  0.00  0.00    +0.000 HD
ENDBRANCH   7  11
BRANCH   6  16
ATOM     16  N   UNL     1      -0.021  12.749  21.545  0.00  0.00    +0.000 N 
ATOM     17  H   UNL     1       0.052  13.212  22.453  0.00  0.00    +0.000 HD
ATOM     18  H   UNL     1       0.807  12.919  20.977  0.00  0.00    +0.000 HD
ENDBRANCH   6  16
BRANCH   4  19
ATOM     19  O   UNL     1       0.691  10.896  19.309  0.00  0.00    +0.000 OA
BRANCH  19  20
ATOM     20  C   UNL     1       1.123   9.620  19.603  0.00  0.00    +0.000 A 
ATOM     21  C   UNL     1       0.902   8.989  20.830  0.00  0.00    +0.000 A 
ATOM     22  C   UNL     1       1.270   7.654  21.007  0.00  0.00    +0.000 A 
ATOM     23  C   UNL     1       1.925   6.953  19.989  0.00  0.00    +0.000 A 
ATOM     24  C   UNL     1       2.237   7.620  18.796  0.00  0.00    +0.000 A 
ATOM     25  C   UNL     1       1.838   8.944  18.613  0.00  0.00    +0.000 A 
ATOM     26  F   UNL     1       2.139   9.557  17.458  0.00  0.00    +0.000 F 
BRANCH  23  27
ATOM     27  C   UNL     1       2.268   5.496  20.188  0.00  0.00    +0.000 C 
BRANCH  27  28
ATOM     28  C   UNL     1       1.084   4.615  20.573  0.00  0.00    +0.000 C 
BRANCH  28  29
ATOM     29  C   UNL     1       1.465   3.152  20.824  0.00  0.00    +0.000 C 
BRANCH  29  30
ATOM     30  C   UNL     1       1.800   2.440  19.523  0.00  0.00    +0.000 C 
ATOM     31  O   UNL     1       0.918   2.182  18.702  0.00  0.00    +0.000 OA
ATOM     32  N   UNL     1       3.128   2.101  19.306  0.00  0.00    +0.000 N 
ATOM     33  C   UNL     1       4.227   2.351  20.227  0.00  0.00    +0.000 C 
ATOM     34  C   UNL     1       3.485   1.438  18.061  0.00  0.00    +0.000 C 
ENDBRANCH  29  30
ENDBRANCH  28  29
ENDBRANCH  27  28
ENDBRANCH  23  27
ENDBRANCH  19  20
ENDBRANCH   4  19
TORSDOF 8
ENDMDL
MODEL 6
REMARK VINA RESULT:      -7.5      2.594      3.367
REMARK  Name = 
REMARK  11 active torsions:
REMARK  status: ('A' for Active; 'I' for Inactive)
REMARK    1  A    between atoms: C_1  and  C_2
REMARK    2  A    between atoms: C_4  and  O_5
REMARK    3  A    between atoms: O_5  and  C_6
REMARK    4  A    between atoms: C_9  and  C_10
REMARK    5  A    between atoms: C_10  and  C_11
REMARK    6  A    between atoms: C_11  and  C_12
REMARK    7  A    between atoms: C_12  and  C_13
REMARK    8  A    between atoms: N_15  and  C_16
REMARK    9  A    between atoms: N_15  and  C_17
REMARK   10  A    between atoms: C_22  and  N_23
REMARK   11  A    between atoms: C_24  and  C_25
REMARK                            x       y       z     vdW  Elec       q    Type
REMARK                         _______ _______ _______ _____ _____    ______ ____
ROOT
ATOM      1  C   UNL     1       0.698   3.091  20.123  0.00  0.00    +0.000 C 
ATOM      2  C   UNL     1       1.818   3.867  19.493  0.00  0.00    +0.000 A 
ATOM      3  C   UNL     1       2.056   5.180  19.870  0.00  0.00    +0.000 A 
ATOM      4  C   UNL     1       3.015   5.929  19.178  0.00  0.00    +0.000 A 
ATOM      5  C   UNL     1       3.802   5.280  18.197  0.00  0.00    +0.000 A 
ATOM      6  C   UNL     1       4.882   5.709  17.346  0.00  0.00    +0.000 A 
ATOM      7  C   UNL     1       5.313   4.719  16.479  0.00  0.00    +0.000 A 
ATOM      8  S   UNL     1       4.418   3.271  16.703  0.00  0.00    +0.000 S 
ATOM      9  C   UNL     1       3.476   3.956  17.937  0.00  0.00    +0.000 A 
ATOM     10  N   UNL     1       2.508   3.227  18.529  0.00  0.00    +0.000 NA
ENDROOT
BRANCH   7  11
ATOM     11  C   UNL     1       6.354   4.713  15.471  0.00  0.00    +0.000 C 
ATOM     12  N   UNL     1       6.285   3.705  14.542  0.00  0.00    +0.000 N 
ATOM     13  O   UNL     1       7.250   5.544  15.360  0.00  0.00    +0.000 OA
ATOM     14  H   UNL     1       5.421   3.193  14.429  0.00  0.00    +0.000 HD
ATOM     15  H   UNL     1       6.895   3.811  13.743  0.00  0.00    +0.000 HD
ENDBRANCH   7  11
BRANCH   6  16
ATOM     16  N   UNL     1       5.389   6.969  17.389  0.00  0.00    +0.000 N 
ATOM     17  H   UNL     1       5.450   7.444  18.292  0.00  0.00    +0.000 HD
ATOM     18  H   UNL     1       5.182   7.627  16.640  0.00  0.00    +0.000 HD
ENDBRANCH   6  16
BRANCH   4  19
ATOM     19  O   UNL     1       3.223   7.275  19.428  0.00  0.00    +0.000 OA
BRANCH  19  20
ATOM     20  C   UNL     1       2.133   8.119  19.448  0.00  0.00    +0.000 A 
ATOM     21  C   UNL     1       1.368   8.374  20.591  0.00  0.00    +0.000 A 
ATOM     22  C   UNL     1       0.353   9.330  20.554  0.00  0.00    +0.000 A 
ATOM     23  C   UNL     1       0.039   9.994  19.363  0.00  0.00    +0.000 A 
ATOM     24  C   UNL     1       0.740   9.662  18.195  0.00  0.00    +0.000 A 
ATOM     25  C   UNL     1       1.776   8.729  18.246  0.00  0.00    +0.000 A 
ATOM     26  F   UNL     1       2.439   8.437  17.116  0.00  0.00    +0.000 F 
BRANCH  23  27
ATOM     27  C   UNL     1      -1.031  11.059  19.362  0.00  0.00    +0.000 C 
BRANCH  27  28
ATOM     28  C   UNL     1      -1.365  11.621  20.741  0.00  0.00    +0.000 C 
BRANCH  28  29
ATOM     29  C   UNL     1      -1.011  13.103  20.900  0.00  0.00    +0.000 C 
BRANCH  29  30
ATOM     30  C   UNL     1       0.477  13.339  20.690  0.00  0.00    +0.000 C 
ATOM     31  O   UNL     1       1.310  12.755  21.386  0.00  0.00    +0.000 OA
ATOM     32  N   UNL     1       0.846  14.228  19.690  0.00  0.00    +0.000 N 
ATOM     33  C   UNL     1      -0.070  14.971  18.837  0.00  0.00    +0.000 C 
ATOM     34  C   UNL     1       2.262  14.459  19.450  0.00  0.00    +0.000 C 
ENDBRANCH  29  30
ENDBRANCH  28  29
ENDBRANCH  27  28
ENDBRANCH  23  27
ENDBRANCH  19  20
ENDBRANCH   4  19
TORSDOF 8
ENDMDL
MODEL 7
REMARK VINA RESULT:      -7.5      2.389      3.035
REMARK  Name = 
REMARK  11 active torsions:
REMARK  status: ('A' for Active; 'I' for Inactive)
REMARK    1  A    between atoms: C_1  and  C_2
REMARK    2  A    between atoms: C_4  and  O_5
REMARK    3  A    between atoms: O_5  and  C_6
REMARK    4  A    between atoms: C_9  and  C_10
REMARK    5  A    between atoms: C_10  and  C_11
REMARK    6  A    between atoms: C_11  and  C_12
REMARK    7  A    between atoms: C_12  and  C_13
REMARK    8  A    between atoms: N_15  and  C_16
REMARK    9  A    between atoms: N_15  and  C_17
REMARK   10  A    between atoms: C_22  and  N_23
REMARK   11  A    between atoms: C_24  and  C_25
REMARK                            x       y       z     vdW  Elec       q    Type
REMARK                         _______ _______ _______ _____ _____    ______ ____
ROOT
ATOM      1  C   UNL     1       0.735   3.131  20.258  0.00  0.00    +0.000 C 
ATOM      2  C   UNL     1       1.804   3.954  19.600  0.00  0.00    +0.000 A 
ATOM      3  C   UNL     1       2.017   5.266  19.995  0.00  0.00    +0.000 A 
ATOM      4  C   UNL     1       2.924   6.059  19.282  0.00  0.00    +0.000 A 
ATOM      5  C   UNL     1       3.691   5.455  18.258  0.00  0.00    +0.000 A 
ATOM      6  C   UNL     1       4.722   5.935  17.375  0.00  0.00    +0.000 A 
ATOM      7  C   UNL     1       5.149   4.976  16.471  0.00  0.00    +0.000 A 
ATOM      8  S   UNL     1       4.308   3.497  16.699  0.00  0.00    +0.000 S 
ATOM      9  C   UNL     1       3.395   4.126  17.983  0.00  0.00    +0.000 A 
ATOM     10  N   UNL     1       2.476   3.355  18.598  0.00  0.00    +0.000 NA
ENDROOT
BRANCH   7  11
ATOM     11  C   UNL     1       6.149   5.023  15.423  0.00  0.00    +0.000 C 
ATOM     12  N   UNL     1       5.842   4.345  14.270  0.00  0.00    +0.000 N 
ATOM     13  O   UNL     1       7.207   5.642  15.468  0.00  0.00    +0.000 OA
ATOM     14  H   UNL     1       4.884   4.079  14.090  0.00  0.00    +0.000 HD
ATOM     15  H   UNL     1       6.450   4.532  13.483  0.00  0.00    +0.000 HD
ENDBRANCH   7  11
BRANCH   6  16
ATOM     16  N   UNL     1       5.191   7.209  17.424  0.00  0.00    +0.000 N 
ATOM     17  H   UNL     1       5.892   7.502  16.741  0.00  0.00    +0.000 HD
ATOM     18  H   UNL     1       5.340   7.662  18.323  0.00  0.00    +0.000 HD
ENDBRANCH   6  16
BRANCH   4  19
ATOM     19  O   UNL     1       3.100   7.406  19.553  0.00  0.00    +0.000 OA
BRANCH  19  20
ATOM     20  C   UNL     1       2.066   8.275  19.277  0.00  0.00    +0.000 A 
ATOM     21  C   UNL     1       1.777   8.757  17.997  0.00  0.00    +0.000 A 
ATOM     22  C   UNL     1       0.642   9.541  17.784  0.00  0.00    +0.000 A 
ATOM     23  C   UNL     1      -0.179   9.914  18.853  0.00  0.00    +0.000 A 
ATOM     24  C   UNL     1       0.170   9.514  20.151  0.00  0.00    +0.000 A 
ATOM     25  C   UNL     1       1.288   8.703  20.352  0.00  0.00    +0.000 A 
ATOM     26  F   UNL     1       1.596   8.326  21.603  0.00  0.00    +0.000 F 
BRANCH  23  27
ATOM     27  C   UNL     1      -1.427  10.721  18.589  0.00  0.00    +0.000 C 
BRANCH  27  28
ATOM     28  C   UNL     1      -1.360  12.166  19.077  0.00  0.00    +0.000 C 
BRANCH  28  29
ATOM     29  C   UNL     1      -0.495  13.071  18.193  0.00  0.00    +0.000 C 
BRANCH  29  30
ATOM     30  C   UNL     1       0.696  13.617  18.964  0.00  0.00    +0.000 C 
ATOM     31  O   UNL     1       1.601  12.868  19.337  0.00  0.00    +0.000 OA
ATOM     32  N   UNL     1       0.716  14.981  19.223  0.00  0.00    +0.000 N 
ATOM     33  C   UNL     1      -0.316  15.932  18.836  0.00  0.00    +0.000 C 
ATOM     34  C   UNL     1       1.853  15.538  19.940  0.00  0.00    +0.000 C 
ENDBRANCH  29  30
ENDBRANCH  28  29
ENDBRANCH  27  28
ENDBRANCH  23  27
ENDBRANCH  19  20
ENDBRANCH   4  19
TORSDOF 8
ENDMDL
MODEL 8
REMARK VINA RESULT:      -7.4      2.338      3.147
REMARK  Name = 
REMARK  11 active torsions:
REMARK  status: ('A' for Active; 'I' for Inactive)
REMARK    1  A    between atoms: C_1  and  C_2
REMARK    2  A    between atoms: C_4  and  O_5
REMARK    3  A    between atoms: O_5  and  C_6
REMARK    4  A    between atoms: C_9  and  C_10
REMARK    5  A    between atoms: C_10  and  C_11
REMARK    6  A    between atoms: C_11  and  C_12
REMARK    7  A    between atoms: C_12  and  C_13
REMARK    8  A    between atoms: N_15  and  C_16
REMARK    9  A    between atoms: N_15  and  C_17
REMARK   10  A    between atoms: C_22  and  N_23
REMARK   11  A    between atoms: C_24  and  C_25
REMARK                            x       y       z     vdW  Elec       q    Type
REMARK                         _______ _______ _______ _____ _____    ______ ____
ROOT
ATOM      1  C   UNL     1       0.529   2.862  19.378  0.00  0.00    +0.000 C 
ATOM      2  C   UNL     1       1.698   3.717  18.983  0.00  0.00    +0.000 A 
ATOM      3  C   UNL     1       1.905   4.943  19.598  0.00  0.00    +0.000 A 
ATOM      4  C   UNL     1       2.918   5.785  19.125  0.00  0.00    +0.000 A 
ATOM      5  C   UNL     1       3.784   5.301  18.116  0.00  0.00    +0.000 A 
ATOM      6  C   UNL     1       4.931   5.853  17.442  0.00  0.00    +0.000 A 
ATOM      7  C   UNL     1       5.433   5.019  16.457  0.00  0.00    +0.000 A 
ATOM      8  S   UNL     1       4.521   3.568  16.355  0.00  0.00    +0.000 S 
ATOM      9  C   UNL     1       3.480   4.046  17.607  0.00  0.00    +0.000 A 
ATOM     10  N   UNL     1       2.466   3.241  17.985  0.00  0.00    +0.000 NA
ENDROOT
BRANCH   7  11
ATOM     11  C   UNL     1       6.554   5.169  15.552  0.00  0.00    +0.000 C 
ATOM     12  N   UNL     1       6.528   4.384  14.427  0.00  0.00    +0.000 N 
ATOM     13  O   UNL     1       7.486   5.956  15.688  0.00  0.00    +0.000 OA
ATOM     14  H   UNL     1       5.658   3.954  14.142  0.00  0.00    +0.000 HD
ATOM     15  H   UNL     1       7.206   4.623  13.716  0.00  0.00    +0.000 HD
ENDBRANCH   7  11
BRANCH   6  16
ATOM     16  N   UNL     1       5.433   7.080  17.742  0.00  0.00    +0.000 N 
ATOM     17  H   UNL     1       6.345   7.139  18.200  0.00  0.00    +0.000 HD
ATOM     18  H   UNL     1       4.812   7.821  18.059  0.00  0.00    +0.000 HD
ENDBRANCH   6  16
BRANCH   4  19
ATOM     19  O   UNL     1       3.106   7.066  19.619  0.00  0.00    +0.000 OA
BRANCH  19  20
ATOM     20  C   UNL     1       2.155   8.025  19.342  0.00  0.00    +0.000 A 
ATOM     21  C   UNL     1       1.963   8.586  18.076  0.00  0.00    +0.000 A 
ATOM     22  C   UNL     1       0.903   9.466  17.854  0.00  0.00    +0.000 A 
ATOM     23  C   UNL     1       0.063   9.852  18.904  0.00  0.00    +0.000 A 
ATOM     24  C   UNL     1       0.321   9.367  20.194  0.00  0.00    +0.000 A 
ATOM     25  C   UNL     1       1.362   8.463  20.403  0.00  0.00    +0.000 A 
ATOM     26  F   UNL     1       1.582   8.005  21.645  0.00  0.00    +0.000 F 
BRANCH  23  27
ATOM     27  C   UNL     1      -1.106  10.766  18.627  0.00  0.00    +0.000 C 
BRANCH  27  28
ATOM     28  C   UNL     1      -0.720  12.212  18.326  0.00  0.00    +0.000 C 
BRANCH  28  29
ATOM     29  C   UNL     1       0.064  12.885  19.459  0.00  0.00    +0.000 C 
BRANCH  29  30
ATOM     30  C   UNL     1       0.348  14.344  19.138  0.00  0.00    +0.000 C 
ATOM     31  O   UNL     1      -0.541  15.193  19.233  0.00  0.00    +0.000 OA
ATOM     32  N   UNL     1       1.637  14.670  18.743  0.00  0.00    +0.000 N 
ATOM     33  C   UNL     1       2.738  13.731  18.588  0.00  0.00    +0.000 C 
ATOM     34  C   UNL     1       1.946  16.061  18.450  0.00  0.00    +0.000 C 
ENDBRANCH  29  30
ENDBRANCH  28  29
ENDBRANCH  27  28
ENDBRANCH  23  27
ENDBRANCH  19  20
ENDBRANCH   4  19
TORSDOF 8
ENDMDL
MODEL 9
REMARK VINA RESULT:      -7.3      4.078      9.653
REMARK  Name = 
REMARK  11 active torsions:
REMARK  status: ('A' for Active; 'I' for Inactive)
REMARK    1  A    between atoms: C_1  and  C_2
REMARK    2  A    between atoms: C_4  and  O_5
REMARK    3  A    between atoms: O_5  and  C_6
REMARK    4  A    between atoms: C_9  and  C_10
REMARK    5  A    between atoms: C_10  and  C_11
REMARK    6  A    between atoms: C_11  and  C_12
REMARK    7  A    between atoms: C_12  and  C_13
REMARK    8  A    between atoms: N_15  and  C_16
REMARK    9  A    between atoms: N_15  and  C_17
REMARK   10  A    between atoms: C_22  and  N_23
REMARK   11  A    between atoms: C_24  and  C_25
REMARK                            x       y       z     vdW  Elec       q    Type
REMARK                         _______ _______ _______ _____ _____    ______ ____
ROOT
ATOM      1  C   UNL     1      -3.063   9.708  16.191  0.00  0.00    +0.000 C 
ATOM      2  C   UNL     1      -2.558  10.504  17.359  0.00  0.00    +0.000 A 
ATOM      3  C   UNL     1      -1.214  10.473  17.696  0.00  0.00    +0.000 A 
ATOM      4  C   UNL     1      -0.784  11.113  18.865  0.00  0.00    +0.000 A 
ATOM      5  C   UNL     1      -1.719  11.881  19.598  0.00  0.00    +0.000 A 
ATOM      6  C   UNL     1      -1.627  12.691  20.785  0.00  0.00    +0.000 A 
ATOM      7  C   UNL     1      -2.846  13.216  21.178  0.00  0.00    +0.000 A 
ATOM      8  S   UNL     1      -4.098  12.737  20.106  0.00  0.00    +0.000 S 
ATOM      9  C   UNL     1      -3.027  11.848  19.134  0.00  0.00    +0.000 A 
ATOM     10  N   UNL     1      -3.490  11.181  18.058  0.00  0.00    +0.000 NA
ENDROOT
BRANCH   7  11
ATOM     11  C   UNL     1      -3.210  14.070  22.292  0.00  0.00    +0.000 C 
ATOM     12  N   UNL     1      -4.496  13.942  22.751  0.00  0.00    +0.000 N 
ATOM     13  O   UNL     1      -2.462  14.852  22.870  0.00  0.00    +0.000 OA
ATOM     14  H   UNL     1      -5.034  13.124  22.501  0.00  0.00    +0.000 HD
ATOM     15  H   UNL     1      -4.687  14.397  23.634  0.00  0.00    +0.000 HD
ENDBRANCH   7  11
BRANCH   6  16
ATOM     16  N   UNL     1      -0.456  12.881  21.450  0.00  0.00    +0.000 N 
ATOM     17  H   UNL     1      -0.015  12.080  21.907  0.00  0.00    +0.000 HD
ATOM     18  H   UNL     1      -0.304  13.737  21.978  0.00  0.00    +0.000 HD
ENDBRANCH   6  16
BRANCH   4  19
ATOM     19  O   UNL     1       0.522  11.026  19.318  0.00  0.00    +0.000 OA
BRANCH  19  20
ATOM     20  C   UNL     1       1.056   9.778  19.555  0.00  0.00    +0.000 A 
ATOM     21  C   UNL     1       0.933   9.098  20.771  0.00  0.00    +0.000 A 
ATOM     22  C   UNL     1       1.403   7.790  20.892  0.00  0.00    +0.000 A 
ATOM     23  C   UNL     1       2.063   7.167  19.827  0.00  0.00    +0.000 A 
ATOM     24  C   UNL     1       2.276   7.887  18.644  0.00  0.00    +0.000 A 
ATOM     25  C   UNL     1       1.775   9.183  18.518  0.00  0.00    +0.000 A 
ATOM     26  F   UNL     1       1.982   9.848  17.371  0.00  0.00    +0.000 F 
BRANCH  23  27
ATOM     27  C   UNL     1       2.518   5.734  19.967  0.00  0.00    +0.000 C 
BRANCH  27  28
ATOM     28  C   UNL     1       1.877   4.978  21.127  0.00  0.00    +0.000 C 
BRANCH  28  29
ATOM     29  C   UNL     1       1.414   3.564  20.755  0.00  0.00    +0.000 C 
BRANCH  29  30
ATOM     30  C   UNL     1       2.598   2.668  20.424  0.00  0.00    +0.000 C 
ATOM     31  O   UNL     1       3.420   2.367  21.291  0.00  0.00    +0.000 OA
ATOM     32  N   UNL     1       2.704   2.212  19.118  0.00  0.00    +0.000 N 
ATOM     33  C   UNL     1       1.791   2.534  18.031  0.00  0.00    +0.000 C 
ATOM     34  C   UNL     1       3.814   1.336  18.774  0.00  0.00    +0.000 C 
ENDBRANCH  29  30
ENDBRANCH  28  29
ENDBRANCH  27  28
ENDBRANCH  23  27
ENDBRANCH  19  20
ENDBRANCH   4  19
TORSDOF 8
ENDMDL
