MODEL 1
REMARK VINA RESULT:      -6.5      0.000      0.000
REMARK  Name = 
REMARK  15 active torsions:
REMARK  status: ('A' for Active; 'I' for Inactive)
REMARK    1  A    between atoms: C_2  and  C_3
REMARK    2  A    between atoms: C_3  and  N_4
REMARK    3  A    between atoms: C_5  and  S_6
REMARK    4  A    between atoms: S_6  and  C_7
REMARK    5  A    between atoms: C_7  and  C_8
REMARK    6  A    between atoms: C_8  and  O_9
REMARK    7  A    between atoms: O_9  and  C_10
REMARK    8  A    between atoms: C_13  and  O_14
REMARK    9  A    between atoms: O_14  and  C_15
REMARK   10  A    between atoms: C_20  and  C_21
REMARK   11  A    between atoms: C_21  and  C_22
REMARK   12  A    between atoms: C_21  and  N_23
REMARK   13  A    between atoms: C_24  and  C_26
REMARK   14  A    between atoms: C_29  and  O_30
REMARK   15  A    between atoms: O_30  and  C_31
REMARK                            x       y       z     vdW  Elec       q    Type
REMARK                         _______ _______ _______ _____ _____    ______ ____
ROOT
ATOM      1  N   UNL     1       1.762   8.157  20.120  0.00  0.00    +0.000 N 
ATOM      2  C   UNL     1       2.194   6.956  19.599  0.00  0.00    +0.000 A 
ATOM      3  N   UNL     1       2.375   7.076  18.307  0.00  0.00    +0.000 NA
ATOM      4  N   UNL     1       2.039   8.359  17.955  0.00  0.00    +0.000 NA
ATOM      5  C   UNL     1       1.683   9.026  19.040  0.00  0.00    +0.000 A 
ENDROOT
BRANCH   5   6
ATOM      6  C   UNL     1       1.355  10.504  19.083  0.00  0.00    +0.000 C 
ATOM      7  C   UNL     1       2.124  11.242  17.980  0.00  0.00    +0.000 C 
BRANCH   6   8
ATOM      8  N   UNL     1      -0.088  10.715  18.939  0.00  0.00    +0.000 N 
ATOM      9  C   UNL     1      -0.730  11.721  19.647  0.00  0.00    +0.000 C 
ATOM     10  O   UNL     1      -0.169  12.414  20.484  0.00  0.00    +0.000 OA
ATOM     11  H   UNL     1      -0.498  10.402  18.069  0.00  0.00    +0.000 HD
BRANCH   9  12
ATOM     12  C   UNL     1      -2.180  11.952  19.353  0.00  0.00    +0.000 A 
ATOM     13  C   UNL     1      -2.772  11.460  18.193  0.00  0.00    +0.000 A 
ATOM     14  C   UNL     1      -4.154  11.623  17.984  0.00  0.00    +0.000 A 
ATOM     15  C   UNL     1      -4.950  12.258  18.944  0.00  0.00    +0.000 A 
ATOM     16  C   UNL     1      -4.356  12.764  20.098  0.00  0.00    +0.000 A 
ATOM     17  C   UNL     1      -2.974  12.609  20.304  0.00  0.00    +0.000 A 
BRANCH  15  18
ATOM     18  O   UNL     1      -6.270  12.360  18.624  0.00  0.00    +0.000 OA
ATOM     19  C   UNL     1      -6.950  11.133  18.372  0.00  0.00    +0.000 C 
ENDBRANCH  15  18
ENDBRANCH   9  12
ENDBRANCH   6   8
ENDBRANCH   5   6
BRANCH   1  20
ATOM     20  C   UNL     1       1.386   8.438  21.498  0.00  0.00    +0.000 C 
BRANCH  20  22
ATOM     21  C   UNL     1      -0.674   9.340  22.608  0.00  0.00    +0.000 C 
ATOM     22  C   UNL     1      -0.098   8.529  21.708  0.00  0.00    +0.000 C 
ENDBRANCH  20  22
ENDBRANCH   1  20
BRANCH   2  23
ATOM     23  S   UNL     1       2.399   5.499  20.518  0.00  0.00    +0.000 S 
BRANCH  23  24
ATOM     24  C   UNL     1       2.808   4.232  19.264  0.00  0.00    +0.000 C 
BRANCH  24  25
ATOM     25  C   UNL     1       4.278   3.812  19.318  0.00  0.00    +0.000 C 
BRANCH  25  26
ATOM     26  O   UNL     1       5.094   4.869  18.787  0.00  0.00    +0.000 OA
BRANCH  26  27
ATOM     27  C   UNL     1       5.501   4.718  17.486  0.00  0.00    +0.000 A 
ATOM     28  C   UNL     1       6.882   4.634  17.286  0.00  0.00    +0.000 A 
ATOM     29  C   UNL     1       7.405   4.472  15.997  0.00  0.00    +0.000 A 
ATOM     30  C   UNL     1       6.555   4.353  14.898  0.00  0.00    +0.000 A 
ATOM     31  C   UNL     1       5.177   4.429  15.094  0.00  0.00    +0.000 A 
ATOM     32  C   UNL     1       4.653   4.609  16.383  0.00  0.00    +0.000 A 
BRANCH  30  33
ATOM     33  O   UNL     1       7.172   4.209  13.686  0.00  0.00    +0.000 OA
ATOM     34  C   UNL     1       7.829   5.370  13.186  0.00  0.00    +0.000 C 
ENDBRANCH  30  33
ENDBRANCH  26  27
ENDBRANCH  25  26
ENDBRANCH  24  25
ENDBRANCH  23  24
ENDBRANCH   2  23
TORSDOF 12
ENDMDL
MODEL 2
REMARK VINA RESULT:      -6.4      1.432      2.079
REMARK  Name = 
REMARK  15 active torsions:
REMARK  status: ('A' for Active; 'I' for Inactive)
REMARK    1  A    between atoms: C_2  and  C_3
REMARK    2  A    between atoms: C_3  and  N_4
REMARK    3  A    between atoms: C_5  and  S_6
REMARK    4  A    between atoms: S_6  and  C_7
REMARK    5  A    between atoms: C_7  and  C_8
REMARK    6  A    between atoms: C_8  and  O_9
REMARK    7  A    between atoms: O_9  and  C_10
REMARK    8  A    between atoms: C_13  and  O_14
REMARK    9  A    between atoms: O_14  and  C_15
REMARK   10  A    between atoms: C_20  and  C_21
REMARK   11  A    between atoms: C_21  and  C_22
REMARK   12  A    between atoms: C_21  and  N_23
REMARK   13  A    between atoms: C_24  and  C_26
REMARK   14  A    between atoms: C_29  and  O_30
REMARK   15  A    between atoms: O_30  and  C_31
REMARK                            x       y       z     vdW  Elec       q    Type
REMARK                         _______ _______ _______ _____ _____    ______ ____
ROOT
ATOM      1  N   UNL     1       1.700   7.934  20.122  0.00  0.00    +0.000 N 
ATOM      2  C   UNL     1       2.132   6.733  19.599  0.00  0.00    +0.000 A 
ATOM      3  N   UNL     1       2.308   6.855  18.306  0.00  0.00    +0.000 NA
ATOM      4  N   UNL     1       1.967   8.137  17.956  0.00  0.00    +0.000 NA
ATOM      5  C   UNL     1       1.615   8.803  19.043  0.00  0.00    +0.000 A 
ENDROOT
BRANCH   5   6
ATOM      6  C   UNL     1       1.284  10.280  19.089  0.00  0.00    +0.000 C 
ATOM      7  C   UNL     1       2.067  11.025  18.001  0.00  0.00    +0.000 C 
BRANCH   6   8
ATOM      8  N   UNL     1      -0.158  10.489  18.926  0.00  0.00    +0.000 N 
ATOM      9  C   UNL     1      -0.802  11.526  19.586  0.00  0.00    +0.000 C 
ATOM     10  O   UNL     1      -0.244  12.252  20.398  0.00  0.00    +0.000 OA
ATOM     11  H   UNL     1      -0.562  10.142  18.066  0.00  0.00    +0.000 HD
BRANCH   9  12
ATOM     12  C   UNL     1      -2.248  11.749  19.272  0.00  0.00    +0.000 A 
ATOM     13  C   UNL     1      -3.082  12.441  20.145  0.00  0.00    +0.000 A 
ATOM     14  C   UNL     1      -4.416  12.704  19.786  0.00  0.00    +0.000 A 
ATOM     15  C   UNL     1      -4.913  12.296  18.543  0.00  0.00    +0.000 A 
ATOM     16  C   UNL     1      -4.084  11.591  17.674  0.00  0.00    +0.000 A 
ATOM     17  C   UNL     1      -2.754  11.320  18.036  0.00  0.00    +0.000 A 
BRANCH  15  18
ATOM     18  O   UNL     1      -6.220  12.604  18.314  0.00  0.00    +0.000 OA
ATOM     19  C   UNL     1      -7.182  11.733  18.904  0.00  0.00    +0.000 C 
ENDBRANCH  15  18
ENDBRANCH   9  12
ENDBRANCH   6   8
ENDBRANCH   5   6
BRANCH   1  20
ATOM     20  C   UNL     1       1.329   8.212  21.502  0.00  0.00    +0.000 C 
BRANCH  20  22
ATOM     21  C   UNL     1      -0.644   9.288  22.615  0.00  0.00    +0.000 C 
ATOM     22  C   UNL     1      -0.140   8.456  21.690  0.00  0.00    +0.000 C 
ENDBRANCH  20  22
ENDBRANCH   1  20
BRANCH   2  23
ATOM     23  S   UNL     1       2.345   5.276  20.516  0.00  0.00    +0.000 S 
BRANCH  23  24
ATOM     24  C   UNL     1       3.800   4.474  19.752  0.00  0.00    +0.000 C 
BRANCH  24  25
ATOM     25  C   UNL     1       3.422   3.600  18.554  0.00  0.00    +0.000 C 
BRANCH  25  26
ATOM     26  O   UNL     1       4.550   3.492  17.671  0.00  0.00    +0.000 OA
BRANCH  26  27
ATOM     27  C   UNL     1       5.350   4.603  17.579  0.00  0.00    +0.000 A 
ATOM     28  C   UNL     1       4.967   5.553  16.628  0.00  0.00    +0.000 A 
ATOM     29  C   UNL     1       5.709   6.727  16.457  0.00  0.00    +0.000 A 
ATOM     30  C   UNL     1       6.820   6.986  17.259  0.00  0.00    +0.000 A 
ATOM     31  C   UNL     1       7.201   6.045  18.214  0.00  0.00    +0.000 A 
ATOM     32  C   UNL     1       6.468   4.861  18.374  0.00  0.00    +0.000 A 
BRANCH  30  33
ATOM     33  O   UNL     1       7.477   8.157  17.000  0.00  0.00    +0.000 OA
ATOM     34  C   UNL     1       8.238   8.690  18.080  0.00  0.00    +0.000 C 
ENDBRANCH  30  33
ENDBRANCH  26  27
ENDBRANCH  25  26
ENDBRANCH  24  25
ENDBRANCH  23  24
ENDBRANCH   2  23
TORSDOF 12
ENDMDL
MODEL 3
REMARK VINA RESULT:      -6.4      2.193      2.597
REMARK  Name = 
REMARK  15 active torsions:
REMARK  status: ('A' for Active; 'I' for Inactive)
REMARK    1  A    between atoms: C_2  and  C_3
REMARK    2  A    between atoms: C_3  and  N_4
REMARK    3  A    between atoms: C_5  and  S_6
REMARK    4  A    between atoms: S_6  and  C_7
REMARK    5  A    between atoms: C_7  and  C_8
REMARK    6  A    between atoms: C_8  and  O_9
REMARK    7  A    between atoms: O_9  and  C_10
REMARK    8  A    between atoms: C_13  and  O_14
REMARK    9  A    between atoms: O_14  and  C_15
REMARK   10  A    between atoms: C_20  and  C_21
REMARK   11  A    between atoms: C_21  and  C_22
REMARK   12  A    between atoms: C_21  and  N_23
REMARK   13  A    between atoms: C_24  and  C_26
REMARK   14  A    between atoms: C_29  and  O_30
REMARK   15  A    between atoms: O_30  and  C_31
REMARK                            x       y       z     vdW  Elec       q    Type
REMARK                         _______ _______ _______ _____ _____    ______ ____
ROOT
ATOM      1  N   UNL     1       1.520   7.865  20.012  0.00  0.00    +0.000 N 
ATOM      2  C   UNL     1       2.384   6.812  19.798  0.00  0.00    +0.000 A 
ATOM      3  N   UNL     1       3.062   7.016  18.697  0.00  0.00    +0.000 NA
ATOM      4  N   UNL     1       2.632   8.202  18.154  0.00  0.00    +0.000 NA
ATOM      5  C   UNL     1       1.714   8.731  18.945  0.00  0.00    +0.000 A 
ENDROOT
BRANCH   5   6
ATOM      6  C   UNL     1       1.081  10.094  18.753  0.00  0.00    +0.000 C 
ATOM      7  C   UNL     1       2.169  11.141  18.484  0.00  0.00    +0.000 C 
BRANCH   6   8
ATOM      8  N   UNL     1       0.111  10.059  17.654  0.00  0.00    +0.000 N 
ATOM      9  C   UNL     1      -1.248  10.178  17.907  0.00  0.00    +0.000 C 
ATOM     10  O   UNL     1      -1.719  10.220  19.035  0.00  0.00    +0.000 OA
ATOM     11  H   UNL     1       0.458  10.341  16.747  0.00  0.00    +0.000 HD
BRANCH   9  12
ATOM     12  C   UNL     1      -2.163  10.257  16.725  0.00  0.00    +0.000 A 
ATOM     13  C   UNL     1      -1.967   9.459  15.601  0.00  0.00    +0.000 A 
ATOM     14  C   UNL     1      -2.890   9.498  14.540  0.00  0.00    +0.000 A 
ATOM     15  C   UNL     1      -4.023  10.317  14.610  0.00  0.00    +0.000 A 
ATOM     16  C   UNL     1      -4.213  11.126  15.728  0.00  0.00    +0.000 A 
ATOM     17  C   UNL     1      -3.287  11.094  16.785  0.00  0.00    +0.000 A 
BRANCH  15  18
ATOM     18  O   UNL     1      -4.837  10.271  13.519  0.00  0.00    +0.000 OA
ATOM     19  C   UNL     1      -4.239   9.813  12.309  0.00  0.00    +0.000 C 
ENDBRANCH  15  18
ENDBRANCH   9  12
ENDBRANCH   6   8
ENDBRANCH   5   6
BRANCH   1  20
ATOM     20  C   UNL     1       0.545   8.003  21.085  0.00  0.00    +0.000 C 
BRANCH  20  22
ATOM     21  C   UNL     1       0.113   9.634  22.940  0.00  0.00    +0.000 C 
ATOM     22  C   UNL     1       0.971   8.956  22.163  0.00  0.00    +0.000 C 
ENDBRANCH  20  22
ENDBRANCH   1  20
BRANCH   2  23
ATOM     23  S   UNL     1       2.498   5.408  20.810  0.00  0.00    +0.000 S 
BRANCH  23  24
ATOM     24  C   UNL     1       1.902   4.042  19.750  0.00  0.00    +0.000 C 
BRANCH  24  25
ATOM     25  C   UNL     1       3.023   3.081  19.351  0.00  0.00    +0.000 C 
BRANCH  25  26
ATOM     26  O   UNL     1       4.292   3.724  19.550  0.00  0.00    +0.000 OA
BRANCH  26  27
ATOM     27  C   UNL     1       4.950   4.120  18.413  0.00  0.00    +0.000 A 
ATOM     28  C   UNL     1       6.121   4.856  18.612  0.00  0.00    +0.000 A 
ATOM     29  C   UNL     1       6.874   5.304  17.520  0.00  0.00    +0.000 A 
ATOM     30  C   UNL     1       6.487   4.989  16.218  0.00  0.00    +0.000 A 
ATOM     31  C   UNL     1       5.324   4.249  16.014  0.00  0.00    +0.000 A 
ATOM     32  C   UNL     1       4.561   3.815  17.108  0.00  0.00    +0.000 A 
BRANCH  30  33
ATOM     33  O   UNL     1       7.289   5.487  15.226  0.00  0.00    +0.000 OA
ATOM     34  C   UNL     1       7.224   4.802  13.979  0.00  0.00    +0.000 C 
ENDBRANCH  30  33
ENDBRANCH  26  27
ENDBRANCH  25  26
ENDBRANCH  24  25
ENDBRANCH  23  24
ENDBRANCH   2  23
TORSDOF 12
ENDMDL
MODEL 4
REMARK VINA RESULT:      -6.4      1.588      2.196
REMARK  Name = 
REMARK  15 active torsions:
REMARK  status: ('A' for Active; 'I' for Inactive)
REMARK    1  A    between atoms: C_2  and  C_3
REMARK    2  A    between atoms: C_3  and  N_4
REMARK    3  A    between atoms: C_5  and  S_6
REMARK    4  A    between atoms: S_6  and  C_7
REMARK    5  A    between atoms: C_7  and  C_8
REMARK    6  A    between atoms: C_8  and  O_9
REMARK    7  A    between atoms: O_9  and  C_10
REMARK    8  A    between atoms: C_13  and  O_14
REMARK    9  A    between atoms: O_14  and  C_15
REMARK   10  A    between atoms: C_20  and  C_21
REMARK   11  A    between atoms: C_21  and  C_22
REMARK   12  A    between atoms: C_21  and  N_23
REMARK   13  A    between atoms: C_24  and  C_26
REMARK   14  A    between atoms: C_29  and  O_30
REMARK   15  A    between atoms: O_30  and  C_31
REMARK                            x       y       z     vdW  Elec       q    Type
REMARK                         _______ _______ _______ _____ _____    ______ ____
ROOT
ATOM      1  N   UNL     1       1.460   8.462  19.653  0.00  0.00    +0.000 N 
ATOM      2  C   UNL     1       2.239   7.599  18.913  0.00  0.00    +0.000 A 
ATOM      3  N   UNL     1       2.610   8.184  17.801  0.00  0.00    +0.000 NA
ATOM      4  N   UNL     1       2.055   9.439  17.783  0.00  0.00    +0.000 NA
ATOM      5  C   UNL     1       1.373   9.626  18.901  0.00  0.00    +0.000 A 
ENDROOT
BRANCH   5   6
ATOM      6  C   UNL     1       0.713  10.926  19.310  0.00  0.00    +0.000 C 
ATOM      7  C   UNL     1       1.525  12.114  18.778  0.00  0.00    +0.000 C 
BRANCH   6   8
ATOM      8  N   UNL     1      -0.667  10.979  18.818  0.00  0.00    +0.000 N 
ATOM      9  C   UNL     1      -1.648  11.650  19.534  0.00  0.00    +0.000 C 
ATOM     10  O   UNL     1      -1.454  12.144  20.636  0.00  0.00    +0.000 OA
ATOM     11  H   UNL     1      -0.786  10.876  17.820  0.00  0.00    +0.000 HD
BRANCH   9  12
ATOM     12  C   UNL     1      -3.002  11.764  18.906  0.00  0.00    +0.000 A 
ATOM     13  C   UNL     1      -4.070  12.345  19.584  0.00  0.00    +0.000 A 
ATOM     14  C   UNL     1      -5.309  12.510  18.938  0.00  0.00    +0.000 A 
ATOM     15  C   UNL     1      -5.476  12.115  17.606  0.00  0.00    +0.000 A 
ATOM     16  C   UNL     1      -4.413  11.521  16.931  0.00  0.00    +0.000 A 
ATOM     17  C   UNL     1      -3.177  11.347  17.578  0.00  0.00    +0.000 A 
BRANCH  15  18
ATOM     18  O   UNL     1      -6.721  12.322  17.094  0.00  0.00    +0.000 OA
ATOM     19  C   UNL     1      -7.211  13.659  17.157  0.00  0.00    +0.000 C 
ENDBRANCH  15  18
ENDBRANCH   9  12
ENDBRANCH   6   8
ENDBRANCH   5   6
BRANCH   1  20
ATOM     20  C   UNL     1       0.796   8.187  20.920  0.00  0.00    +0.000 C 
BRANCH  20  22
ATOM     21  C   UNL     1       0.253   9.581  22.933  0.00  0.00    +0.000 C 
ATOM     22  C   UNL     1       1.127   9.178  21.998  0.00  0.00    +0.000 C 
ENDBRANCH  20  22
ENDBRANCH   1  20
BRANCH   2  23
ATOM     23  S   UNL     1       2.610   5.967  19.369  0.00  0.00    +0.000 S 
BRANCH  23  24
ATOM     24  C   UNL     1       2.840   5.098  17.776  0.00  0.00    +0.000 C 
BRANCH  24  25
ATOM     25  C   UNL     1       3.025   3.590  17.956  0.00  0.00    +0.000 C 
BRANCH  25  26
ATOM     26  O   UNL     1       4.367   3.325  18.396  0.00  0.00    +0.000 OA
BRANCH  26  27
ATOM     27  C   UNL     1       5.291   4.302  18.126  0.00  0.00    +0.000 A 
ATOM     28  C   UNL     1       5.424   4.660  16.781  0.00  0.00    +0.000 A 
ATOM     29  C   UNL     1       6.334   5.652  16.396  0.00  0.00    +0.000 A 
ATOM     30  C   UNL     1       7.094   6.325  17.352  0.00  0.00    +0.000 A 
ATOM     31  C   UNL     1       6.959   5.977  18.695  0.00  0.00    +0.000 A 
ATOM     32  C   UNL     1       6.060   4.972  19.079  0.00  0.00    +0.000 A 
BRANCH  30  33
ATOM     33  O   UNL     1       7.958   7.267  16.864  0.00  0.00    +0.000 OA
ATOM     34  C   UNL     1       7.964   8.514  17.553  0.00  0.00    +0.000 C 
ENDBRANCH  30  33
ENDBRANCH  26  27
ENDBRANCH  25  26
ENDBRANCH  24  25
ENDBRANCH  23  24
ENDBRANCH   2  23
TORSDOF 12
ENDMDL
MODEL 5
REMARK VINA RESULT:      -6.3      2.818     10.404
REMARK  Name = 
REMARK  15 active torsions:
REMARK  status: ('A' for Active; 'I' for Inactive)
REMARK    1  A    between atoms: C_2  and  C_3
REMARK    2  A    between atoms: C_3  and  N_4
REMARK    3  A    between atoms: C_5  and  S_6
REMARK    4  A    between atoms: S_6  and  C_7
REMARK    5  A    between atoms: C_7  and  C_8
REMARK    6  A    between atoms: C_8  and  O_9
REMARK    7  A    between atoms: O_9  and  C_10
REMARK    8  A    between atoms: C_13  and  O_14
REMARK    9  A    between atoms: O_14  and  C_15
REMARK   10  A    between atoms: C_20  and  C_21
REMARK   11  A    between atoms: C_21  and  C_22
REMARK   12  A    between atoms: C_21  and  N_23
REMARK   13  A    between atoms: C_24  and  C_26
REMARK   14  A    between atoms: C_29  and  O_30
REMARK   15  A    between atoms: O_30  and  C_31
REMARK                            x       y       z     vdW  Elec       q    Type
REMARK                         _______ _______ _______ _____ _____    ______ ____
ROOT
ATOM      1  N   UNL     1       0.991  11.735  20.200  0.00  0.00    +0.000 N 
ATOM      2  C   UNL     1       1.787  12.851  20.053  0.00  0.00    +0.000 A 
ATOM      3  N   UNL     1       2.467  12.763  18.937  0.00  0.00    +0.000 NA
ATOM      4  N   UNL     1       2.144  11.568  18.343  0.00  0.00    +0.000 NA
ATOM      5  C   UNL     1       1.243  10.946  19.086  0.00  0.00    +0.000 A 
ENDROOT
BRANCH   5   6
ATOM      6  C   UNL     1       0.548   9.654  18.710  0.00  0.00    +0.000 C 
ATOM      7  C   UNL     1      -0.648   9.951  17.797  0.00  0.00    +0.000 C 
BRANCH   6   8
ATOM      8  N   UNL     1       1.486   8.738  18.054  0.00  0.00    +0.000 N 
ATOM      9  C   UNL     1       2.173   7.783  18.790  0.00  0.00    +0.000 C 
ATOM     10  O   UNL     1       2.116   7.708  20.010  0.00  0.00    +0.000 OA
ATOM     11  H   UNL     1       1.321   8.562  17.072  0.00  0.00    +0.000 HD
BRANCH   9  12
ATOM     12  C   UNL     1       3.017   6.807  18.032  0.00  0.00    +0.000 A 
ATOM     13  C   UNL     1       4.136   7.220  17.314  0.00  0.00    +0.000 A 
ATOM     14  C   UNL     1       4.956   6.269  16.678  0.00  0.00    +0.000 A 
ATOM     15  C   UNL     1       4.672   4.903  16.779  0.00  0.00    +0.000 A 
ATOM     16  C   UNL     1       3.545   4.489  17.485  0.00  0.00    +0.000 A 
ATOM     17  C   UNL     1       2.721   5.438  18.113  0.00  0.00    +0.000 A 
BRANCH  15  18
ATOM     18  O   UNL     1       5.535   4.083  16.116  0.00  0.00    +0.000 OA
ATOM     19  C   UNL     1       5.709   4.349  14.726  0.00  0.00    +0.000 C 
ENDBRANCH  15  18
ENDBRANCH   9  12
ENDBRANCH   6   8
ENDBRANCH   5   6
BRANCH   1  20
ATOM     20  C   UNL     1       0.128  11.409  21.327  0.00  0.00    +0.000 C 
BRANCH  20  22
ATOM     21  C   UNL     1      -0.079   9.649  23.101  0.00  0.00    +0.000 C 
ATOM     22  C   UNL     1       0.396  10.053  21.913  0.00  0.00    +0.000 C 
ENDBRANCH  20  22
ENDBRANCH   1  20
BRANCH   2  23
ATOM     23  S   UNL     1       1.906  14.137  21.211  0.00  0.00    +0.000 S 
BRANCH  23  24
ATOM     24  C   UNL     1       1.026  15.533  20.422  0.00  0.00    +0.000 C 
BRANCH  24  25
ATOM     25  C   UNL     1      -0.472  15.529  20.733  0.00  0.00    +0.000 C 
BRANCH  25  26
ATOM     26  O   UNL     1      -0.687  14.939  22.025  0.00  0.00    +0.000 OA
BRANCH  26  27
ATOM     27  C   UNL     1      -1.858  14.241  22.179  0.00  0.00    +0.000 A 
ATOM     28  C   UNL     1      -2.702  14.213  21.065  0.00  0.00    +0.000 A 
ATOM     29  C   UNL     1      -3.919  13.523  21.112  0.00  0.00    +0.000 A 
ATOM     30  C   UNL     1      -4.291  12.822  22.258  0.00  0.00    +0.000 A 
ATOM     31  C   UNL     1      -3.450  12.841  23.370  0.00  0.00    +0.000 A 
ATOM     32  C   UNL     1      -2.239  13.546  23.329  0.00  0.00    +0.000 A 
BRANCH  30  33
ATOM     33  O   UNL     1      -5.505  12.193  22.199  0.00  0.00    +0.000 OA
ATOM     34  C   UNL     1      -6.121  12.161  20.915  0.00  0.00    +0.000 C 
ENDBRANCH  30  33
ENDBRANCH  26  27
ENDBRANCH  25  26
ENDBRANCH  24  25
ENDBRANCH  23  24
ENDBRANCH   2  23
TORSDOF 12
ENDMDL
MODEL 6
REMARK VINA RESULT:      -6.3      4.808      7.053
REMARK  Name = 
REMARK  15 active torsions:
REMARK  status: ('A' for Active; 'I' for Inactive)
REMARK    1  A    between atoms: C_2  and  C_3
REMARK    2  A    between atoms: C_3  and  N_4
REMARK    3  A    between atoms: C_5  and  S_6
REMARK    4  A    between atoms: S_6  and  C_7
REMARK    5  A    between atoms: C_7  and  C_8
REMARK    6  A    between atoms: C_8  and  O_9
REMARK    7  A    between atoms: O_9  and  C_10
REMARK    8  A    between atoms: C_13  and  O_14
REMARK    9  A    between atoms: O_14  and  C_15
REMARK   10  A    between atoms: C_20  and  C_21
REMARK   11  A    between atoms: C_21  and  C_22
REMARK   12  A    between atoms: C_21  and  N_23
REMARK   13  A    between atoms: C_24  and  C_26
REMARK   14  A    between atoms: C_29  and  O_30
REMARK   15  A    between atoms: O_30  and  C_31
REMARK                            x       y       z     vdW  Elec       q    Type
REMARK                         _______ _______ _______ _____ _____    ______ ____
ROOT
ATOM      1  N   UNL     1       5.071   6.082  17.702  0.00  0.00    +0.000 N 
ATOM      2  C   UNL     1       6.100   5.714  18.543  0.00  0.00    +0.000 A 
ATOM      3  N   UNL     1       5.608   5.286  19.679  0.00  0.00    +0.000 NA
ATOM      4  N   UNL     1       4.241   5.392  19.610  0.00  0.00    +0.000 NA
ATOM      5  C   UNL     1       3.903   5.854  18.417  0.00  0.00    +0.000 A 
ENDROOT
BRANCH   5   6
ATOM      6  C   UNL     1       2.483   5.999  17.912  0.00  0.00    +0.000 C 
ATOM      7  C   UNL     1       1.768   4.643  17.966  0.00  0.00    +0.000 C 
BRANCH   6   8
ATOM      8  N   UNL     1       1.757   7.000  18.699  0.00  0.00    +0.000 N 
ATOM      9  C   UNL     1       1.795   8.342  18.346  0.00  0.00    +0.000 C 
ATOM     10  O   UNL     1       2.494   8.777  17.441  0.00  0.00    +0.000 OA
ATOM     11  H   UNL     1       0.957   6.662  19.217  0.00  0.00    +0.000 HD
BRANCH   9  12
ATOM     12  C   UNL     1       0.931   9.283  19.125  0.00  0.00    +0.000 A 
ATOM     13  C   UNL     1       0.983   9.335  20.515  0.00  0.00    +0.000 A 
ATOM     14  C   UNL     1       0.217  10.286  21.214  0.00  0.00    +0.000 A 
ATOM     15  C   UNL     1      -0.585  11.202  20.524  0.00  0.00    +0.000 A 
ATOM     16  C   UNL     1      -0.649  11.142  19.134  0.00  0.00    +0.000 A 
ATOM     17  C   UNL     1       0.109  10.186  18.435  0.00  0.00    +0.000 A 
BRANCH  15  18
ATOM     18  O   UNL     1      -1.282  12.067  21.311  0.00  0.00    +0.000 OA
ATOM     19  C   UNL     1      -0.565  13.209  21.775  0.00  0.00    +0.000 C 
ENDBRANCH  15  18
ENDBRANCH   9  12
ENDBRANCH   6   8
ENDBRANCH   5   6
BRANCH   1  20
ATOM     20  C   UNL     1       5.183   6.666  16.372  0.00  0.00    +0.000 C 
BRANCH  20  22
ATOM     21  C   UNL     1       6.333   5.057  14.830  0.00  0.00    +0.000 C 
ATOM     22  C   UNL     1       5.211   5.647  15.271  0.00  0.00    +0.000 C 
ENDBRANCH  20  22
ENDBRANCH   1  20
BRANCH   2  23
ATOM     23  S   UNL     1       7.786   5.862  18.162  0.00  0.00    +0.000 S 
BRANCH  23  24
ATOM     24  C   UNL     1       7.923   7.505  17.369  0.00  0.00    +0.000 C 
BRANCH  24  25
ATOM     25  C   UNL     1       8.143   8.626  18.386  0.00  0.00    +0.000 C 
BRANCH  25  26
ATOM     26  O   UNL     1       8.697   9.771  17.718  0.00  0.00    +0.000 OA
BRANCH  26  27
ATOM     27  C   UNL     1       9.194  10.758  18.531  0.00  0.00    +0.000 A 
ATOM     28  C   UNL     1       9.075  12.064  18.046  0.00  0.00    +0.000 A 
ATOM     29  C   UNL     1       9.543  13.148  18.799  0.00  0.00    +0.000 A 
ATOM     30  C   UNL     1      10.100  12.944  20.061  0.00  0.00    +0.000 A 
ATOM     31  C   UNL     1      10.214  11.645  20.552  0.00  0.00    +0.000 A 
ATOM     32  C   UNL     1       9.761  10.558  19.790  0.00  0.00    +0.000 A 
BRANCH  30  33
ATOM     33  O   UNL     1      10.534  14.071  20.704  0.00  0.00    +0.000 OA
ATOM     34  C   UNL     1      11.432  14.895  19.967  0.00  0.00    +0.000 C 
ENDBRANCH  30  33
ENDBRANCH  26  27
ENDBRANCH  25  26
ENDBRANCH  24  25
ENDBRANCH  23  24
ENDBRANCH   2  23
TORSDOF 12
ENDMDL
MODEL 7
REMARK VINA RESULT:      -6.2      4.737      6.646
REMARK  Name = 
REMARK  15 active torsions:
REMARK  status: ('A' for Active; 'I' for Inactive)
REMARK    1  A    between atoms: C_2  and  C_3
REMARK    2  A    between atoms: C_3  and  N_4
REMARK    3  A    between atoms: C_5  and  S_6
REMARK    4  A    between atoms: S_6  and  C_7
REMARK    5  A    between atoms: C_7  and  C_8
REMARK    6  A    between atoms: C_8  and  O_9
REMARK    7  A    between atoms: O_9  and  C_10
REMARK    8  A    between atoms: C_13  and  O_14
REMARK    9  A    between atoms: O_14  and  C_15
REMARK   10  A    between atoms: C_20  and  C_21
REMARK   11  A    between atoms: C_21  and  C_22
REMARK   12  A    between atoms: C_21  and  N_23
REMARK   13  A    between atoms: C_24  and  C_26
REMARK   14  A    between atoms: C_29  and  O_30
REMARK   15  A    between atoms: O_30  and  C_31
REMARK                            x       y       z     vdW  Elec       q    Type
REMARK                         _______ _______ _______ _____ _____    ______ ____
ROOT
ATOM      1  N   UNL     1       5.005   5.986  17.664  0.00  0.00    +0.000 N 
ATOM      2  C   UNL     1       6.038   5.474  18.421  0.00  0.00    +0.000 A 
ATOM      3  N   UNL     1       5.564   4.994  19.543  0.00  0.00    +0.000 NA
ATOM      4  N   UNL     1       4.208   5.208  19.551  0.00  0.00    +0.000 NA
ATOM      5  C   UNL     1       3.856   5.790  18.417  0.00  0.00    +0.000 A 
ENDROOT
BRANCH   5   6
ATOM      6  C   UNL     1       2.430   6.082  17.996  0.00  0.00    +0.000 C 
ATOM      7  C   UNL     1       1.580   4.810  18.111  0.00  0.00    +0.000 C 
BRANCH   6   8
ATOM      8  N   UNL     1       1.864   7.161  18.812  0.00  0.00    +0.000 N 
ATOM      9  C   UNL     1       1.877   8.472  18.359  0.00  0.00    +0.000 C 
ATOM     10  O   UNL     1       2.431   8.818  17.325  0.00  0.00    +0.000 OA
ATOM     11  H   UNL     1       1.151   6.888  19.475  0.00  0.00    +0.000 HD
BRANCH   9  12
ATOM     12  C   UNL     1       1.172   9.495  19.193  0.00  0.00    +0.000 A 
ATOM     13  C   UNL     1       0.549  10.598  18.615  0.00  0.00    +0.000 A 
ATOM     14  C   UNL     1      -0.175  11.499  19.418  0.00  0.00    +0.000 A 
ATOM     15  C   UNL     1      -0.297  11.287  20.796  0.00  0.00    +0.000 A 
ATOM     16  C   UNL     1       0.337  10.191  21.377  0.00  0.00    +0.000 A 
ATOM     17  C   UNL     1       1.068   9.295  20.578  0.00  0.00    +0.000 A 
BRANCH  15  18
ATOM     18  O   UNL     1      -1.017  12.230  21.464  0.00  0.00    +0.000 OA
ATOM     19  C   UNL     1      -1.986  11.741  22.388  0.00  0.00    +0.000 C 
ENDBRANCH  15  18
ENDBRANCH   9  12
ENDBRANCH   6   8
ENDBRANCH   5   6
BRANCH   1  20
ATOM     20  C   UNL     1       5.104   6.666  16.380  0.00  0.00    +0.000 C 
BRANCH  20  22
ATOM     21  C   UNL     1       5.249   4.452  15.212  0.00  0.00    +0.000 C 
ATOM     22  C   UNL     1       5.523   5.765  15.255  0.00  0.00    +0.000 C 
ENDBRANCH  20  22
ENDBRANCH   1  20
BRANCH   2  23
ATOM     23  S   UNL     1       7.711   5.525  17.968  0.00  0.00    +0.000 S 
BRANCH  23  24
ATOM     24  C   UNL     1       8.334   7.068  18.728  0.00  0.00    +0.000 C 
BRANCH  24  25
ATOM     25  C   UNL     1       8.102   8.291  17.839  0.00  0.00    +0.000 C 
BRANCH  25  26
ATOM     26  O   UNL     1       7.829   9.434  18.665  0.00  0.00    +0.000 OA
BRANCH  26  27
ATOM     27  C   UNL     1       8.728  10.467  18.577  0.00  0.00    +0.000 A 
ATOM     28  C   UNL     1       9.719  10.499  19.562  0.00  0.00    +0.000 A 
ATOM     29  C   UNL     1      10.691  11.506  19.561  0.00  0.00    +0.000 A 
ATOM     30  C   UNL     1      10.708  12.472  18.554  0.00  0.00    +0.000 A 
ATOM     31  C   UNL     1       9.727  12.440  17.565  0.00  0.00    +0.000 A 
ATOM     32  C   UNL     1       8.743  11.441  17.576  0.00  0.00    +0.000 A 
BRANCH  30  33
ATOM     33  O   UNL     1      11.694  13.415  18.656  0.00  0.00    +0.000 OA
ATOM     34  C   UNL     1      12.333  13.774  17.435  0.00  0.00    +0.000 C 
ENDBRANCH  30  33
ENDBRANCH  26  27
ENDBRANCH  25  26
ENDBRANCH  24  25
ENDBRANCH  23  24
ENDBRANCH   2  23
TORSDOF 12
ENDMDL
MODEL 8
REMARK VINA RESULT:      -6.2      4.518      8.460
REMARK  Name = 
REMARK  15 active torsions:
REMARK  status: ('A' for Active; 'I' for Inactive)
REMARK    1  A    between atoms: C_2  and  C_3
REMARK    2  A    between atoms: C_3  and  N_4
REMARK    3  A    between atoms: C_5  and  S_6
REMARK    4  A    between atoms: S_6  and  C_7
REMARK    5  A    between atoms: C_7  and  C_8
REMARK    6  A    between atoms: C_8  and  O_9
REMARK    7  A    between atoms: O_9  and  C_10
REMARK    8  A    between atoms: C_13  and  O_14
REMARK    9  A    between atoms: O_14  and  C_15
REMARK   10  A    between atoms: C_20  and  C_21
REMARK   11  A    between atoms: C_21  and  C_22
REMARK   12  A    between atoms: C_21  and  N_23
REMARK   13  A    between atoms: C_24  and  C_26
REMARK   14  A    between atoms: C_29  and  O_30
REMARK   15  A    between atoms: O_30  and  C_31
REMARK                            x       y       z     vdW  Elec       q    Type
REMARK                         _______ _______ _______ _____ _____    ______ ____
ROOT
ATOM      1  N   UNL     1       1.431  12.597  19.812  0.00  0.00    +0.000 N 
ATOM      2  C   UNL     1       2.286  13.508  19.227  0.00  0.00    +0.000 A 
ATOM      3  N   UNL     1       2.830  12.978  18.160  0.00  0.00    +0.000 NA
ATOM      4  N   UNL     1       2.358  11.695  18.042  0.00  0.00    +0.000 NA
ATOM      5  C   UNL     1       1.501  11.458  19.022  0.00  0.00    +0.000 A 
ENDROOT
BRANCH   5   6
ATOM      6  C   UNL     1       0.677  10.196  19.170  0.00  0.00    +0.000 C 
ATOM      7  C   UNL     1      -0.586  10.292  18.304  0.00  0.00    +0.000 C 
BRANCH   6   8
ATOM      8  N   UNL     1       1.470   9.018  18.802  0.00  0.00    +0.000 N 
ATOM      9  C   UNL     1       1.792   8.058  19.750  0.00  0.00    +0.000 C 
ATOM     10  O   UNL     1       1.528   8.176  20.939  0.00  0.00    +0.000 OA
ATOM     11  H   UNL     1       1.425   8.739  17.831  0.00  0.00    +0.000 HD
BRANCH   9  12
ATOM     12  C   UNL     1       2.497   6.828  19.272  0.00  0.00    +0.000 A 
ATOM     13  C   UNL     1       2.371   5.613  19.940  0.00  0.00    +0.000 A 
ATOM     14  C   UNL     1       2.980   4.457  19.420  0.00  0.00    +0.000 A 
ATOM     15  C   UNL     1       3.697   4.507  18.220  0.00  0.00    +0.000 A 
ATOM     16  C   UNL     1       3.836   5.724  17.557  0.00  0.00    +0.000 A 
ATOM     17  C   UNL     1       3.235   6.882  18.080  0.00  0.00    +0.000 A 
BRANCH  15  18
ATOM     18  O   UNL     1       4.244   3.324  17.824  0.00  0.00    +0.000 OA
ATOM     19  C   UNL     1       3.589   2.144  18.285  0.00  0.00    +0.000 C 
ENDBRANCH  15  18
ENDBRANCH   9  12
ENDBRANCH   6   8
ENDBRANCH   5   6
BRANCH   1  20
ATOM     20  C   UNL     1       0.676  12.761  21.046  0.00  0.00    +0.000 C 
BRANCH  20  22
ATOM     21  C   UNL     1      -1.766  12.720  21.613  0.00  0.00    +0.000 C 
ATOM     22  C   UNL     1      -0.761  13.131  20.824  0.00  0.00    +0.000 C 
ENDBRANCH  20  22
ENDBRANCH   1  20
BRANCH   2  23
ATOM     23  S   UNL     1       2.625  15.088  19.858  0.00  0.00    +0.000 S 
BRANCH  23  24
ATOM     24  C   UNL     1       4.023  15.686  18.840  0.00  0.00    +0.000 C 
BRANCH  24  25
ATOM     25  C   UNL     1       5.347  15.678  19.606  0.00  0.00    +0.000 C 
BRANCH  25  26
ATOM     26  O   UNL     1       6.434  15.808  18.675  0.00  0.00    +0.000 OA
BRANCH  26  27
ATOM     27  C   UNL     1       7.248  14.710  18.545  0.00  0.00    +0.000 A 
ATOM     28  C   UNL     1       8.081  14.438  19.633  0.00  0.00    +0.000 A 
ATOM     29  C   UNL     1       8.947  13.338  19.609  0.00  0.00    +0.000 A 
ATOM     30  C   UNL     1       8.962  12.474  18.514  0.00  0.00    +0.000 A 
ATOM     31  C   UNL     1       8.127  12.737  17.429  0.00  0.00    +0.000 A 
ATOM     32  C   UNL     1       7.272  13.849  17.447  0.00  0.00    +0.000 A 
BRANCH  30  33
ATOM     33  O   UNL     1       9.852  11.438  18.590  0.00  0.00    +0.000 OA
ATOM     34  C   UNL     1       9.444  10.331  19.387  0.00  0.00    +0.000 C 
ENDBRANCH  30  33
ENDBRANCH  26  27
ENDBRANCH  25  26
ENDBRANCH  24  25
ENDBRANCH  23  24
ENDBRANCH   2  23
TORSDOF 12
ENDMDL
MODEL 9
REMARK VINA RESULT:      -6.2      1.820      2.401
REMARK  Name = 
REMARK  15 active torsions:
REMARK  status: ('A' for Active; 'I' for Inactive)
REMARK    1  A    between atoms: C_2  and  C_3
REMARK    2  A    between atoms: C_3  and  N_4
REMARK    3  A    between atoms: C_5  and  S_6
REMARK    4  A    between atoms: S_6  and  C_7
REMARK    5  A    between atoms: C_7  and  C_8
REMARK    6  A    between atoms: C_8  and  O_9
REMARK    7  A    between atoms: O_9  and  C_10
REMARK    8  A    between atoms: C_13  and  O_14
REMARK    9  A    between atoms: O_14  and  C_15
REMARK   10  A    between atoms: C_20  and  C_21
REMARK   11  A    between atoms: C_21  and  C_22
REMARK   12  A    between atoms: C_21  and  N_23
REMARK   13  A    between atoms: C_24  and  C_26
REMARK   14  A    between atoms: C_29  and  O_30
REMARK   15  A    between atoms: O_30  and  C_31
REMARK                            x       y       z     vdW  Elec       q    Type
REMARK                         _______ _______ _______ _____ _____    ______ ____
ROOT
ATOM      1  N   UNL     1       1.319   8.777  19.775  0.00  0.00    +0.000 N 
ATOM      2  C   UNL     1       2.031   7.793  19.122  0.00  0.00    +0.000 A 
ATOM      3  N   UNL     1       2.627   8.305  18.074  0.00  0.00    +0.000 NA
ATOM      4  N   UNL     1       2.294   9.635  18.009  0.00  0.00    +0.000 NA
ATOM      5  C   UNL     1       1.519   9.936  19.037  0.00  0.00    +0.000 A 
ENDROOT
BRANCH   5   6
ATOM      6  C   UNL     1       1.037  11.330  19.384  0.00  0.00    +0.000 C 
ATOM      7  C   UNL     1       1.833  12.371  18.586  0.00  0.00    +0.000 C 
BRANCH   6   8
ATOM      8  N   UNL     1      -0.399  11.458  19.116  0.00  0.00    +0.000 N 
ATOM      9  C   UNL     1      -1.263  11.920  20.099  0.00  0.00    +0.000 C 
ATOM     10  O   UNL     1      -0.909  12.151  21.247  0.00  0.00    +0.000 OA
ATOM     11  H   UNL     1      -0.660  11.585  18.148  0.00  0.00    +0.000 HD
BRANCH   9  12
ATOM     12  C   UNL     1      -2.691  12.140  19.711  0.00  0.00    +0.000 A 
ATOM     13  C   UNL     1      -3.207  11.631  18.522  0.00  0.00    +0.000 A 
ATOM     14  C   UNL     1      -4.573  11.785  18.224  0.00  0.00    +0.000 A 
ATOM     15  C   UNL     1      -5.431  12.427  19.124  0.00  0.00    +0.000 A 
ATOM     16  C   UNL     1      -4.914  12.948  20.307  0.00  0.00    +0.000 A 
ATOM     17  C   UNL     1      -3.548  12.803  20.603  0.00  0.00    +0.000 A 
BRANCH  15  18
ATOM     18  O   UNL     1      -6.729  12.518  18.720  0.00  0.00    +0.000 OA
ATOM     19  C   UNL     1      -6.943  12.606  17.313  0.00  0.00    +0.000 C 
ENDBRANCH  15  18
ENDBRANCH   9  12
ENDBRANCH   6   8
ENDBRANCH   5   6
BRANCH   1  20
ATOM     20  C   UNL     1       0.467   8.621  20.946  0.00  0.00    +0.000 C 
BRANCH  20  22
ATOM     21  C   UNL     1       0.313   9.525  23.280  0.00  0.00    +0.000 C 
ATOM     22  C   UNL     1       1.040   9.234  22.190  0.00  0.00    +0.000 C 
ENDBRANCH  20  22
ENDBRANCH   1  20
BRANCH   2  23
ATOM     23  S   UNL     1       2.067   6.125  19.593  0.00  0.00    +0.000 S 
BRANCH  23  24
ATOM     24  C   UNL     1       3.703   5.535  19.026  0.00  0.00    +0.000 C 
BRANCH  24  25
ATOM     25  C   UNL     1       3.624   4.783  17.696  0.00  0.00    +0.000 C 
BRANCH  25  26
ATOM     26  O   UNL     1       4.951   4.453  17.257  0.00  0.00    +0.000 OA
BRANCH  26  27
ATOM     27  C   UNL     1       5.945   5.312  17.652  0.00  0.00    +0.000 A 
ATOM     28  C   UNL     1       5.991   6.539  16.984  0.00  0.00    +0.000 A 
ATOM     29  C   UNL     1       6.962   7.492  17.314  0.00  0.00    +0.000 A 
ATOM     30  C   UNL     1       7.874   7.247  18.341  0.00  0.00    +0.000 A 
ATOM     31  C   UNL     1       7.827   6.028  19.015  0.00  0.00    +0.000 A 
ATOM     32  C   UNL     1       6.865   5.066  18.672  0.00  0.00    +0.000 A 
BRANCH  30  33
ATOM     33  O   UNL     1       8.785   8.241  18.572  0.00  0.00    +0.000 OA
ATOM     34  C   UNL     1       8.392   9.546  18.158  0.00  0.00    +0.000 C 
ENDBRANCH  30  33
ENDBRANCH  26  27
ENDBRANCH  25  26
ENDBRANCH  24  25
ENDBRANCH  23  24
ENDBRANCH   2  23
TORSDOF 12
ENDMDL
