MODEL 1
REMARK VINA RESULT:      -7.2      0.000      0.000
REMARK  Name = 
REMARK  7 active torsions:
REMARK  status: ('A' for Active; 'I' for Inactive)
REMARK    1  A    between atoms: C_1  and  C_2
REMARK    2  A    between atoms: C_2  and  O_3
REMARK    3  A    between atoms: O_3  and  C_4
REMARK    4  A    between atoms: C_4  and  C_5
REMARK    5  A    between atoms: C_5  and  C_6
REMARK    6  A    between atoms: C_6  and  C_7
REMARK    7  A    between atoms: C_7  and  N_8
REMARK                            x       y       z     vdW  Elec       q    Type
REMARK                         _______ _______ _______ _____ _____    ______ ____
ROOT
ATOM      1  C   UNL     1       4.749   6.782  17.517  0.00  0.00    +0.000 C 
ENDROOT
BRANCH   1   2
ATOM      2  N   UNL     1       3.649   5.829  17.652  0.00  0.00    +0.000 NA
ATOM      3  C   UNL     1       3.185   5.544  18.816  0.00  0.00    +0.000 C 
ATOM      4  N   UNL     1       3.663   6.040  19.993  0.00  0.00    +0.000 N 
ATOM      5  N   UNL     1       2.168   4.636  19.008  0.00  0.00    +0.000 N 
ATOM      6  C   UNL     1       1.247   4.648  20.147  0.00  0.00    +0.000 C 
ATOM      7  C   UNL     1       1.179   3.238  20.730  0.00  0.00    +0.000 C 
ATOM      8  C   UNL     1       0.745   2.228  19.669  0.00  0.00    +0.000 C 
ATOM      9  C   UNL     1       1.591   2.345  18.400  0.00  0.00    +0.000 C 
ATOM     10  C   UNL     1       1.692   3.791  17.905  0.00  0.00    +0.000 C 
ATOM     11  H   UNL     1       4.556   6.505  19.912  0.00  0.00    +0.000 HD
ATOM     12  H   UNL     1       3.703   5.325  20.704  0.00  0.00    +0.000 HD
ENDBRANCH   1   2
BRANCH   1  13
ATOM     13  C   UNL     1       5.985   6.081  16.885  0.00  0.00    +0.000 C 
ATOM     14  C   UNL     1       6.442   4.875  17.730  0.00  0.00    +0.000 C 
ATOM     15  C   UNL     1       7.213   5.472  18.904  0.00  0.00    +0.000 C 
ATOM     16  C   UNL     1       7.787   6.793  18.399  0.00  0.00    +0.000 C 
ATOM     17  C   UNL     1       7.222   7.001  16.992  0.00  0.00    +0.000 C 
BRANCH  13  18
ATOM     18  C   UNL     1       5.712   5.652  15.418  0.00  0.00    +0.000 C 
BRANCH  18  19
ATOM     19  C   UNL     1       6.721   4.643  14.869  0.00  0.00    +0.000 C 
BRANCH  19  20
ATOM     20  O   UNL     1       6.046   3.600  14.157  0.00  0.00    +0.000 OA
BRANCH  20  22
ATOM     21  C   UNL     1       5.155   3.244  11.948  0.00  0.00    +0.000 C 
ATOM     22  C   UNL     1       6.357   3.672  12.763  0.00  0.00    +0.000 C 
ENDBRANCH  20  22
ENDBRANCH  19  20
ENDBRANCH  18  19
ENDBRANCH  13  18
ENDBRANCH   1  13
TORSDOF 6
ENDMDL
MODEL 2
REMARK VINA RESULT:      -7.1      1.057      1.346
REMARK  Name = 
REMARK  7 active torsions:
REMARK  status: ('A' for Active; 'I' for Inactive)
REMARK    1  A    between atoms: C_1  and  C_2
REMARK    2  A    between atoms: C_2  and  O_3
REMARK    3  A    between atoms: O_3  and  C_4
REMARK    4  A    between atoms: C_4  and  C_5
REMARK    5  A    between atoms: C_5  and  C_6
REMARK    6  A    between atoms: C_6  and  C_7
REMARK    7  A    between atoms: C_7  and  N_8
REMARK                            x       y       z     vdW  Elec       q    Type
REMARK                         _______ _______ _______ _____ _____    ______ ____
ROOT
ATOM      1  C   UNL     1       5.269   6.226  17.343  0.00  0.00    +0.000 C 
ENDROOT
BRANCH   1   2
ATOM      2  N   UNL     1       4.661   5.096  18.042  0.00  0.00    +0.000 NA
ATOM      3  C   UNL     1       3.410   5.120  18.333  0.00  0.00    +0.000 C 
ATOM      4  N   UNL     1       2.564   6.156  18.072  0.00  0.00    +0.000 N 
ATOM      5  N   UNL     1       2.787   4.097  19.012  0.00  0.00    +0.000 N 
ATOM      6  C   UNL     1       1.359   3.782  18.913  0.00  0.00    +0.000 C 
ATOM      7  C   UNL     1       0.796   3.634  20.325  0.00  0.00    +0.000 C 
ATOM      8  C   UNL     1       1.555   2.561  21.106  0.00  0.00    +0.000 C 
ATOM      9  C   UNL     1       3.066   2.787  21.052  0.00  0.00    +0.000 C 
ATOM     10  C   UNL     1       3.565   3.010  19.621  0.00  0.00    +0.000 C 
ATOM     11  H   UNL     1       3.030   7.012  17.807  0.00  0.00    +0.000 HD
ATOM     12  H   UNL     1       1.937   6.323  18.845  0.00  0.00    +0.000 HD
ENDBRANCH   1   2
BRANCH   1  13
ATOM     13  C   UNL     1       6.730   5.877  16.937  0.00  0.00    +0.000 C 
ATOM     14  C   UNL     1       7.365   4.880  17.927  0.00  0.00    +0.000 C 
ATOM     15  C   UNL     1       7.759   5.713  19.144  0.00  0.00    +0.000 C 
ATOM     16  C   UNL     1       8.022   7.121  18.619  0.00  0.00    +0.000 C 
ATOM     17  C   UNL     1       7.639   7.110  17.138  0.00  0.00    +0.000 C 
BRANCH  13  18
ATOM     18  C   UNL     1       6.808   5.334  15.485  0.00  0.00    +0.000 C 
BRANCH  18  19
ATOM     19  C   UNL     1       6.053   4.022  15.271  0.00  0.00    +0.000 C 
BRANCH  19  20
ATOM     20  O   UNL     1       5.397   4.025  13.998  0.00  0.00    +0.000 OA
BRANCH  20  22
ATOM     21  C   UNL     1       5.747   2.837  11.932  0.00  0.00    +0.000 C 
ATOM     22  C   UNL     1       6.343   3.783  12.954  0.00  0.00    +0.000 C 
ENDBRANCH  20  22
ENDBRANCH  19  20
ENDBRANCH  18  19
ENDBRANCH  13  18
ENDBRANCH   1  13
TORSDOF 6
ENDMDL
MODEL 3
REMARK VINA RESULT:      -7.0      1.529      2.052
REMARK  Name = 
REMARK  7 active torsions:
REMARK  status: ('A' for Active; 'I' for Inactive)
REMARK    1  A    between atoms: C_1  and  C_2
REMARK    2  A    between atoms: C_2  and  O_3
REMARK    3  A    between atoms: O_3  and  C_4
REMARK    4  A    between atoms: C_4  and  C_5
REMARK    5  A    between atoms: C_5  and  C_6
REMARK    6  A    between atoms: C_6  and  C_7
REMARK    7  A    between atoms: C_7  and  N_8
REMARK                            x       y       z     vdW  Elec       q    Type
REMARK                         _______ _______ _______ _____ _____    ______ ____
ROOT
ATOM      1  C   UNL     1       5.536   3.632  16.432  0.00  0.00    +0.000 C 
ENDROOT
BRANCH   1   2
ATOM      2  N   UNL     1       4.260   3.750  17.136  0.00  0.00    +0.000 NA
ATOM      3  C   UNL     1       4.223   3.653  18.416  0.00  0.00    +0.000 C 
ATOM      4  N   UNL     1       5.299   3.407  19.216  0.00  0.00    +0.000 N 
ATOM      5  N   UNL     1       3.049   3.732  19.133  0.00  0.00    +0.000 N 
ATOM      6  C   UNL     1       2.955   4.166  20.529  0.00  0.00    +0.000 C 
ATOM      7  C   UNL     1       2.110   3.150  21.296  0.00  0.00    +0.000 C 
ATOM      8  C   UNL     1       0.728   2.998  20.661  0.00  0.00    +0.000 C 
ATOM      9  C   UNL     1       0.825   2.730  19.158  0.00  0.00    +0.000 C 
ATOM     10  C   UNL     1       1.748   3.727  18.452  0.00  0.00    +0.000 C 
ATOM     11  H   UNL     1       6.121   3.098  18.717  0.00  0.00    +0.000 HD
ATOM     12  H   UNL     1       5.070   2.755  19.951  0.00  0.00    +0.000 HD
ENDBRANCH   1   2
BRANCH   1  13
ATOM     13  C   UNL     1       5.763   4.879  15.531  0.00  0.00    +0.000 C 
ATOM     14  C   UNL     1       7.218   5.384  15.626  0.00  0.00    +0.000 C 
ATOM     15  C   UNL     1       7.295   6.152  16.942  0.00  0.00    +0.000 C 
ATOM     16  C   UNL     1       5.887   6.680  17.202  0.00  0.00    +0.000 C 
ATOM     17  C   UNL     1       4.994   6.090  16.108  0.00  0.00    +0.000 C 
BRANCH  13  18
ATOM     18  C   UNL     1       5.375   4.600  14.055  0.00  0.00    +0.000 C 
BRANCH  18  19
ATOM     19  C   UNL     1       6.406   3.774  13.286  0.00  0.00    +0.000 C 
BRANCH  19  20
ATOM     20  O   UNL     1       5.896   3.411  11.998  0.00  0.00    +0.000 OA
BRANCH  20  22
ATOM     21  C   UNL     1       3.865   3.441  10.704  0.00  0.00    +0.000 C 
ATOM     22  C   UNL     1       4.483   3.206  12.066  0.00  0.00    +0.000 C 
ENDBRANCH  20  22
ENDBRANCH  19  20
ENDBRANCH  18  19
ENDBRANCH  13  18
ENDBRANCH   1  13
TORSDOF 6
ENDMDL
MODEL 4
REMARK VINA RESULT:      -6.7      1.272      1.879
REMARK  Name = 
REMARK  7 active torsions:
REMARK  status: ('A' for Active; 'I' for Inactive)
REMARK    1  A    between atoms: C_1  and  C_2
REMARK    2  A    between atoms: C_2  and  O_3
REMARK    3  A    between atoms: O_3  and  C_4
REMARK    4  A    between atoms: C_4  and  C_5
REMARK    5  A    between atoms: C_5  and  C_6
REMARK    6  A    between atoms: C_6  and  C_7
REMARK    7  A    between atoms: C_7  and  N_8
REMARK                            x       y       z     vdW  Elec       q    Type
REMARK                         _______ _______ _______ _____ _____    ______ ____
ROOT
ATOM      1  C   UNL     1       5.133   5.535  16.840  0.00  0.00    +0.000 C 
ENDROOT
BRANCH   1   2
ATOM      2  N   UNL     1       4.610   4.899  18.048  0.00  0.00    +0.000 NA
ATOM      3  C   UNL     1       3.654   4.045  17.961  0.00  0.00    +0.000 C 
ATOM      4  N   UNL     1       3.029   3.684  16.804  0.00  0.00    +0.000 N 
ATOM      5  N   UNL     1       3.104   3.431  19.063  0.00  0.00    +0.000 N 
ATOM      6  C   UNL     1       2.443   2.123  19.044  0.00  0.00    +0.000 C 
ATOM      7  C   UNL     1       1.104   2.246  19.769  0.00  0.00    +0.000 C 
ATOM      8  C   UNL     1       1.300   2.754  21.197  0.00  0.00    +0.000 C 
ATOM      9  C   UNL     1       2.153   4.023  21.231  0.00  0.00    +0.000 C 
ATOM     10  C   UNL     1       3.445   3.873  20.422  0.00  0.00    +0.000 C 
ATOM     11  H   UNL     1       3.230   4.288  16.020  0.00  0.00    +0.000 HD
ATOM     12  H   UNL     1       2.032   3.600  16.935  0.00  0.00    +0.000 HD
ENDBRANCH   1   2
BRANCH   1  13
ATOM     13  C   UNL     1       6.645   5.212  16.682  0.00  0.00    +0.000 C 
ATOM     14  C   UNL     1       7.259   4.724  18.010  0.00  0.00    +0.000 C 
ATOM     15  C   UNL     1       7.477   5.985  18.842  0.00  0.00    +0.000 C 
ATOM     16  C   UNL     1       7.683   7.117  17.840  0.00  0.00    +0.000 C 
ATOM     17  C   UNL     1       7.440   6.518  16.453  0.00  0.00    +0.000 C 
BRANCH  13  18
ATOM     18  C   UNL     1       6.896   4.180  15.550  0.00  0.00    +0.000 C 
BRANCH  18  19
ATOM     19  C   UNL     1       5.877   4.244  14.414  0.00  0.00    +0.000 C 
BRANCH  19  20
ATOM     20  O   UNL     1       6.541   4.244  13.145  0.00  0.00    +0.000 OA
BRANCH  20  22
ATOM     21  C   UNL     1       4.737   3.389  11.799  0.00  0.00    +0.000 C 
ATOM     22  C   UNL     1       6.116   3.125  12.364  0.00  0.00    +0.000 C 
ENDBRANCH  20  22
ENDBRANCH  19  20
ENDBRANCH  18  19
ENDBRANCH  13  18
ENDBRANCH   1  13
TORSDOF 6
ENDMDL
MODEL 5
REMARK VINA RESULT:      -6.7      2.723      4.587
REMARK  Name = 
REMARK  7 active torsions:
REMARK  status: ('A' for Active; 'I' for Inactive)
REMARK    1  A    between atoms: C_1  and  C_2
REMARK    2  A    between atoms: C_2  and  O_3
REMARK    3  A    between atoms: O_3  and  C_4
REMARK    4  A    between atoms: C_4  and  C_5
REMARK    5  A    between atoms: C_5  and  C_6
REMARK    6  A    between atoms: C_6  and  C_7
REMARK    7  A    between atoms: C_7  and  N_8
REMARK                            x       y       z     vdW  Elec       q    Type
REMARK                         _______ _______ _______ _____ _____    ______ ____
ROOT
ATOM      1  C   UNL     1       3.661   4.962  19.191  0.00  0.00    +0.000 C 
ENDROOT
BRANCH   1   2
ATOM      2  N   UNL     1       3.182   6.327  18.983  0.00  0.00    +0.000 NA
ATOM      3  C   UNL     1       2.328   6.838  19.796  0.00  0.00    +0.000 C 
ATOM      4  N   UNL     1       1.776   6.191  20.861  0.00  0.00    +0.000 N 
ATOM      5  N   UNL     1       1.821   8.109  19.638  0.00  0.00    +0.000 N 
ATOM      6  C   UNL     1       1.310   8.942  20.730  0.00  0.00    +0.000 C 
ATOM      7  C   UNL     1      -0.053   9.497  20.318  0.00  0.00    +0.000 C 
ATOM      8  C   UNL     1       0.050  10.285  19.013  0.00  0.00    +0.000 C 
ATOM      9  C   UNL     1       0.757   9.478  17.922  0.00  0.00    +0.000 C 
ATOM     10  C   UNL     1       2.077   8.877  18.412  0.00  0.00    +0.000 C 
ATOM     11  H   UNL     1       1.929   5.193  20.862  0.00  0.00    +0.000 HD
ATOM     12  H   UNL     1       0.791   6.395  20.946  0.00  0.00    +0.000 HD
ENDBRANCH   1   2
BRANCH   1  13
ATOM     13  C   UNL     1       3.338   4.090  17.945  0.00  0.00    +0.000 C 
ATOM     14  C   UNL     1       1.830   4.103  17.624  0.00  0.00    +0.000 C 
ATOM     15  C   UNL     1       1.195   3.144  18.628  0.00  0.00    +0.000 C 
ATOM     16  C   UNL     1       2.277   2.126  18.976  0.00  0.00    +0.000 C 
ATOM     17  C   UNL     1       3.555   2.596  18.279  0.00  0.00    +0.000 C 
BRANCH  13  18
ATOM     18  C   UNL     1       4.166   4.528  16.707  0.00  0.00    +0.000 C 
BRANCH  18  19
ATOM     19  C   UNL     1       5.664   4.665  16.978  0.00  0.00    +0.000 C 
BRANCH  19  20
ATOM     20  O   UNL     1       6.411   3.832  16.084  0.00  0.00    +0.000 OA
BRANCH  20  22
ATOM     21  C   UNL     1       6.179   3.896  13.687  0.00  0.00    +0.000 C 
ATOM     22  C   UNL     1       6.771   4.565  14.910  0.00  0.00    +0.000 C 
ENDBRANCH  20  22
ENDBRANCH  19  20
ENDBRANCH  18  19
ENDBRANCH  13  18
ENDBRANCH   1  13
TORSDOF 6
ENDMDL
MODEL 6
REMARK VINA RESULT:      -6.7      1.930      3.982
REMARK  Name = 
REMARK  7 active torsions:
REMARK  status: ('A' for Active; 'I' for Inactive)
REMARK    1  A    between atoms: C_1  and  C_2
REMARK    2  A    between atoms: C_2  and  O_3
REMARK    3  A    between atoms: O_3  and  C_4
REMARK    4  A    between atoms: C_4  and  C_5
REMARK    5  A    between atoms: C_5  and  C_6
REMARK    6  A    between atoms: C_6  and  C_7
REMARK    7  A    between atoms: C_7  and  N_8
REMARK                            x       y       z     vdW  Elec       q    Type
REMARK                         _______ _______ _______ _____ _____    ______ ____
ROOT
ATOM      1  C   UNL     1       5.723   3.638  16.309  0.00  0.00    +0.000 C 
ENDROOT
BRANCH   1   2
ATOM      2  N   UNL     1       4.434   3.729  16.992  0.00  0.00    +0.000 NA
ATOM      3  C   UNL     1       4.385   3.701  18.276  0.00  0.00    +0.000 C 
ATOM      4  N   UNL     1       5.463   3.554  19.098  0.00  0.00    +0.000 N 
ATOM      5  N   UNL     1       3.200   3.757  18.975  0.00  0.00    +0.000 N 
ATOM      6  C   UNL     1       3.066   4.262  20.344  0.00  0.00    +0.000 C 
ATOM      7  C   UNL     1       2.265   3.247  21.158  0.00  0.00    +0.000 C 
ATOM      8  C   UNL     1       0.901   2.989  20.519  0.00  0.00    +0.000 C 
ATOM      9  C   UNL     1       1.030   2.644  19.035  0.00  0.00    +0.000 C 
ATOM     10  C   UNL     1       1.909   3.648  18.283  0.00  0.00    +0.000 C 
ATOM     11  H   UNL     1       6.306   3.262  18.625  0.00  0.00    +0.000 HD
ATOM     12  H   UNL     1       5.258   2.933  19.866  0.00  0.00    +0.000 HD
ENDBRANCH   1   2
BRANCH   1  13
ATOM     13  C   UNL     1       5.926   4.879  15.393  0.00  0.00    +0.000 C 
ATOM     14  C   UNL     1       4.871   4.928  14.269  0.00  0.00    +0.000 C 
ATOM     15  C   UNL     1       5.341   3.914  13.229  0.00  0.00    +0.000 C 
ATOM     16  C   UNL     1       6.859   3.849  13.364  0.00  0.00    +0.000 C 
ATOM     17  C   UNL     1       7.225   4.716  14.570  0.00  0.00    +0.000 C 
BRANCH  13  18
ATOM     18  C   UNL     1       5.922   6.200  16.207  0.00  0.00    +0.000 C 
BRANCH  18  19
ATOM     19  C   UNL     1       7.055   6.305  17.227  0.00  0.00    +0.000 C 
BRANCH  19  20
ATOM     20  O   UNL     1       7.898   7.423  16.924  0.00  0.00    +0.000 OA
BRANCH  20  22
ATOM     21  C   UNL     1       8.613   9.234  18.341  0.00  0.00    +0.000 C 
ATOM     22  C   UNL     1       7.448   8.585  17.625  0.00  0.00    +0.000 C 
ENDBRANCH  20  22
ENDBRANCH  19  20
ENDBRANCH  18  19
ENDBRANCH  13  18
ENDBRANCH   1  13
TORSDOF 6
ENDMDL
MODEL 7
REMARK VINA RESULT:      -6.5      1.798      3.789
REMARK  Name = 
REMARK  7 active torsions:
REMARK  status: ('A' for Active; 'I' for Inactive)
REMARK    1  A    between atoms: C_1  and  C_2
REMARK    2  A    between atoms: C_2  and  O_3
REMARK    3  A    between atoms: O_3  and  C_4
REMARK    4  A    between atoms: C_4  and  C_5
REMARK    5  A    between atoms: C_5  and  C_6
REMARK    6  A    between atoms: C_6  and  C_7
REMARK    7  A    between atoms: C_7  and  N_8
REMARK                            x       y       z     vdW  Elec       q    Type
REMARK                         _______ _______ _______ _____ _____    ______ ____
ROOT
ATOM      1  C   UNL     1       5.490   3.677  16.229  0.00  0.00    +0.000 C 
ENDROOT
BRANCH   1   2
ATOM      2  N   UNL     1       4.240   3.768  16.981  0.00  0.00    +0.000 NA
ATOM      3  C   UNL     1       4.259   3.719  18.265  0.00  0.00    +0.000 C 
ATOM      4  N   UNL     1       5.377   3.549  19.027  0.00  0.00    +0.000 N 
ATOM      5  N   UNL     1       3.113   3.774  19.027  0.00  0.00    +0.000 N 
ATOM      6  C   UNL     1       3.056   4.256  20.409  0.00  0.00    +0.000 C 
ATOM      7  C   UNL     1       2.289   3.235  21.247  0.00  0.00    +0.000 C 
ATOM      8  C   UNL     1       0.891   3.000  20.677  0.00  0.00    +0.000 C 
ATOM      9  C   UNL     1       0.938   2.679  19.183  0.00  0.00    +0.000 C 
ATOM     10  C   UNL     1       1.786   3.688  18.402  0.00  0.00    +0.000 C 
ATOM     11  H   UNL     1       6.190   3.257  18.505  0.00  0.00    +0.000 HD
ATOM     12  H   UNL     1       5.206   2.916  19.794  0.00  0.00    +0.000 HD
ENDBRANCH   1   2
BRANCH   1  13
ATOM     13  C   UNL     1       5.631   4.903  15.283  0.00  0.00    +0.000 C 
ATOM     14  C   UNL     1       4.913   4.663  13.939  0.00  0.00    +0.000 C 
ATOM     15  C   UNL     1       5.849   3.765  13.135  0.00  0.00    +0.000 C 
ATOM     16  C   UNL     1       7.257   4.074  13.635  0.00  0.00    +0.000 C 
ATOM     17  C   UNL     1       7.097   5.038  14.813  0.00  0.00    +0.000 C 
BRANCH  13  18
ATOM     18  C   UNL     1       5.119   6.207  15.953  0.00  0.00    +0.000 C 
BRANCH  18  19
ATOM     19  C   UNL     1       6.199   6.985  16.703  0.00  0.00    +0.000 C 
BRANCH  19  20
ATOM     20  O   UNL     1       6.391   6.438  18.012  0.00  0.00    +0.000 OA
BRANCH  20  22
ATOM     21  C   UNL     1       8.067   5.650  19.553  0.00  0.00    +0.000 C 
ATOM     22  C   UNL     1       7.750   6.608  18.424  0.00  0.00    +0.000 C 
ENDBRANCH  20  22
ENDBRANCH  19  20
ENDBRANCH  18  19
ENDBRANCH  13  18
ENDBRANCH   1  13
TORSDOF 6
ENDMDL
MODEL 8
REMARK VINA RESULT:      -6.5      3.546      4.781
REMARK  Name = 
REMARK  7 active torsions:
REMARK  status: ('A' for Active; 'I' for Inactive)
REMARK    1  A    between atoms: C_1  and  C_2
REMARK    2  A    between atoms: C_2  and  O_3
REMARK    3  A    between atoms: O_3  and  C_4
REMARK    4  A    between atoms: C_4  and  C_5
REMARK    5  A    between atoms: C_5  and  C_6
REMARK    6  A    between atoms: C_6  and  C_7
REMARK    7  A    between atoms: C_7  and  N_8
REMARK                            x       y       z     vdW  Elec       q    Type
REMARK                         _______ _______ _______ _____ _____    ______ ____
ROOT
ATOM      1  C   UNL     1       3.025   6.226  19.533  0.00  0.00    +0.000 C 
ENDROOT
BRANCH   1   2
ATOM      2  N   UNL     1       2.352   7.450  19.101  0.00  0.00    +0.000 NA
ATOM      3  C   UNL     1       1.739   8.183  19.961  0.00  0.00    +0.000 C 
ATOM      4  N   UNL     1       1.621   7.900  21.289  0.00  0.00    +0.000 N 
ATOM      5  N   UNL     1       1.067   9.332  19.611  0.00  0.00    +0.000 N 
ATOM      6  C   UNL     1       0.826  10.462  20.512  0.00  0.00    +0.000 C 
ATOM      7  C   UNL     1      -0.651  10.843  20.428  0.00  0.00    +0.000 C 
ATOM      8  C   UNL     1      -1.047  11.179  18.991  0.00  0.00    +0.000 C 
ATOM      9  C   UNL     1      -0.625  10.076  18.018  0.00  0.00    +0.000 C 
ATOM     10  C   UNL     1       0.842   9.676  18.201  0.00  0.00    +0.000 C 
ATOM     11  H   UNL     1       1.880   6.956  21.535  0.00  0.00    +0.000 HD
ATOM     12  H   UNL     1       0.694   8.110  21.629  0.00  0.00    +0.000 HD
ENDBRANCH   1   2
BRANCH   1  13
ATOM     13  C   UNL     1       3.813   5.606  18.345  0.00  0.00    +0.000 C 
ATOM     14  C   UNL     1       2.986   4.521  17.626  0.00  0.00    +0.000 C 
ATOM     15  C   UNL     1       3.084   3.283  18.514  0.00  0.00    +0.000 C 
ATOM     16  C   UNL     1       4.417   3.400  19.248  0.00  0.00    +0.000 C 
ATOM     17  C   UNL     1       4.996   4.767  18.880  0.00  0.00    +0.000 C 
BRANCH  13  18
ATOM     18  C   UNL     1       4.284   6.691  17.340  0.00  0.00    +0.000 C 
BRANCH  18  19
ATOM     19  C   UNL     1       5.624   6.381  16.673  0.00  0.00    +0.000 C 
BRANCH  19  20
ATOM     20  O   UNL     1       5.448   6.182  15.266  0.00  0.00    +0.000 OA
BRANCH  20  22
ATOM     21  C   UNL     1       5.978   3.841  15.470  0.00  0.00    +0.000 C 
ATOM     22  C   UNL     1       6.325   5.153  14.799  0.00  0.00    +0.000 C 
ENDBRANCH  20  22
ENDBRANCH  19  20
ENDBRANCH  18  19
ENDBRANCH  13  18
ENDBRANCH   1  13
TORSDOF 6
ENDMDL
MODEL 9
REMARK VINA RESULT:      -6.5      3.777      5.644
REMARK  Name = 
REMARK  7 active torsions:
REMARK  status: ('A' for Active; 'I' for Inactive)
REMARK    1  A    between atoms: C_1  and  C_2
REMARK    2  A    between atoms: C_2  and  O_3
REMARK    3  A    between atoms: O_3  and  C_4
REMARK    4  A    between atoms: C_4  and  C_5
REMARK    5  A    between atoms: C_5  and  C_6
REMARK    6  A    between atoms: C_6  and  C_7
REMARK    7  A    between atoms: C_7  and  N_8
REMARK                            x       y       z     vdW  Elec       q    Type
REMARK                         _______ _______ _______ _____ _____    ______ ____
ROOT
ATOM      1  C   UNL     1       2.972   6.300  19.576  0.00  0.00    +0.000 C 
ENDROOT
BRANCH   1   2
ATOM      2  N   UNL     1       2.294   7.528  19.164  0.00  0.00    +0.000 NA
ATOM      3  C   UNL     1       1.700   8.258  20.039  0.00  0.00    +0.000 C 
ATOM      4  N   UNL     1       1.607   7.969  21.368  0.00  0.00    +0.000 N 
ATOM      5  N   UNL     1       1.025   9.411  19.708  0.00  0.00    +0.000 N 
ATOM      6  C   UNL     1       0.805  10.537  20.620  0.00  0.00    +0.000 C 
ATOM      7  C   UNL     1      -0.672  10.923  20.566  0.00  0.00    +0.000 C 
ATOM      8  C   UNL     1      -1.095  11.267  19.139  0.00  0.00    +0.000 C 
ATOM      9  C   UNL     1      -0.696  10.169  18.152  0.00  0.00    +0.000 C 
ATOM     10  C   UNL     1       0.773   9.763  18.304  0.00  0.00    +0.000 C 
ATOM     11  H   UNL     1       1.868   7.022  21.603  0.00  0.00    +0.000 HD
ATOM     12  H   UNL     1       0.688   8.179  21.726  0.00  0.00    +0.000 HD
ENDBRANCH   1   2
BRANCH   1  13
ATOM     13  C   UNL     1       3.314   5.438  18.328  0.00  0.00    +0.000 C 
ATOM     14  C   UNL     1       4.365   4.359  18.660  0.00  0.00    +0.000 C 
ATOM     15  C   UNL     1       5.703   5.094  18.687  0.00  0.00    +0.000 C 
ATOM     16  C   UNL     1       5.548   6.280  17.740  0.00  0.00    +0.000 C 
ATOM     17  C   UNL     1       4.084   6.291  17.295  0.00  0.00    +0.000 C 
BRANCH  13  18
ATOM     18  C   UNL     1       2.044   4.793  17.711  0.00  0.00    +0.000 C 
BRANCH  18  19
ATOM     19  C   UNL     1       2.119   3.272  17.581  0.00  0.00    +0.000 C 
BRANCH  19  20
ATOM     20  O   UNL     1       1.054   2.655  18.313  0.00  0.00    +0.000 OA
BRANCH  20  22
ATOM     21  C   UNL     1       1.145   3.026  20.692  0.00  0.00    +0.000 C 
ATOM     22  C   UNL     1       1.546   2.122  19.546  0.00  0.00    +0.000 C 
ENDBRANCH  20  22
ENDBRANCH  19  20
ENDBRANCH  18  19
ENDBRANCH  13  18
ENDBRANCH   1  13
TORSDOF 6
ENDMDL
