MODEL 1
REMARK VINA RESULT:      -8.1      0.000      0.000
REMARK  Name = 
REMARK  4 active torsions:
REMARK  status: ('A' for Active; 'I' for Inactive)
REMARK    1  A    between atoms: C_1  and  C_2
REMARK    2  A    between atoms: C_6  and  N_7
REMARK    3  A    between atoms: C_8  and  C_10
REMARK    4  A    between atoms: C_10  and  N_11
REMARK                            x       y       z     vdW  Elec       q    Type
REMARK                         _______ _______ _______ _____ _____    ______ ____
ROOT
ATOM      1  C   UNL     1       6.487   5.691  18.306  0.00  0.00    +0.000 C 
ENDROOT
BRANCH   1   2
ATOM      2  N   UNL     1       5.414   4.871  18.849  0.00  0.00    +0.000 N 
ATOM      3  C   UNL     1       5.670   3.588  19.272  0.00  0.00    +0.000 A 
ATOM      4  N   UNL     1       4.780   2.778  19.740  0.00  0.00    +0.000 NA
ATOM      5  C   UNL     1       3.467   3.255  19.870  0.00  0.00    +0.000 A 
ATOM      6  C   UNL     1       2.493   2.414  20.413  0.00  0.00    +0.000 A 
ATOM      7  C   UNL     1       1.190   2.875  20.622  0.00  0.00    +0.000 A 
ATOM      8  C   UNL     1       0.847   4.182  20.276  0.00  0.00    +0.000 A 
ATOM      9  C   UNL     1       1.802   5.025  19.708  0.00  0.00    +0.000 A 
ATOM     10  C   UNL     1       3.104   4.555  19.511  0.00  0.00    +0.000 A 
ATOM     11  C   UNL     1       4.150   5.425  18.937  0.00  0.00    +0.000 A 
ATOM     12  O   UNL     1       3.889   6.569  18.572  0.00  0.00    +0.000 OA
ENDBRANCH   1   2
BRANCH   1  14
ATOM     13  N   UNL     1       6.275   5.381  15.884  0.00  0.00    +0.000 N 
ATOM     14  C   UNL     1       7.003   5.050  17.019  0.00  0.00    +0.000 C 
ATOM     15  O   UNL     1       8.008   4.345  17.062  0.00  0.00    +0.000 OA
ATOM     16  H   UNL     1       5.454   5.966  16.007  0.00  0.00    +0.000 HD
BRANCH  13  22
ATOM     17  C   UNL     1       5.032   2.651  11.947  0.00  0.00    +0.000 C 
ATOM     18  C   UNL     1       5.947   3.640  12.607  0.00  0.00    +0.000 A 
ATOM     19  C   UNL     1       7.068   4.123  11.927  0.00  0.00    +0.000 A 
ATOM     20  C   UNL     1       7.922   5.030  12.542  0.00  0.00    +0.000 A 
ATOM     21  C   UNL     1       7.674   5.454  13.850  0.00  0.00    +0.000 A 
ATOM     22  C   UNL     1       6.566   4.983  14.557  0.00  0.00    +0.000 A 
ATOM     23  C   UNL     1       5.694   4.086  13.919  0.00  0.00    +0.000 A 
ENDBRANCH  13  22
ENDBRANCH   1  14
TORSDOF 3
ENDMDL
MODEL 2
REMARK VINA RESULT:      -8.1      1.084      1.084
REMARK  Name = 
REMARK  4 active torsions:
REMARK  status: ('A' for Active; 'I' for Inactive)
REMARK    1  A    between atoms: C_1  and  C_2
REMARK    2  A    between atoms: C_6  and  N_7
REMARK    3  A    between atoms: C_8  and  C_10
REMARK    4  A    between atoms: C_10  and  N_11
REMARK                            x       y       z     vdW  Elec       q    Type
REMARK                         _______ _______ _______ _____ _____    ______ ____
ROOT
ATOM      1  C   UNL     1       5.983   6.446  17.794  0.00  0.00    +0.000 C 
ENDROOT
BRANCH   1   2
ATOM      2  N   UNL     1       5.125   5.450  18.419  0.00  0.00    +0.000 N 
ATOM      3  C   UNL     1       5.612   4.195  18.697  0.00  0.00    +0.000 A 
ATOM      4  N   UNL     1       4.921   3.239  19.224  0.00  0.00    +0.000 NA
ATOM      5  C   UNL     1       3.592   3.515  19.580  0.00  0.00    +0.000 A 
ATOM      6  C   UNL     1       2.835   2.512  20.190  0.00  0.00    +0.000 A 
ATOM      7  C   UNL     1       1.530   2.769  20.623  0.00  0.00    +0.000 A 
ATOM      8  C   UNL     1       0.967   4.032  20.436  0.00  0.00    +0.000 A 
ATOM      9  C   UNL     1       1.702   5.034  19.804  0.00  0.00    +0.000 A 
ATOM     10  C   UNL     1       3.009   4.768  19.383  0.00  0.00    +0.000 A 
ATOM     11  C   UNL     1       3.828   5.811  18.734  0.00  0.00    +0.000 A 
ATOM     12  O   UNL     1       3.364   6.926  18.504  0.00  0.00    +0.000 OA
ENDBRANCH   1   2
BRANCH   1  14
ATOM     13  N   UNL     1       6.833   5.395  15.749  0.00  0.00    +0.000 N 
ATOM     14  C   UNL     1       5.908   6.286  16.276  0.00  0.00    +0.000 C 
ATOM     15  O   UNL     1       5.046   6.899  15.651  0.00  0.00    +0.000 OA
ATOM     16  H   UNL     1       7.496   4.972  16.392  0.00  0.00    +0.000 HD
BRANCH  13  22
ATOM     17  C   UNL     1       5.215   2.545  12.040  0.00  0.00    +0.000 C 
ATOM     18  C   UNL     1       6.141   3.608  12.555  0.00  0.00    +0.000 A 
ATOM     19  C   UNL     1       7.102   4.171  11.713  0.00  0.00    +0.000 A 
ATOM     20  C   UNL     1       7.967   5.146  12.192  0.00  0.00    +0.000 A 
ATOM     21  C   UNL     1       7.892   5.561  13.524  0.00  0.00    +0.000 A 
ATOM     22  C   UNL     1       6.946   5.010  14.391  0.00  0.00    +0.000 A 
ATOM     23  C   UNL     1       6.059   4.044  13.893  0.00  0.00    +0.000 A 
ENDBRANCH  13  22
ENDBRANCH   1  14
TORSDOF 3
ENDMDL
MODEL 3
REMARK VINA RESULT:      -8.1      1.477      1.997
REMARK  Name = 
REMARK  4 active torsions:
REMARK  status: ('A' for Active; 'I' for Inactive)
REMARK    1  A    between atoms: C_1  and  C_2
REMARK    2  A    between atoms: C_6  and  N_7
REMARK    3  A    between atoms: C_8  and  C_10
REMARK    4  A    between atoms: C_10  and  N_11
REMARK                            x       y       z     vdW  Elec       q    Type
REMARK                         _______ _______ _______ _____ _____    ______ ____
ROOT
ATOM      1  C   UNL     1       6.328   5.789  18.329  0.00  0.00    +0.000 C 
ENDROOT
BRANCH   1   2
ATOM      2  N   UNL     1       4.966   5.278  18.360  0.00  0.00    +0.000 N 
ATOM      3  C   UNL     1       3.944   5.998  17.787  0.00  0.00    +0.000 A 
ATOM      4  N   UNL     1       2.703   5.640  17.789  0.00  0.00    +0.000 NA
ATOM      5  C   UNL     1       2.380   4.407  18.376  0.00  0.00    +0.000 A 
ATOM      6  C   UNL     1       1.052   3.976  18.354  0.00  0.00    +0.000 A 
ATOM      7  C   UNL     1       0.701   2.724  18.867  0.00  0.00    +0.000 A 
ATOM      8  C   UNL     1       1.678   1.895  19.420  0.00  0.00    +0.000 A 
ATOM      9  C   UNL     1       3.005   2.324  19.473  0.00  0.00    +0.000 A 
ATOM     10  C   UNL     1       3.344   3.575  18.949  0.00  0.00    +0.000 A 
ATOM     11  C   UNL     1       4.741   4.054  18.963  0.00  0.00    +0.000 A 
ATOM     12  O   UNL     1       5.633   3.384  19.480  0.00  0.00    +0.000 OA
ENDBRANCH   1   2
BRANCH   1  14
ATOM     13  N   UNL     1       6.528   4.811  16.091  0.00  0.00    +0.000 N 
ATOM     14  C   UNL     1       6.776   5.928  16.875  0.00  0.00    +0.000 C 
ATOM     15  O   UNL     1       7.270   6.989  16.500  0.00  0.00    +0.000 OA
ATOM     16  H   UNL     1       6.124   3.997  16.547  0.00  0.00    +0.000 HD
BRANCH  13  22
ATOM     17  C   UNL     1       5.398   2.639  11.789  0.00  0.00    +0.000 C 
ATOM     18  C   UNL     1       6.216   3.621  12.575  0.00  0.00    +0.000 A 
ATOM     19  C   UNL     1       7.216   4.366  11.944  0.00  0.00    +0.000 A 
ATOM     20  C   UNL     1       7.982   5.267  12.673  0.00  0.00    +0.000 A 
ATOM     21  C   UNL     1       7.767   5.425  14.045  0.00  0.00    +0.000 A 
ATOM     22  C   UNL     1       6.780   4.688  14.703  0.00  0.00    +0.000 A 
ATOM     23  C   UNL     1       5.993   3.798  13.954  0.00  0.00    +0.000 A 
ENDBRANCH  13  22
ENDBRANCH   1  14
TORSDOF 3
ENDMDL
MODEL 4
REMARK VINA RESULT:      -8.0      3.020      7.409
REMARK  Name = 
REMARK  4 active torsions:
REMARK  status: ('A' for Active; 'I' for Inactive)
REMARK    1  A    between atoms: C_1  and  C_2
REMARK    2  A    between atoms: C_6  and  N_7
REMARK    3  A    between atoms: C_8  and  C_10
REMARK    4  A    between atoms: C_10  and  N_11
REMARK                            x       y       z     vdW  Elec       q    Type
REMARK                         _______ _______ _______ _____ _____    ______ ____
ROOT
ATOM      1  C   UNL     1       3.259   4.077  20.271  0.00  0.00    +0.000 C 
ENDROOT
BRANCH   1   2
ATOM      2  N   UNL     1       3.846   4.094  18.940  0.00  0.00    +0.000 N 
ATOM      3  C   UNL     1       3.078   3.788  17.842  0.00  0.00    +0.000 A 
ATOM      4  N   UNL     1       3.515   3.750  16.627  0.00  0.00    +0.000 NA
ATOM      5  C   UNL     1       4.858   4.090  16.407  0.00  0.00    +0.000 A 
ATOM      6  C   UNL     1       5.347   4.098  15.098  0.00  0.00    +0.000 A 
ATOM      7  C   UNL     1       6.660   4.499  14.830  0.00  0.00    +0.000 A 
ATOM      8  C   UNL     1       7.501   4.882  15.876  0.00  0.00    +0.000 A 
ATOM      9  C   UNL     1       7.035   4.853  17.190  0.00  0.00    +0.000 A 
ATOM     10  C   UNL     1       5.717   4.459  17.444  0.00  0.00    +0.000 A 
ATOM     11  C   UNL     1       5.179   4.440  18.819  0.00  0.00    +0.000 A 
ATOM     12  O   UNL     1       5.891   4.724  19.780  0.00  0.00    +0.000 OA
ENDBRANCH   1   2
BRANCH   1  14
ATOM     13  N   UNL     1       2.666   6.451  20.131  0.00  0.00    +0.000 N 
ATOM     14  C   UNL     1       2.192   5.167  20.361  0.00  0.00    +0.000 C 
ATOM     15  O   UNL     1       1.026   4.847  20.581  0.00  0.00    +0.000 OA
ATOM     16  H   UNL     1       3.664   6.562  19.976  0.00  0.00    +0.000 HD
BRANCH  13  22
ATOM     17  C   UNL     1      -0.388   9.560  22.477  0.00  0.00    +0.000 C 
ATOM     18  C   UNL     1       0.389   9.177  21.251  0.00  0.00    +0.000 A 
ATOM     19  C   UNL     1       0.315   9.963  20.099  0.00  0.00    +0.000 A 
ATOM     20  C   UNL     1       1.024   9.603  18.960  0.00  0.00    +0.000 A 
ATOM     21  C   UNL     1       1.806   8.444  18.955  0.00  0.00    +0.000 A 
ATOM     22  C   UNL     1       1.892   7.636  20.090  0.00  0.00    +0.000 A 
ATOM     23  C   UNL     1       1.192   8.020  21.245  0.00  0.00    +0.000 A 
ENDBRANCH  13  22
ENDBRANCH   1  14
TORSDOF 3
ENDMDL
MODEL 5
REMARK VINA RESULT:      -8.0      1.480      1.954
REMARK  Name = 
REMARK  4 active torsions:
REMARK  status: ('A' for Active; 'I' for Inactive)
REMARK    1  A    between atoms: C_1  and  C_2
REMARK    2  A    between atoms: C_6  and  N_7
REMARK    3  A    between atoms: C_8  and  C_10
REMARK    4  A    between atoms: C_10  and  N_11
REMARK                            x       y       z     vdW  Elec       q    Type
REMARK                         _______ _______ _______ _____ _____    ______ ____
ROOT
ATOM      1  C   UNL     1       6.090   5.718  17.998  0.00  0.00    +0.000 C 
ENDROOT
BRANCH   1   2
ATOM      2  N   UNL     1       4.794   5.265  18.480  0.00  0.00    +0.000 N 
ATOM      3  C   UNL     1       4.042   6.070  19.301  0.00  0.00    +0.000 A 
ATOM      4  N   UNL     1       2.895   5.744  19.800  0.00  0.00    +0.000 NA
ATOM      5  C   UNL     1       2.358   4.499  19.441  0.00  0.00    +0.000 A 
ATOM      6  C   UNL     1       1.101   4.139  19.932  0.00  0.00    +0.000 A 
ATOM      7  C   UNL     1       0.502   2.937  19.543  0.00  0.00    +0.000 A 
ATOM      8  C   UNL     1       1.164   2.077  18.666  0.00  0.00    +0.000 A 
ATOM      9  C   UNL     1       2.432   2.411  18.190  0.00  0.00    +0.000 A 
ATOM     10  C   UNL     1       3.017   3.620  18.579  0.00  0.00    +0.000 A 
ATOM     11  C   UNL     1       4.346   4.020  18.076  0.00  0.00    +0.000 A 
ATOM     12  O   UNL     1       4.992   3.279  17.339  0.00  0.00    +0.000 OA
ENDBRANCH   1   2
BRANCH   1  14
ATOM     13  N   UNL     1       6.847   4.898  15.815  0.00  0.00    +0.000 N 
ATOM     14  C   UNL     1       6.047   5.822  16.474  0.00  0.00    +0.000 C 
ATOM     15  O   UNL     1       5.310   6.654  15.952  0.00  0.00    +0.000 OA
ATOM     16  H   UNL     1       7.416   4.279  16.385  0.00  0.00    +0.000 HD
BRANCH  13  22
ATOM     17  C   UNL     1       5.359   2.494  11.753  0.00  0.00    +0.000 C 
ATOM     18  C   UNL     1       6.208   3.546  12.404  0.00  0.00    +0.000 A 
ATOM     19  C   UNL     1       7.092   4.309  11.637  0.00  0.00    +0.000 A 
ATOM     20  C   UNL     1       7.888   5.274  12.241  0.00  0.00    +0.000 A 
ATOM     21  C   UNL     1       7.819   5.481  13.621  0.00  0.00    +0.000 A 
ATOM     22  C   UNL     1       6.950   4.728  14.413  0.00  0.00    +0.000 A 
ATOM     23  C   UNL     1       6.131   3.772  13.792  0.00  0.00    +0.000 A 
ENDBRANCH  13  22
ENDBRANCH   1  14
TORSDOF 3
ENDMDL
MODEL 6
REMARK VINA RESULT:      -7.8      2.771      7.256
REMARK  Name = 
REMARK  4 active torsions:
REMARK  status: ('A' for Active; 'I' for Inactive)
REMARK    1  A    between atoms: C_1  and  C_2
REMARK    2  A    between atoms: C_6  and  N_7
REMARK    3  A    between atoms: C_8  and  C_10
REMARK    4  A    between atoms: C_10  and  N_11
REMARK                            x       y       z     vdW  Elec       q    Type
REMARK                         _______ _______ _______ _____ _____    ______ ____
ROOT
ATOM      1  C   UNL     1       3.554   3.843  19.776  0.00  0.00    +0.000 C 
ENDROOT
BRANCH   1   2
ATOM      2  N   UNL     1       4.513   4.171  18.732  0.00  0.00    +0.000 N 
ATOM      3  C   UNL     1       5.714   4.756  19.055  0.00  0.00    +0.000 A 
ATOM      4  N   UNL     1       6.614   5.108  18.198  0.00  0.00    +0.000 NA
ATOM      5  C   UNL     1       6.369   4.830  16.845  0.00  0.00    +0.000 A 
ATOM      6  C   UNL     1       7.344   5.161  15.900  0.00  0.00    +0.000 A 
ATOM      7  C   UNL     1       7.168   4.838  14.551  0.00  0.00    +0.000 A 
ATOM      8  C   UNL     1       6.004   4.191  14.133  0.00  0.00    +0.000 A 
ATOM      9  C   UNL     1       5.010   3.879  15.061  0.00  0.00    +0.000 A 
ATOM     10  C   UNL     1       5.202   4.199  16.409  0.00  0.00    +0.000 A 
ATOM     11  C   UNL     1       4.185   3.862  17.425  0.00  0.00    +0.000 A 
ATOM     12  O   UNL     1       3.122   3.334  17.103  0.00  0.00    +0.000 OA
ENDBRANCH   1   2
BRANCH   1  14
ATOM     13  N   UNL     1       2.920   6.207  19.903  0.00  0.00    +0.000 N 
ATOM     14  C   UNL     1       2.455   4.904  19.795  0.00  0.00    +0.000 C 
ATOM     15  O   UNL     1       1.283   4.553  19.678  0.00  0.00    +0.000 OA
ATOM     16  H   UNL     1       3.921   6.341  20.007  0.00  0.00    +0.000 HD
BRANCH  13  22
ATOM     17  C   UNL     1      -0.235   9.197  22.270  0.00  0.00    +0.000 C 
ATOM     18  C   UNL     1       0.578   8.866  21.053  0.00  0.00    +0.000 A 
ATOM     19  C   UNL     1       0.524   9.689  19.927  0.00  0.00    +0.000 A 
ATOM     20  C   UNL     1       1.267   9.377  18.795  0.00  0.00    +0.000 A 
ATOM     21  C   UNL     1       2.063   8.228  18.771  0.00  0.00    +0.000 A 
ATOM     22  C   UNL     1       2.131   7.383  19.880  0.00  0.00    +0.000 A 
ATOM     23  C   UNL     1       1.397   7.719  21.029  0.00  0.00    +0.000 A 
ENDBRANCH  13  22
ENDBRANCH   1  14
TORSDOF 3
ENDMDL
MODEL 7
REMARK VINA RESULT:      -7.6      2.750      7.007
REMARK  Name = 
REMARK  4 active torsions:
REMARK  status: ('A' for Active; 'I' for Inactive)
REMARK    1  A    between atoms: C_1  and  C_2
REMARK    2  A    between atoms: C_6  and  N_7
REMARK    3  A    between atoms: C_8  and  C_10
REMARK    4  A    between atoms: C_10  and  N_11
REMARK                            x       y       z     vdW  Elec       q    Type
REMARK                         _______ _______ _______ _____ _____    ______ ____
ROOT
ATOM      1  C   UNL     1       3.060   3.378  19.802  0.00  0.00    +0.000 C 
ENDROOT
BRANCH   1   2
ATOM      2  N   UNL     1       4.133   3.771  18.900  0.00  0.00    +0.000 N 
ATOM      3  C   UNL     1       5.348   4.168  19.404  0.00  0.00    +0.000 A 
ATOM      4  N   UNL     1       6.348   4.561  18.685  0.00  0.00    +0.000 NA
ATOM      5  C   UNL     1       6.198   4.535  17.290  0.00  0.00    +0.000 A 
ATOM      6  C   UNL     1       7.278   4.913  16.488  0.00  0.00    +0.000 A 
ATOM      7  C   UNL     1       7.192   4.835  15.095  0.00  0.00    +0.000 A 
ATOM      8  C   UNL     1       6.016   4.389  14.491  0.00  0.00    +0.000 A 
ATOM      9  C   UNL     1       4.921   4.034  15.278  0.00  0.00    +0.000 A 
ATOM     10  C   UNL     1       5.022   4.108  16.671  0.00  0.00    +0.000 A 
ATOM     11  C   UNL     1       3.894   3.716  17.539  0.00  0.00    +0.000 A 
ATOM     12  O   UNL     1       2.820   3.360  17.058  0.00  0.00    +0.000 OA
ENDBRANCH   1   2
BRANCH   1  14
ATOM     13  N   UNL     1       2.717   5.798  19.990  0.00  0.00    +0.000 N 
ATOM     14  C   UNL     1       2.101   4.554  19.980  0.00  0.00    +0.000 C 
ATOM     15  O   UNL     1       0.895   4.335  20.059  0.00  0.00    +0.000 OA
ATOM     16  H   UNL     1       3.731   5.820  19.930  0.00  0.00    +0.000 HD
BRANCH  13  22
ATOM     17  C   UNL     1       1.608  10.110  17.830  0.00  0.00    +0.000 C 
ATOM     18  C   UNL     1       1.513   9.182  19.005  0.00  0.00    +0.000 A 
ATOM     19  C   UNL     1       0.824   9.573  20.156  0.00  0.00    +0.000 A 
ATOM     20  C   UNL     1       0.746   8.719  21.248  0.00  0.00    +0.000 A 
ATOM     21  C   UNL     1       1.367   7.467  21.210  0.00  0.00    +0.000 A 
ATOM     22  C   UNL     1       2.069   7.053  20.076  0.00  0.00    +0.000 A 
ATOM     23  C   UNL     1       2.122   7.912  18.966  0.00  0.00    +0.000 A 
ENDBRANCH  13  22
ENDBRANCH   1  14
TORSDOF 3
ENDMDL
MODEL 8
REMARK VINA RESULT:      -7.3      0.523      1.508
REMARK  Name = 
REMARK  4 active torsions:
REMARK  status: ('A' for Active; 'I' for Inactive)
REMARK    1  A    between atoms: C_1  and  C_2
REMARK    2  A    between atoms: C_6  and  N_7
REMARK    3  A    between atoms: C_8  and  C_10
REMARK    4  A    between atoms: C_10  and  N_11
REMARK                            x       y       z     vdW  Elec       q    Type
REMARK                         _______ _______ _______ _____ _____    ______ ____
ROOT
ATOM      1  C   UNL     1       6.620   5.356  18.731  0.00  0.00    +0.000 C 
ENDROOT
BRANCH   1   2
ATOM      2  N   UNL     1       5.442   4.622  19.168  0.00  0.00    +0.000 N 
ATOM      3  C   UNL     1       5.538   3.289  19.489  0.00  0.00    +0.000 A 
ATOM      4  N   UNL     1       4.545   2.549  19.859  0.00  0.00    +0.000 NA
ATOM      5  C   UNL     1       3.289   3.161  19.989  0.00  0.00    +0.000 A 
ATOM      6  C   UNL     1       2.207   2.395  20.428  0.00  0.00    +0.000 A 
ATOM      7  C   UNL     1       0.956   2.983  20.637  0.00  0.00    +0.000 A 
ATOM      8  C   UNL     1       0.773   4.345  20.392  0.00  0.00    +0.000 A 
ATOM      9  C   UNL     1       1.838   5.116  19.927  0.00  0.00    +0.000 A 
ATOM     10  C   UNL     1       3.087   4.519  19.731  0.00  0.00    +0.000 A 
ATOM     11  C   UNL     1       4.245   5.308  19.265  0.00  0.00    +0.000 A 
ATOM     12  O   UNL     1       4.127   6.500  18.990  0.00  0.00    +0.000 OA
ENDBRANCH   1   2
BRANCH   1  14
ATOM     13  N   UNL     1       6.213   5.079  16.329  0.00  0.00    +0.000 N 
ATOM     14  C   UNL     1       7.077   4.806  17.380  0.00  0.00    +0.000 C 
ATOM     15  O   UNL     1       8.154   4.218  17.308  0.00  0.00    +0.000 OA
ATOM     16  H   UNL     1       5.348   5.565  16.547  0.00  0.00    +0.000 HD
BRANCH  13  22
ATOM     17  C   UNL     1       8.555   6.033  12.075  0.00  0.00    +0.000 C 
ATOM     18  C   UNL     1       7.581   5.211  12.868  0.00  0.00    +0.000 A 
ATOM     19  C   UNL     1       6.881   4.168  12.257  0.00  0.00    +0.000 A 
ATOM     20  C   UNL     1       5.970   3.415  12.986  0.00  0.00    +0.000 A 
ATOM     21  C   UNL     1       5.737   3.704  14.334  0.00  0.00    +0.000 A 
ATOM     22  C   UNL     1       6.417   4.746  14.969  0.00  0.00    +0.000 A 
ATOM     23  C   UNL     1       7.354   5.486  14.231  0.00  0.00    +0.000 A 
ENDBRANCH  13  22
ENDBRANCH   1  14
TORSDOF 3
ENDMDL
MODEL 9
REMARK VINA RESULT:      -7.3      5.985      8.693
REMARK  Name = 
REMARK  4 active torsions:
REMARK  status: ('A' for Active; 'I' for Inactive)
REMARK    1  A    between atoms: C_1  and  C_2
REMARK    2  A    between atoms: C_6  and  N_7
REMARK    3  A    between atoms: C_8  and  C_10
REMARK    4  A    between atoms: C_10  and  N_11
REMARK                            x       y       z     vdW  Elec       q    Type
REMARK                         _______ _______ _______ _____ _____    ______ ____
ROOT
ATOM      1  C   UNL     1       0.834  10.258  20.190  0.00  0.00    +0.000 C 
ENDROOT
BRANCH   1   2
ATOM      2  N   UNL     1       1.491   9.101  19.601  0.00  0.00    +0.000 N 
ATOM      3  C   UNL     1       2.018   9.176  18.333  0.00  0.00    +0.000 A 
ATOM      4  N   UNL     1       2.593   8.197  17.718  0.00  0.00    +0.000 NA
ATOM      5  C   UNL     1       2.731   6.984  18.409  0.00  0.00    +0.000 A 
ATOM      6  C   UNL     1       3.387   5.921  17.783  0.00  0.00    +0.000 A 
ATOM      7  C   UNL     1       3.607   4.720  18.463  0.00  0.00    +0.000 A 
ATOM      8  C   UNL     1       3.158   4.567  19.776  0.00  0.00    +0.000 A 
ATOM      9  C   UNL     1       2.477   5.610  20.404  0.00  0.00    +0.000 A 
ATOM     10  C   UNL     1       2.272   6.810  19.716  0.00  0.00    +0.000 A 
ATOM     11  C   UNL     1       1.579   7.946  20.356  0.00  0.00    +0.000 A 
ATOM     12  O   UNL     1       1.123   7.849  21.493  0.00  0.00    +0.000 OA
ENDBRANCH   1   2
BRANCH   1  14
ATOM     13  N   UNL     1      -1.237  10.148  18.882  0.00  0.00    +0.000 N 
ATOM     14  C   UNL     1      -0.094  10.888  19.152  0.00  0.00    +0.000 C 
ATOM     15  O   UNL     1       0.199  11.981  18.672  0.00  0.00    +0.000 OA
ATOM     16  H   UNL     1      -1.335   9.251  19.348  0.00  0.00    +0.000 HD
BRANCH  13  22
ATOM     17  C   UNL     1      -3.153  10.077  14.319  0.00  0.00    +0.000 C 
ATOM     18  C   UNL     1      -3.244  10.480  15.762  0.00  0.00    +0.000 A 
ATOM     19  C   UNL     1      -4.332  11.229  16.215  0.00  0.00    +0.000 A 
ATOM     20  C   UNL     1      -4.411  11.612  17.548  0.00  0.00    +0.000 A 
ATOM     21  C   UNL     1      -3.395  11.264  18.442  0.00  0.00    +0.000 A 
ATOM     22  C   UNL     1      -2.292  10.522  18.015  0.00  0.00    +0.000 A 
ATOM     23  C   UNL     1      -2.232  10.117  16.672  0.00  0.00    +0.000 A 
ENDBRANCH  13  22
ENDBRANCH   1  14
TORSDOF 3
ENDMDL
