MODEL 1
REMARK VINA RESULT:      -7.2      0.000      0.000
REMARK  Name = 
REMARK  6 active torsions:
REMARK  status: ('A' for Active; 'I' for Inactive)
REMARK    1  A    between atoms: C_1  and  C_2
REMARK    2  A    between atoms: C_5  and  N_6
REMARK    3  A    between atoms: C_8  and  C_9
REMARK    4  A    between atoms: C_16  and  N_17
REMARK    5  A    between atoms: C_18  and  C_20
REMARK    6  A    between atoms: C_25  and  C_26
REMARK                            x       y       z     vdW  Elec       q    Type
REMARK                         _______ _______ _______ _____ _____    ______ ____
ROOT
ATOM      1  N   UNL     1       3.397   5.804  18.553  0.00  0.00    +0.000 N 
ATOM      2  N   UNL     1       3.420   4.835  19.557  0.00  0.00    +0.000 NA
ATOM      3  C   UNL     1       2.529   5.339  20.425  0.00  0.00    +0.000 A 
ATOM      4  C   UNL     1       2.208   4.684  21.712  0.00  0.00    +0.000 C 
ATOM      5  C   UNL     1       1.954   6.580  20.039  0.00  0.00    +0.000 A 
ATOM      6  S   UNL     1       0.853   7.807  20.469  0.00  0.00    +0.000 S 
ATOM      7  C   UNL     1       1.503   8.790  19.144  0.00  0.00    +0.000 A 
ATOM      8  N   UNL     1       1.124  10.104  19.004  0.00  0.00    +0.000 N 
ATOM      9  C   UNL     1       1.512  10.875  17.826  0.00  0.00    +0.000 C 
ATOM     10  C   UNL     1       2.619  11.858  18.200  0.00  0.00    +0.000 C 
ATOM     11  C   UNL     1       2.204  12.821  19.331  0.00  0.00    +0.000 C 
ATOM     12  C   UNL     1       1.669  11.987  20.515  0.00  0.00    +0.000 C 
ATOM     13  C   UNL     1       0.638  10.919  20.120  0.00  0.00    +0.000 C 
ATOM     14  N   UNL     1       2.320   8.120  18.326  0.00  0.00    +0.000 NA
ATOM     15  C   UNL     1       2.567   6.895  18.872  0.00  0.00    +0.000 A 
ENDROOT
BRANCH   1  20
ATOM     16  C   UNL     1       6.718   4.816  13.954  0.00  0.00    +0.000 C 
ATOM     17  C   UNL     1       5.805   5.082  15.118  0.00  0.00    +0.000 A 
ATOM     18  C   UNL     1       5.595   6.384  15.581  0.00  0.00    +0.000 A 
ATOM     19  C   UNL     1       4.776   6.611  16.691  0.00  0.00    +0.000 A 
ATOM     20  C   UNL     1       4.144   5.538  17.361  0.00  0.00    +0.000 A 
ATOM     21  C   UNL     1       4.334   4.238  16.877  0.00  0.00    +0.000 A 
ATOM     22  C   UNL     1       5.157   4.018  15.767  0.00  0.00    +0.000 A 
ENDBRANCH   1  20
BRANCH  11  23
ATOM     23  N   UNL     1       1.254  13.906  18.988  0.00  0.00    +0.000 N 
ATOM     24  C   UNL     1       1.526  15.267  19.056  0.00  0.00    +0.000 C 
ATOM     25  O   UNL     1       2.641  15.701  19.328  0.00  0.00    +0.000 OA
ATOM     26  H   UNL     1       0.305  13.703  19.263  0.00  0.00    +0.000 HD
BRANCH  24  27
ATOM     27  C   UNL     1       0.371  16.242  18.819  0.00  0.00    +0.000 A 
ATOM     28  C   UNL     1      -0.792  16.052  19.599  0.00  0.00    +0.000 A 
ATOM     29  C   UNL     1      -1.884  16.940  19.532  0.00  0.00    +0.000 A 
ATOM     30  C   UNL     1      -1.828  18.042  18.696  0.00  0.00    +0.000 A 
ATOM     31  C   UNL     1      -0.702  18.242  17.904  0.00  0.00    +0.000 A 
ATOM     32  C   UNL     1       0.399  17.352  17.942  0.00  0.00    +0.000 A 
ATOM     33  C   UNL     1       1.544  17.672  17.027  0.00  0.00    +0.000 C 
ENDBRANCH  24  27
ENDBRANCH  11  23
TORSDOF 3
ENDMDL
MODEL 2
REMARK VINA RESULT:      -7.0      6.010      8.711
REMARK  Name = 
REMARK  6 active torsions:
REMARK  status: ('A' for Active; 'I' for Inactive)
REMARK    1  A    between atoms: C_1  and  C_2
REMARK    2  A    between atoms: C_5  and  N_6
REMARK    3  A    between atoms: C_8  and  C_9
REMARK    4  A    between atoms: C_16  and  N_17
REMARK    5  A    between atoms: C_18  and  C_20
REMARK    6  A    between atoms: C_25  and  C_26
REMARK                            x       y       z     vdW  Elec       q    Type
REMARK                         _______ _______ _______ _____ _____    ______ ____
ROOT
ATOM      1  N   UNL     1       5.928  14.362  23.057  0.00  0.00    +0.000 N 
ATOM      2  N   UNL     1       7.015  15.149  22.671  0.00  0.00    +0.000 NA
ATOM      3  C   UNL     1       6.456  15.911  21.718  0.00  0.00    +0.000 A 
ATOM      4  C   UNL     1       7.223  16.917  20.950  0.00  0.00    +0.000 C 
ATOM      5  C   UNL     1       5.084  15.644  21.465  0.00  0.00    +0.000 A 
ATOM      6  S   UNL     1       3.720  16.080  20.541  0.00  0.00    +0.000 S 
ATOM      7  C   UNL     1       2.898  14.636  21.161  0.00  0.00    +0.000 A 
ATOM      8  N   UNL     1       1.681  14.257  20.647  0.00  0.00    +0.000 N 
ATOM      9  C   UNL     1       0.912  13.177  21.260  0.00  0.00    +0.000 C 
ATOM     10  C   UNL     1       0.996  11.928  20.385  0.00  0.00    +0.000 C 
ATOM     11  C   UNL     1       0.488  12.171  18.950  0.00  0.00    +0.000 C 
ATOM     12  C   UNL     1       1.219  13.402  18.370  0.00  0.00    +0.000 C 
ATOM     13  C   UNL     1       1.231  14.624  19.302  0.00  0.00    +0.000 C 
ATOM     14  N   UNL     1       3.549  14.030  22.158  0.00  0.00    +0.000 NA
ATOM     15  C   UNL     1       4.778  14.608  22.283  0.00  0.00    +0.000 A 
ENDROOT
BRANCH   1  20
ATOM     16  C   UNL     1       6.272  10.854  27.610  0.00  0.00    +0.000 C 
ATOM     17  C   UNL     1       6.238  11.785  26.431  0.00  0.00    +0.000 A 
ATOM     18  C   UNL     1       5.878  13.127  26.589  0.00  0.00    +0.000 A 
ATOM     19  C   UNL     1       5.811  13.971  25.476  0.00  0.00    +0.000 A 
ATOM     20  C   UNL     1       6.108  13.492  24.180  0.00  0.00    +0.000 A 
ATOM     21  C   UNL     1       6.495  12.155  24.030  0.00  0.00    +0.000 A 
ATOM     22  C   UNL     1       6.558  11.315  25.148  0.00  0.00    +0.000 A 
ENDBRANCH   1  20
BRANCH  11  23
ATOM     23  N   UNL     1      -0.976  12.296  18.757  0.00  0.00    +0.000 N 
ATOM     24  C   UNL     1      -1.868  11.238  18.639  0.00  0.00    +0.000 C 
ATOM     25  O   UNL     1      -1.522  10.069  18.779  0.00  0.00    +0.000 OA
ATOM     26  H   UNL     1      -1.232  13.066  18.156  0.00  0.00    +0.000 HD
BRANCH  24  27
ATOM     27  C   UNL     1      -3.320  11.559  18.282  0.00  0.00    +0.000 A 
ATOM     28  C   UNL     1      -4.130  12.076  19.319  0.00  0.00    +0.000 A 
ATOM     29  C   UNL     1      -5.457  12.491  19.088  0.00  0.00    +0.000 A 
ATOM     30  C   UNL     1      -5.993  12.413  17.814  0.00  0.00    +0.000 A 
ATOM     31  C   UNL     1      -5.223  11.892  16.780  0.00  0.00    +0.000 A 
ATOM     32  C   UNL     1      -3.894  11.451  16.994  0.00  0.00    +0.000 A 
ATOM     33  C   UNL     1      -3.178  10.895  15.798  0.00  0.00    +0.000 C 
ENDBRANCH  24  27
ENDBRANCH  11  23
TORSDOF 3
ENDMDL
MODEL 3
REMARK VINA RESULT:      -7.0      0.414      1.310
REMARK  Name = 
REMARK  6 active torsions:
REMARK  status: ('A' for Active; 'I' for Inactive)
REMARK    1  A    between atoms: C_1  and  C_2
REMARK    2  A    between atoms: C_5  and  N_6
REMARK    3  A    between atoms: C_8  and  C_9
REMARK    4  A    between atoms: C_16  and  N_17
REMARK    5  A    between atoms: C_18  and  C_20
REMARK    6  A    between atoms: C_25  and  C_26
REMARK                            x       y       z     vdW  Elec       q    Type
REMARK                         _______ _______ _______ _____ _____    ______ ____
ROOT
ATOM      1  N   UNL     1       3.401   5.731  18.568  0.00  0.00    +0.000 N 
ATOM      2  N   UNL     1       3.463   4.732  19.542  0.00  0.00    +0.000 NA
ATOM      3  C   UNL     1       2.588   5.199  20.446  0.00  0.00    +0.000 A 
ATOM      4  C   UNL     1       2.309   4.501  21.721  0.00  0.00    +0.000 C 
ATOM      5  C   UNL     1       1.988   6.443  20.113  0.00  0.00    +0.000 A 
ATOM      6  S   UNL     1       0.883   7.642  20.608  0.00  0.00    +0.000 S 
ATOM      7  C   UNL     1       1.486   8.673  19.298  0.00  0.00    +0.000 A 
ATOM      8  N   UNL     1       1.087   9.984  19.208  0.00  0.00    +0.000 N 
ATOM      9  C   UNL     1       1.434  10.796  18.043  0.00  0.00    +0.000 C 
ATOM     10  C   UNL     1       2.538  11.782  18.418  0.00  0.00    +0.000 C 
ATOM     11  C   UNL     1       2.140  12.705  19.588  0.00  0.00    +0.000 C 
ATOM     12  C   UNL     1       1.647  11.829  20.760  0.00  0.00    +0.000 C 
ATOM     13  C   UNL     1       0.619  10.759  20.359  0.00  0.00    +0.000 C 
ATOM     14  N   UNL     1       2.289   8.039  18.439  0.00  0.00    +0.000 NA
ATOM     15  C   UNL     1       2.566   6.801  18.941  0.00  0.00    +0.000 A 
ENDROOT
BRANCH   1  20
ATOM     16  C   UNL     1       6.613   4.926  13.858  0.00  0.00    +0.000 C 
ATOM     17  C   UNL     1       5.728   5.144  15.052  0.00  0.00    +0.000 A 
ATOM     18  C   UNL     1       5.516   6.429  15.561  0.00  0.00    +0.000 A 
ATOM     19  C   UNL     1       4.723   6.611  16.698  0.00  0.00    +0.000 A 
ATOM     20  C   UNL     1       4.120   5.511  17.349  0.00  0.00    +0.000 A 
ATOM     21  C   UNL     1       4.312   4.229  16.820  0.00  0.00    +0.000 A 
ATOM     22  C   UNL     1       5.108   4.054  15.683  0.00  0.00    +0.000 A 
ENDBRANCH   1  20
BRANCH  11  23
ATOM     23  N   UNL     1       1.168  13.787  19.303  0.00  0.00    +0.000 N 
ATOM     24  C   UNL     1       1.426  15.149  19.400  0.00  0.00    +0.000 C 
ATOM     25  O   UNL     1       2.543  15.590  19.651  0.00  0.00    +0.000 OA
ATOM     26  H   UNL     1       0.229  13.565  19.600  0.00  0.00    +0.000 HD
BRANCH  24  27
ATOM     27  C   UNL     1       0.253  16.115  19.223  0.00  0.00    +0.000 A 
ATOM     28  C   UNL     1       0.289  16.957  18.088  0.00  0.00    +0.000 A 
ATOM     29  C   UNL     1      -0.777  17.824  17.773  0.00  0.00    +0.000 A 
ATOM     30  C   UNL     1      -1.903  17.854  18.578  0.00  0.00    +0.000 A 
ATOM     31  C   UNL     1      -1.956  17.049  19.710  0.00  0.00    +0.000 A 
ATOM     32  C   UNL     1      -0.889  16.185  20.055  0.00  0.00    +0.000 A 
ATOM     33  C   UNL     1      -1.063  15.381  21.311  0.00  0.00    +0.000 C 
ENDBRANCH  24  27
ENDBRANCH  11  23
TORSDOF 3
ENDMDL
MODEL 4
REMARK VINA RESULT:      -6.9      5.685      9.665
REMARK  Name = 
REMARK  6 active torsions:
REMARK  status: ('A' for Active; 'I' for Inactive)
REMARK    1  A    between atoms: C_1  and  C_2
REMARK    2  A    between atoms: C_5  and  N_6
REMARK    3  A    between atoms: C_8  and  C_9
REMARK    4  A    between atoms: C_16  and  N_17
REMARK    5  A    between atoms: C_18  and  C_20
REMARK    6  A    between atoms: C_25  and  C_26
REMARK                            x       y       z     vdW  Elec       q    Type
REMARK                         _______ _______ _______ _____ _____    ______ ____
ROOT
ATOM      1  N   UNL     1      -4.415  12.220  19.438  0.00  0.00    +0.000 N 
ATOM      2  N   UNL     1      -5.070  11.959  18.232  0.00  0.00    +0.000 NA
ATOM      3  C   UNL     1      -4.057  11.495  17.483  0.00  0.00    +0.000 A 
ATOM      4  C   UNL     1      -4.227  11.100  16.068  0.00  0.00    +0.000 C 
ATOM      5  C   UNL     1      -2.796  11.462  18.137  0.00  0.00    +0.000 A 
ATOM      6  S   UNL     1      -1.147  11.062  17.978  0.00  0.00    +0.000 S 
ATOM      7  C   UNL     1      -0.847  11.887  19.518  0.00  0.00    +0.000 A 
ATOM      8  N   UNL     1       0.439  12.093  19.955  0.00  0.00    +0.000 N 
ATOM      9  C   UNL     1       0.702  12.613  21.295  0.00  0.00    +0.000 C 
ATOM     10  C   UNL     1       1.138  14.073  21.201  0.00  0.00    +0.000 C 
ATOM     11  C   UNL     1       2.389  14.266  20.320  0.00  0.00    +0.000 C 
ATOM     12  C   UNL     1       2.139  13.589  18.955  0.00  0.00    +0.000 C 
ATOM     13  C   UNL     1       1.591  12.157  19.052  0.00  0.00    +0.000 C 
ATOM     14  N   UNL     1      -1.960  12.220  20.178  0.00  0.00    +0.000 NA
ATOM     15  C   UNL     1      -3.029  11.989  19.363  0.00  0.00    +0.000 A 
ENDROOT
BRANCH   1  20
ATOM     16  C   UNL     1      -7.567  13.470  24.092  0.00  0.00    +0.000 C 
ATOM     17  C   UNL     1      -6.775  13.185  22.847  0.00  0.00    +0.000 A 
ATOM     18  C   UNL     1      -7.213  12.232  21.923  0.00  0.00    +0.000 A 
ATOM     19  C   UNL     1      -6.444  11.947  20.790  0.00  0.00    +0.000 A 
ATOM     20  C   UNL     1      -5.220  12.614  20.554  0.00  0.00    +0.000 A 
ATOM     21  C   UNL     1      -4.799  13.588  21.468  0.00  0.00    +0.000 A 
ATOM     22  C   UNL     1      -5.572  13.866  22.600  0.00  0.00    +0.000 A 
ENDBRANCH   1  20
BRANCH  11  23
ATOM     23  N   UNL     1       3.692  13.837  20.883  0.00  0.00    +0.000 N 
ATOM     24  C   UNL     1       4.230  14.268  22.088  0.00  0.00    +0.000 C 
ATOM     25  O   UNL     1       3.614  14.996  22.861  0.00  0.00    +0.000 OA
ATOM     26  H   UNL     1       4.405  13.714  20.180  0.00  0.00    +0.000 HD
BRANCH  24  27
ATOM     27  C   UNL     1       5.659  13.842  22.429  0.00  0.00    +0.000 A 
ATOM     28  C   UNL     1       5.803  12.724  23.282  0.00  0.00    +0.000 A 
ATOM     29  C   UNL     1       7.068  12.186  23.593  0.00  0.00    +0.000 A 
ATOM     30  C   UNL     1       8.210  12.744  23.046  0.00  0.00    +0.000 A 
ATOM     31  C   UNL     1       8.098  13.855  22.217  0.00  0.00    +0.000 A 
ATOM     32  C   UNL     1       6.839  14.424  21.906  0.00  0.00    +0.000 A 
ATOM     33  C   UNL     1       6.856  15.630  21.014  0.00  0.00    +0.000 C 
ENDBRANCH  24  27
ENDBRANCH  11  23
TORSDOF 3
ENDMDL
MODEL 5
REMARK VINA RESULT:      -6.8      5.819      8.738
REMARK  Name = 
REMARK  6 active torsions:
REMARK  status: ('A' for Active; 'I' for Inactive)
REMARK    1  A    between atoms: C_1  and  C_2
REMARK    2  A    between atoms: C_5  and  N_6
REMARK    3  A    between atoms: C_8  and  C_9
REMARK    4  A    between atoms: C_16  and  N_17
REMARK    5  A    between atoms: C_18  and  C_20
REMARK    6  A    between atoms: C_25  and  C_26
REMARK                            x       y       z     vdW  Elec       q    Type
REMARK                         _______ _______ _______ _____ _____    ______ ____
ROOT
ATOM      1  N   UNL     1       6.377  14.259  23.068  0.00  0.00    +0.000 N 
ATOM      2  N   UNL     1       7.499  15.015  22.725  0.00  0.00    +0.000 NA
ATOM      3  C   UNL     1       7.009  15.769  21.728  0.00  0.00    +0.000 A 
ATOM      4  C   UNL     1       7.838  16.742  20.982  0.00  0.00    +0.000 C 
ATOM      5  C   UNL     1       5.648  15.523  21.406  0.00  0.00    +0.000 A 
ATOM      6  S   UNL     1       4.345  15.966  20.401  0.00  0.00    +0.000 S 
ATOM      7  C   UNL     1       3.460  14.553  21.004  0.00  0.00    +0.000 A 
ATOM      8  N   UNL     1       2.265  14.187  20.433  0.00  0.00    +0.000 N 
ATOM      9  C   UNL     1       1.441  13.136  21.025  0.00  0.00    +0.000 C 
ATOM     10  C   UNL     1       1.547  11.867  20.182  0.00  0.00    +0.000 C 
ATOM     11  C   UNL     1       1.122  12.089  18.716  0.00  0.00    +0.000 C 
ATOM     12  C   UNL     1       1.909  13.293  18.152  0.00  0.00    +0.000 C 
ATOM     13  C   UNL     1       1.896  14.534  19.058  0.00  0.00    +0.000 C 
ATOM     14  N   UNL     1       4.044  13.955  22.047  0.00  0.00    +0.000 NA
ATOM     15  C   UNL     1       5.276  14.511  22.227  0.00  0.00    +0.000 A 
ENDROOT
BRANCH   1  20
ATOM     16  C   UNL     1       6.442  10.976  27.798  0.00  0.00    +0.000 C 
ATOM     17  C   UNL     1       6.484  11.827  26.560  0.00  0.00    +0.000 A 
ATOM     18  C   UNL     1       6.668  13.210  26.648  0.00  0.00    +0.000 A 
ATOM     19  C   UNL     1       6.663  13.994  25.490  0.00  0.00    +0.000 A 
ATOM     20  C   UNL     1       6.477  13.410  24.216  0.00  0.00    +0.000 A 
ATOM     21  C   UNL     1       6.321  12.021  24.130  0.00  0.00    +0.000 A 
ATOM     22  C   UNL     1       6.325  11.243  25.293  0.00  0.00    +0.000 A 
ENDBRANCH   1  20
BRANCH  11  23
ATOM     23  N   UNL     1      -0.327  12.240  18.441  0.00  0.00    +0.000 N 
ATOM     24  C   UNL     1      -1.315  11.335  18.808  0.00  0.00    +0.000 C 
ATOM     25  O   UNL     1      -1.078  10.344  19.492  0.00  0.00    +0.000 OA
ATOM     26  H   UNL     1      -0.519  12.654  17.541  0.00  0.00    +0.000 HD
BRANCH  24  27
ATOM     27  C   UNL     1      -2.736  11.579  18.297  0.00  0.00    +0.000 A 
ATOM     28  C   UNL     1      -3.018  11.160  16.976  0.00  0.00    +0.000 A 
ATOM     29  C   UNL     1      -4.313  11.252  16.429  0.00  0.00    +0.000 A 
ATOM     30  C   UNL     1      -5.354  11.749  17.195  0.00  0.00    +0.000 A 
ATOM     31  C   UNL     1      -5.100  12.184  18.491  0.00  0.00    +0.000 A 
ATOM     32  C   UNL     1      -3.802  12.118  19.055  0.00  0.00    +0.000 A 
ATOM     33  C   UNL     1      -3.659  12.635  20.456  0.00  0.00    +0.000 C 
ENDBRANCH  24  27
ENDBRANCH  11  23
TORSDOF 3
ENDMDL
MODEL 6
REMARK VINA RESULT:      -6.6      3.240      3.725
REMARK  Name = 
REMARK  6 active torsions:
REMARK  status: ('A' for Active; 'I' for Inactive)
REMARK    1  A    between atoms: C_1  and  C_2
REMARK    2  A    between atoms: C_5  and  N_6
REMARK    3  A    between atoms: C_8  and  C_9
REMARK    4  A    between atoms: C_16  and  N_17
REMARK    5  A    between atoms: C_18  and  C_20
REMARK    6  A    between atoms: C_25  and  C_26
REMARK                            x       y       z     vdW  Elec       q    Type
REMARK                         _______ _______ _______ _____ _____    ______ ____
ROOT
ATOM      1  N   UNL     1       4.816   4.158  18.193  0.00  0.00    +0.000 N 
ATOM      2  N   UNL     1       5.309   3.064  18.905  0.00  0.00    +0.000 NA
ATOM      3  C   UNL     1       4.427   2.994  19.915  0.00  0.00    +0.000 A 
ATOM      4  C   UNL     1       4.532   1.991  20.998  0.00  0.00    +0.000 C 
ATOM      5  C   UNL     1       3.414   3.990  19.895  0.00  0.00    +0.000 A 
ATOM      6  S   UNL     1       2.029   4.593  20.682  0.00  0.00    +0.000 S 
ATOM      7  C   UNL     1       2.112   6.020  19.633  0.00  0.00    +0.000 A 
ATOM      8  N   UNL     1       1.290   7.097  19.861  0.00  0.00    +0.000 N 
ATOM      9  C   UNL     1       1.223   8.204  18.909  0.00  0.00    +0.000 C 
ATOM     10  C   UNL     1       1.964   9.412  19.477  0.00  0.00    +0.000 C 
ATOM     11  C   UNL     1       1.404   9.870  20.839  0.00  0.00    +0.000 C 
ATOM     12  C   UNL     1       1.357   8.651  21.786  0.00  0.00    +0.000 C 
ATOM     13  C   UNL     1       0.711   7.399  21.172  0.00  0.00    +0.000 C 
ATOM     14  N   UNL     1       2.989   5.903  18.631  0.00  0.00    +0.000 NA
ATOM     15  C   UNL     1       3.714   4.764  18.825  0.00  0.00    +0.000 A 
ENDROOT
BRANCH   1  20
ATOM     16  C   UNL     1       7.537   5.086  13.204  0.00  0.00    +0.000 C 
ATOM     17  C   UNL     1       6.810   4.901  14.506  0.00  0.00    +0.000 A 
ATOM     18  C   UNL     1       7.449   5.147  15.724  0.00  0.00    +0.000 A 
ATOM     19  C   UNL     1       6.772   4.929  16.928  0.00  0.00    +0.000 A 
ATOM     20  C   UNL     1       5.437   4.465  16.940  0.00  0.00    +0.000 A 
ATOM     21  C   UNL     1       4.791   4.247  15.717  0.00  0.00    +0.000 A 
ATOM     22  C   UNL     1       5.475   4.464  14.516  0.00  0.00    +0.000 A 
ENDBRANCH   1  20
BRANCH  11  23
ATOM     23  N   UNL     1       0.102  10.578  20.837  0.00  0.00    +0.000 N 
ATOM     24  C   UNL     1      -0.111  11.876  21.284  0.00  0.00    +0.000 C 
ATOM     25  O   UNL     1       0.807  12.604  21.647  0.00  0.00    +0.000 OA
ATOM     26  H   UNL     1      -0.677   9.976  21.061  0.00  0.00    +0.000 HD
BRANCH  24  27
ATOM     27  C   UNL     1      -1.553  12.382  21.356  0.00  0.00    +0.000 A 
ATOM     28  C   UNL     1      -2.031  12.762  22.631  0.00  0.00    +0.000 A 
ATOM     29  C   UNL     1      -3.310  13.326  22.806  0.00  0.00    +0.000 A 
ATOM     30  C   UNL     1      -4.129  13.535  21.710  0.00  0.00    +0.000 A 
ATOM     31  C   UNL     1      -3.690  13.155  20.446  0.00  0.00    +0.000 A 
ATOM     32  C   UNL     1      -2.416  12.569  20.250  0.00  0.00    +0.000 A 
ATOM     33  C   UNL     1      -2.069  12.188  18.840  0.00  0.00    +0.000 C 
ENDBRANCH  24  27
ENDBRANCH  11  23
TORSDOF 3
ENDMDL
MODEL 7
REMARK VINA RESULT:      -6.6      4.010     11.313
REMARK  Name = 
REMARK  6 active torsions:
REMARK  status: ('A' for Active; 'I' for Inactive)
REMARK    1  A    between atoms: C_1  and  C_2
REMARK    2  A    between atoms: C_5  and  N_6
REMARK    3  A    between atoms: C_8  and  C_9
REMARK    4  A    between atoms: C_16  and  N_17
REMARK    5  A    between atoms: C_18  and  C_20
REMARK    6  A    between atoms: C_25  and  C_26
REMARK                            x       y       z     vdW  Elec       q    Type
REMARK                         _______ _______ _______ _____ _____    ______ ____
ROOT
ATOM      1  N   UNL     1      -3.091  14.625  21.165  0.00  0.00    +0.000 N 
ATOM      2  N   UNL     1      -2.766  15.982  21.207  0.00  0.00    +0.000 NA
ATOM      3  C   UNL     1      -1.692  16.015  20.404  0.00  0.00    +0.000 A 
ATOM      4  C   UNL     1      -0.932  17.257  20.139  0.00  0.00    +0.000 C 
ATOM      5  C   UNL     1      -1.305  14.757  19.868  0.00  0.00    +0.000 A 
ATOM      6  S   UNL     1      -0.194  13.945  18.863  0.00  0.00    +0.000 S 
ATOM      7  C   UNL     1      -0.839  12.409  19.471  0.00  0.00    +0.000 A 
ATOM      8  N   UNL     1      -0.223  11.224  19.151  0.00  0.00    +0.000 N 
ATOM      9  C   UNL     1      -0.835   9.943  19.497  0.00  0.00    +0.000 C 
ATOM     10  C   UNL     1      -0.090   9.321  20.675  0.00  0.00    +0.000 C 
ATOM     11  C   UNL     1       1.411   9.113  20.388  0.00  0.00    +0.000 C 
ATOM     12  C   UNL     1       2.008  10.448  19.893  0.00  0.00    +0.000 C 
ATOM     13  C   UNL     1       1.192  11.131  18.784  0.00  0.00    +0.000 C 
ATOM     14  N   UNL     1      -1.954  12.541  20.195  0.00  0.00    +0.000 NA
ATOM     15  C   UNL     1      -2.170  13.870  20.416  0.00  0.00    +0.000 A 
ENDROOT
BRANCH   1  20
ATOM     16  C   UNL     1      -7.893  13.253  24.031  0.00  0.00    +0.000 C 
ATOM     17  C   UNL     1      -6.640  13.557  23.260  0.00  0.00    +0.000 A 
ATOM     18  C   UNL     1      -5.381  13.273  23.798  0.00  0.00    +0.000 A 
ATOM     19  C   UNL     1      -4.224  13.600  23.085  0.00  0.00    +0.000 A 
ATOM     20  C   UNL     1      -4.300  14.214  21.815  0.00  0.00    +0.000 A 
ATOM     21  C   UNL     1      -5.563  14.471  21.267  0.00  0.00    +0.000 A 
ATOM     22  C   UNL     1      -6.717  14.144  21.986  0.00  0.00    +0.000 A 
ENDBRANCH   1  20
BRANCH  11  23
ATOM     23  N   UNL     1       1.783   8.006  19.474  0.00  0.00    +0.000 N 
ATOM     24  C   UNL     1       2.100   6.711  19.863  0.00  0.00    +0.000 C 
ATOM     25  O   UNL     1       2.009   6.334  21.027  0.00  0.00    +0.000 OA
ATOM     26  H   UNL     1       2.350   8.309  18.696  0.00  0.00    +0.000 HD
BRANCH  24  27
ATOM     27  C   UNL     1       2.617   5.747  18.793  0.00  0.00    +0.000 A 
ATOM     28  C   UNL     1       3.676   6.209  17.980  0.00  0.00    +0.000 A 
ATOM     29  C   UNL     1       4.292   5.379  17.022  0.00  0.00    +0.000 A 
ATOM     30  C   UNL     1       3.872   4.069  16.870  0.00  0.00    +0.000 A 
ATOM     31  C   UNL     1       2.821   3.595  17.646  0.00  0.00    +0.000 A 
ATOM     32  C   UNL     1       2.175   4.417  18.601  0.00  0.00    +0.000 A 
ATOM     33  C   UNL     1       1.043   3.790  19.362  0.00  0.00    +0.000 C 
ENDBRANCH  24  27
ENDBRANCH  11  23
TORSDOF 3
ENDMDL
MODEL 8
REMARK VINA RESULT:      -6.5      5.672      9.560
REMARK  Name = 
REMARK  6 active torsions:
REMARK  status: ('A' for Active; 'I' for Inactive)
REMARK    1  A    between atoms: C_1  and  C_2
REMARK    2  A    between atoms: C_5  and  N_6
REMARK    3  A    between atoms: C_8  and  C_9
REMARK    4  A    between atoms: C_16  and  N_17
REMARK    5  A    between atoms: C_18  and  C_20
REMARK    6  A    between atoms: C_25  and  C_26
REMARK                            x       y       z     vdW  Elec       q    Type
REMARK                         _______ _______ _______ _____ _____    ______ ____
ROOT
ATOM      1  N   UNL     1      -3.692  12.596  19.871  0.00  0.00    +0.000 N 
ATOM      2  N   UNL     1      -4.450  11.939  18.899  0.00  0.00    +0.000 NA
ATOM      3  C   UNL     1      -3.492  11.293  18.217  0.00  0.00    +0.000 A 
ATOM      4  C   UNL     1      -3.782  10.458  17.031  0.00  0.00    +0.000 C 
ATOM      5  C   UNL     1      -2.169  11.515  18.687  0.00  0.00    +0.000 A 
ATOM      6  S   UNL     1      -0.522  11.140  18.461  0.00  0.00    +0.000 S 
ATOM      7  C   UNL     1      -0.120  12.427  19.613  0.00  0.00    +0.000 A 
ATOM      8  N   UNL     1       1.187  12.805  19.801  0.00  0.00    +0.000 N 
ATOM      9  C   UNL     1       1.552  13.737  20.865  0.00  0.00    +0.000 C 
ATOM     10  C   UNL     1       1.870  15.103  20.262  0.00  0.00    +0.000 C 
ATOM     11  C   UNL     1       3.004  15.044  19.218  0.00  0.00    +0.000 C 
ATOM     12  C   UNL     1       2.660  13.956  18.178  0.00  0.00    +0.000 C 
ATOM     13  C   UNL     1       2.229  12.614  18.789  0.00  0.00    +0.000 C 
ATOM     14  N   UNL     1      -1.179  12.917  20.265  0.00  0.00    +0.000 NA
ATOM     15  C   UNL     1      -2.309  12.400  19.703  0.00  0.00    +0.000 A 
ENDROOT
BRANCH   1  20
ATOM     16  C   UNL     1      -6.861  15.366  23.800  0.00  0.00    +0.000 C 
ATOM     17  C   UNL     1      -5.987  14.672  22.794  0.00  0.00    +0.000 A 
ATOM     18  C   UNL     1      -5.752  15.238  21.538  0.00  0.00    +0.000 A 
ATOM     19  C   UNL     1      -4.970  14.560  20.598  0.00  0.00    +0.000 A 
ATOM     20  C   UNL     1      -4.400  13.301  20.896  0.00  0.00    +0.000 A 
ATOM     21  C   UNL     1      -4.614  12.751  22.165  0.00  0.00    +0.000 A 
ATOM     22  C   UNL     1      -5.400  13.433  23.101  0.00  0.00    +0.000 A 
ENDBRANCH   1  20
BRANCH  11  23
ATOM     23  N   UNL     1       4.387  14.863  19.723  0.00  0.00    +0.000 N 
ATOM     24  C   UNL     1       5.471  15.674  19.412  0.00  0.00    +0.000 C 
ATOM     25  O   UNL     1       5.357  16.697  18.744  0.00  0.00    +0.000 OA
ATOM     26  H   UNL     1       4.657  13.894  19.797  0.00  0.00    +0.000 HD
BRANCH  24  27
ATOM     27  C   UNL     1       6.855  15.238  19.897  0.00  0.00    +0.000 A 
ATOM     28  C   UNL     1       7.211  15.605  21.215  0.00  0.00    +0.000 A 
ATOM     29  C   UNL     1       8.422  15.183  21.800  0.00  0.00    +0.000 A 
ATOM     30  C   UNL     1       9.291  14.376  21.086  0.00  0.00    +0.000 A 
ATOM     31  C   UNL     1       8.972  14.015  19.782  0.00  0.00    +0.000 A 
ATOM     32  C   UNL     1       7.769  14.442  19.167  0.00  0.00    +0.000 A 
ATOM     33  C   UNL     1       7.552  13.998  17.751  0.00  0.00    +0.000 C 
ENDBRANCH  24  27
ENDBRANCH  11  23
TORSDOF 3
ENDMDL
MODEL 9
REMARK VINA RESULT:      -6.5      5.628      9.515
REMARK  Name = 
REMARK  6 active torsions:
REMARK  status: ('A' for Active; 'I' for Inactive)
REMARK    1  A    between atoms: C_1  and  C_2
REMARK    2  A    between atoms: C_5  and  N_6
REMARK    3  A    between atoms: C_8  and  C_9
REMARK    4  A    between atoms: C_16  and  N_17
REMARK    5  A    between atoms: C_18  and  C_20
REMARK    6  A    between atoms: C_25  and  C_26
REMARK                            x       y       z     vdW  Elec       q    Type
REMARK                         _______ _______ _______ _____ _____    ______ ____
ROOT
ATOM      1  N   UNL     1      -4.214  12.070  19.442  0.00  0.00    +0.000 N 
ATOM      2  N   UNL     1      -4.925  11.700  18.299  0.00  0.00    +0.000 NA
ATOM      3  C   UNL     1      -3.933  11.254  17.511  0.00  0.00    +0.000 A 
ATOM      4  C   UNL     1      -4.166  10.766  16.134  0.00  0.00    +0.000 C 
ATOM      5  C   UNL     1      -2.634  11.336  18.081  0.00  0.00    +0.000 A 
ATOM      6  S   UNL     1      -0.976  11.028  17.835  0.00  0.00    +0.000 S 
ATOM      7  C   UNL     1      -0.634  11.959  19.305  0.00  0.00    +0.000 A 
ATOM      8  N   UNL     1       0.662  12.267  19.644  0.00  0.00    +0.000 N 
ATOM      9  C   UNL     1       0.974  12.880  20.933  0.00  0.00    +0.000 C 
ATOM     10  C   UNL     1       1.308  14.356  20.730  0.00  0.00    +0.000 C 
ATOM     11  C   UNL     1       2.486  14.572  19.759  0.00  0.00    +0.000 C 
ATOM     12  C   UNL     1       2.195  13.802  18.453  0.00  0.00    +0.000 C 
ATOM     13  C   UNL     1       1.748  12.347  18.665  0.00  0.00    +0.000 C 
ATOM     14  N   UNL     1      -1.723  12.263  20.017  0.00  0.00    +0.000 NA
ATOM     15  C   UNL     1      -2.823  11.919  19.289  0.00  0.00    +0.000 A 
ENDROOT
BRANCH   1  20
ATOM     16  C   UNL     1      -7.311  13.349  24.124  0.00  0.00    +0.000 C 
ATOM     17  C   UNL     1      -6.514  13.070  22.882  0.00  0.00    +0.000 A 
ATOM     18  C   UNL     1      -7.129  12.552  21.738  0.00  0.00    +0.000 A 
ATOM     19  C   UNL     1      -6.367  12.258  20.603  0.00  0.00    +0.000 A 
ATOM     20  C   UNL     1      -4.971  12.480  20.586  0.00  0.00    +0.000 A 
ATOM     21  C   UNL     1      -4.363  13.025  21.724  0.00  0.00    +0.000 A 
ATOM     22  C   UNL     1      -5.132  13.315  22.857  0.00  0.00    +0.000 A 
ENDBRANCH   1  20
BRANCH  11  23
ATOM     23  N   UNL     1       3.847  14.257  20.257  0.00  0.00    +0.000 N 
ATOM     24  C   UNL     1       4.724  15.165  20.837  0.00  0.00    +0.000 C 
ATOM     25  O   UNL     1       4.405  16.325  21.078  0.00  0.00    +0.000 OA
ATOM     26  H   UNL     1       4.334  13.586  19.681  0.00  0.00    +0.000 HD
BRANCH  24  27
ATOM     27  C   UNL     1       6.146  14.693  21.143  0.00  0.00    +0.000 A 
ATOM     28  C   UNL     1       7.122  14.929  20.148  0.00  0.00    +0.000 A 
ATOM     29  C   UNL     1       8.482  14.619  20.354  0.00  0.00    +0.000 A 
ATOM     30  C   UNL     1       8.893  14.082  21.561  0.00  0.00    +0.000 A 
ATOM     31  C   UNL     1       7.950  13.823  22.550  0.00  0.00    +0.000 A 
ATOM     32  C   UNL     1       6.577  14.109  22.358  0.00  0.00    +0.000 A 
ATOM     33  C   UNL     1       5.661  13.767  23.496  0.00  0.00    +0.000 C 
ENDBRANCH  24  27
ENDBRANCH  11  23
TORSDOF 3
ENDMDL
