MODEL 1
REMARK VINA RESULT:      -8.2      0.000      0.000
REMARK  Name = 
REMARK  5 active torsions:
REMARK  status: ('A' for Active; 'I' for Inactive)
REMARK    1  A    between atoms: C_1  and  N_2
REMARK    2  A    between atoms: N_2  and  C_3
REMARK    3  A    between atoms: C_6  and  C_7
REMARK    4  A    between atoms: N_10  and  C_11
REMARK    5  A    between atoms: C_19  and  C_20
REMARK                            x       y       z     vdW  Elec       q    Type
REMARK                         _______ _______ _______ _____ _____    ______ ____
ROOT
ATOM      1  C   UNL     1       1.365  10.706  18.737  0.00  0.00    +0.000 A 
ATOM      2  N   UNL     1       1.933   9.969  17.794  0.00  0.00    +0.000 NA
ATOM      3  C   UNL     1       2.174   8.720  18.168  0.00  0.00    +0.000 A 
ATOM      4  C   UNL     1       1.823   8.243  19.434  0.00  0.00    +0.000 A 
ATOM      5  C   UNL     1       1.209   9.119  20.333  0.00  0.00    +0.000 A 
ATOM      6  C   UNL     1       0.968  10.409  19.985  0.00  0.00    +0.000 A 
ENDROOT
BRANCH   6   7
ATOM      7  C   UNL     1       0.137  11.427  21.026  0.00  0.00    +0.000 A 
ATOM      8  N   UNL     1       0.442  12.753  21.676  0.00  0.00    +0.000 NA
ATOM      9  C   UNL     1      -0.701  13.159  22.608  0.00  0.00    +0.000 A 
ATOM     10  C   UNL     1      -0.987  14.710  23.660  0.00  0.00    +0.000 A 
ATOM     11  C   UNL     1      -2.196  14.538  24.303  0.00  0.00    +0.000 A 
ATOM     12  C   UNL     1      -2.896  14.456  24.691  0.00  0.00    +0.000 A 
ATOM     13  C   UNL     1      -3.213  12.136  23.519  0.00  0.00    +0.000 A 
ATOM     14  C   UNL     1      -1.677  11.975  22.499  0.00  0.00    +0.000 A 
ATOM     15  O   UNL     1      -1.050  11.009  21.534  0.00  0.00    +0.000 OA
ENDBRANCH   6   7
BRANCH   4  16
ATOM     16  C   UNL     1       2.097   6.850  19.801  0.00  0.00    +0.000 A 
ATOM     17  C   UNL     1       1.591   6.124  20.827  0.00  0.00    +0.000 A 
ATOM     18  N   UNL     1       2.138   4.897  20.807  0.00  0.00    +0.000 NA
ATOM     19  N   UNL     1       2.976   4.865  19.791  0.00  0.00    +0.000 N 
ATOM     20  C   UNL     1       2.940   6.040  19.195  0.00  0.00    +0.000 A 
BRANCH  19  21
ATOM     21  C   UNL     1       3.797   3.735  19.387  0.00  0.00    +0.000 C 
ATOM     22  C   UNL     1       3.934   3.682  17.874  0.00  0.00    +0.000 C 
ATOM     23  C   UNL     1       2.624   3.316  17.219  0.00  0.00    +0.000 C 
ATOM     24  N   UNL     1       2.114   2.047  17.724  0.00  0.00    +0.000 NA
ATOM     25  C   UNL     1       1.897   2.125  19.162  0.00  0.00    +0.000 C 
ATOM     26  C   UNL     1       3.176   2.447  19.903  0.00  0.00    +0.000 C 
ATOM     27  H   UNL     1       2.821   1.309  17.540  0.00  0.00    +0.000 HD
ENDBRANCH  19  21
ENDBRANCH   4  16
BRANCH   1  29
ATOM     28  C   UNL     1       1.480  13.359  18.244  0.00  0.00    +0.000 C 
ATOM     29  N   UNL     1       0.585  11.608  18.380  0.00  0.00    +0.000 N 
ATOM     30  H   UNL     1      -0.379  11.269  17.595  0.00  0.00    +0.000 HD
ENDBRANCH   1  29
TORSDOF 4
ENDMDL
MODEL 2
REMARK VINA RESULT:      -7.9      0.708      1.223
REMARK  Name = 
REMARK  5 active torsions:
REMARK  status: ('A' for Active; 'I' for Inactive)
REMARK    1  A    between atoms: C_1  and  N_2
REMARK    2  A    between atoms: N_2  and  C_3
REMARK    3  A    between atoms: C_6  and  C_7
REMARK    4  A    between atoms: N_10  and  C_11
REMARK    5  A    between atoms: C_19  and  C_20
REMARK                            x       y       z     vdW  Elec       q    Type
REMARK                         _______ _______ _______ _____ _____    ______ ____
ROOT
ATOM      1  C   UNL     1       1.190  10.643  18.944  0.00  0.00    +0.000 A 
ATOM      2  N   UNL     1       1.846  10.012  17.981  0.00  0.00    +0.000 NA
ATOM      3  C   UNL     1       2.170   8.764  18.289  0.00  0.00    +0.000 A 
ATOM      4  C   UNL     1       1.815   8.184  19.510  0.00  0.00    +0.000 A 
ATOM      5  C   UNL     1       1.104   8.953  20.435  0.00  0.00    +0.000 A 
ATOM      6  C   UNL     1       0.775  10.241  20.155  0.00  0.00    +0.000 A 
ENDROOT
BRANCH   6   7
ATOM      7  C   UNL     1      -0.168  11.125  21.222  0.00  0.00    +0.000 A 
ATOM      8  N   UNL     1      -1.539  10.945  21.822  0.00  0.00    +0.000 NA
ATOM      9  C   UNL     1      -1.900  12.152  22.689  0.00  0.00    +0.000 A 
ATOM     10  C   UNL     1      -3.413  12.533  23.765  0.00  0.00    +0.000 A 
ATOM     11  C   UNL     1      -3.201  13.776  24.326  0.00  0.00    +0.000 A 
ATOM     12  C   UNL     1      -3.099  14.501  24.660  0.00  0.00    +0.000 A 
ATOM     13  C   UNL     1      -0.772  14.663  23.472  0.00  0.00    +0.000 A 
ATOM     14  C   UNL     1      -0.675  13.072  22.531  0.00  0.00    +0.000 A 
ATOM     15  O   UNL     1       0.274  12.345  21.622  0.00  0.00    +0.000 OA
ENDBRANCH   6   7
BRANCH   4  16
ATOM     16  C   UNL     1       2.185   6.795  19.804  0.00  0.00    +0.000 A 
ATOM     17  C   UNL     1       1.728   5.982  20.786  0.00  0.00    +0.000 A 
ATOM     18  N   UNL     1       2.359   4.799  20.703  0.00  0.00    +0.000 NA
ATOM     19  N   UNL     1       3.199   4.880  19.693  0.00  0.00    +0.000 N 
ATOM     20  C   UNL     1       3.083   6.080  19.159  0.00  0.00    +0.000 A 
BRANCH  19  21
ATOM     21  C   UNL     1       4.098   3.833  19.233  0.00  0.00    +0.000 C 
ATOM     22  C   UNL     1       4.093   3.745  17.716  0.00  0.00    +0.000 C 
ATOM     23  C   UNL     1       2.774   3.218  17.203  0.00  0.00    +0.000 C 
ATOM     24  N   UNL     1       2.459   1.919  17.784  0.00  0.00    +0.000 NA
ATOM     25  C   UNL     1       2.375   2.019  19.234  0.00  0.00    +0.000 C 
ATOM     26  C   UNL     1       3.677   2.502  19.837  0.00  0.00    +0.000 C 
ATOM     27  H   UNL     1       3.222   1.256  17.546  0.00  0.00    +0.000 HD
ENDBRANCH  19  21
ENDBRANCH   4  16
BRANCH   1  29
ATOM     28  C   UNL     1       1.161  13.292  18.412  0.00  0.00    +0.000 C 
ATOM     29  N   UNL     1       0.355  11.505  18.611  0.00  0.00    +0.000 N 
ATOM     30  H   UNL     1      -0.627  11.111  17.875  0.00  0.00    +0.000 HD
ENDBRANCH   1  29
TORSDOF 4
ENDMDL
MODEL 3
REMARK VINA RESULT:      -7.8      1.259      1.939
REMARK  Name = 
REMARK  5 active torsions:
REMARK  status: ('A' for Active; 'I' for Inactive)
REMARK    1  A    between atoms: C_1  and  N_2
REMARK    2  A    between atoms: N_2  and  C_3
REMARK    3  A    between atoms: C_6  and  C_7
REMARK    4  A    between atoms: N_10  and  C_11
REMARK    5  A    between atoms: C_19  and  C_20
REMARK                            x       y       z     vdW  Elec       q    Type
REMARK                         _______ _______ _______ _____ _____    ______ ____
ROOT
ATOM      1  C   UNL     1       1.095  10.346  18.479  0.00  0.00    +0.000 A 
ATOM      2  N   UNL     1       1.697   9.700  17.492  0.00  0.00    +0.000 NA
ATOM      3  C   UNL     1       2.202   8.530  17.853  0.00  0.00    +0.000 A 
ATOM      4  C   UNL     1       2.071   8.033  19.154  0.00  0.00    +0.000 A 
ATOM      5  C   UNL     1       1.393   8.806  20.100  0.00  0.00    +0.000 A 
ATOM      6  C   UNL     1       0.882  10.019  19.763  0.00  0.00    +0.000 A 
ENDROOT
BRANCH   6   7
ATOM      7  C   UNL     1      -0.021  10.895  20.872  0.00  0.00    +0.000 A 
ATOM      8  N   UNL     1      -1.322  10.662  21.595  0.00  0.00    +0.000 NA
ATOM      9  C   UNL     1      -1.683  11.885  22.440  0.00  0.00    +0.000 A 
ATOM     10  C   UNL     1      -3.121  12.226  23.628  0.00  0.00    +0.000 A 
ATOM     11  C   UNL     1      -2.940  13.504  24.117  0.00  0.00    +0.000 A 
ATOM     12  C   UNL     1      -2.855  14.248  24.412  0.00  0.00    +0.000 A 
ATOM     13  C   UNL     1      -0.651  14.490  23.020  0.00  0.00    +0.000 A 
ATOM     14  C   UNL     1      -0.536  12.867  22.140  0.00  0.00    +0.000 A 
ATOM     15  O   UNL     1       0.378  12.155  21.182  0.00  0.00    +0.000 OA
ENDBRANCH   6   7
BRANCH   4  16
ATOM     16  C   UNL     1       2.636   6.726  19.507  0.00  0.00    +0.000 A 
ATOM     17  C   UNL     1       3.861   6.224  19.223  0.00  0.00    +0.000 A 
ATOM     18  N   UNL     1       3.947   4.976  19.714  0.00  0.00    +0.000 NA
ATOM     19  N   UNL     1       2.792   4.707  20.285  0.00  0.00    +0.000 N 
ATOM     20  C   UNL     1       2.016   5.764  20.158  0.00  0.00    +0.000 A 
BRANCH  19  21
ATOM     21  C   UNL     1       2.428   3.465  20.949  0.00  0.00    +0.000 C 
ATOM     22  C   UNL     1       3.362   2.338  20.535  0.00  0.00    +0.000 C 
ATOM     23  C   UNL     1       3.145   1.951  19.091  0.00  0.00    +0.000 C 
ATOM     24  N   UNL     1       1.758   1.573  18.845  0.00  0.00    +0.000 NA
ATOM     25  C   UNL     1       0.868   2.683  19.157  0.00  0.00    +0.000 C 
ATOM     26  C   UNL     1       0.991   3.109  20.604  0.00  0.00    +0.000 C 
ATOM     27  H   UNL     1       1.517   0.777  19.466  0.00  0.00    +0.000 HD
ENDBRANCH  19  21
ENDBRANCH   4  16
BRANCH   1  29
ATOM     28  C   UNL     1      -1.415  10.051  17.524  0.00  0.00    +0.000 C 
ATOM     29  N   UNL     1       0.128  11.078  18.192  0.00  0.00    +0.000 N 
ATOM     30  H   UNL     1      -0.014  12.154  18.887  0.00  0.00    +0.000 HD
ENDBRANCH   1  29
TORSDOF 4
ENDMDL
MODEL 4
REMARK VINA RESULT:      -7.7      0.892      1.473
REMARK  Name = 
REMARK  5 active torsions:
REMARK  status: ('A' for Active; 'I' for Inactive)
REMARK    1  A    between atoms: C_1  and  N_2
REMARK    2  A    between atoms: N_2  and  C_3
REMARK    3  A    between atoms: C_6  and  C_7
REMARK    4  A    between atoms: N_10  and  C_11
REMARK    5  A    between atoms: C_19  and  C_20
REMARK                            x       y       z     vdW  Elec       q    Type
REMARK                         _______ _______ _______ _____ _____    ______ ____
ROOT
ATOM      1  C   UNL     1       1.474  11.222  18.731  0.00  0.00    +0.000 A 
ATOM      2  N   UNL     1       2.078  10.579  17.744  0.00  0.00    +0.000 NA
ATOM      3  C   UNL     1       2.224   9.280  17.965  0.00  0.00    +0.000 A 
ATOM      4  C   UNL     1       1.748   8.667  19.128  0.00  0.00    +0.000 A 
ATOM      5  C   UNL     1       1.108   9.457  20.087  0.00  0.00    +0.000 A 
ATOM      6  C   UNL     1       0.961  10.793  19.895  0.00  0.00    +0.000 A 
ENDROOT
BRANCH   6   7
ATOM      7  C   UNL     1       0.102  11.718  20.998  0.00  0.00    +0.000 A 
ATOM      8  N   UNL     1       0.383  12.988  21.760  0.00  0.00    +0.000 NA
ATOM      9  C   UNL     1      -0.782  13.310  22.697  0.00  0.00    +0.000 A 
ATOM     10  C   UNL     1      -1.103  14.768  23.866  0.00  0.00    +0.000 A 
ATOM     11  C   UNL     1      -2.324  14.538  24.466  0.00  0.00    +0.000 A 
ATOM     12  C   UNL     1      -3.032  14.420  24.830  0.00  0.00    +0.000 A 
ATOM     13  C   UNL     1      -3.307  12.203  23.465  0.00  0.00    +0.000 A 
ATOM     14  C   UNL     1      -1.749  12.134  22.470  0.00  0.00    +0.000 A 
ATOM     15  O   UNL     1      -1.094  11.253  21.443  0.00  0.00    +0.000 OA
ENDBRANCH   6   7
BRANCH   4  16
ATOM     16  C   UNL     1       1.920   7.224  19.327  0.00  0.00    +0.000 A 
ATOM     17  C   UNL     1       1.819   6.504  20.469  0.00  0.00    +0.000 A 
ATOM     18  N   UNL     1       2.083   5.214  20.199  0.00  0.00    +0.000 NA
ATOM     19  N   UNL     1       2.352   5.138  18.912  0.00  0.00    +0.000 N 
ATOM     20  C   UNL     1       2.247   6.348  18.400  0.00  0.00    +0.000 A 
BRANCH  19  21
ATOM     21  C   UNL     1       2.698   3.933  18.174  0.00  0.00    +0.000 C 
ATOM     22  C   UNL     1       2.772   2.733  19.105  0.00  0.00    +0.000 C 
ATOM     23  C   UNL     1       3.957   2.835  20.035  0.00  0.00    +0.000 C 
ATOM     24  N   UNL     1       5.204   2.975  19.293  0.00  0.00    +0.000 NA
ATOM     25  C   UNL     1       5.170   4.174  18.468  0.00  0.00    +0.000 C 
ATOM     26  C   UNL     1       4.032   4.135  17.472  0.00  0.00    +0.000 C 
ATOM     27  H   UNL     1       5.312   2.152  18.669  0.00  0.00    +0.000 HD
ENDBRANCH  19  21
ENDBRANCH   4  16
BRANCH   1  29
ATOM     28  C   UNL     1       1.809  13.885  18.422  0.00  0.00    +0.000 C 
ATOM     29  N   UNL     1       0.773  12.209  18.440  0.00  0.00    +0.000 N 
ATOM     30  H   UNL     1      -0.214  12.005  17.636  0.00  0.00    +0.000 HD
ENDBRANCH   1  29
TORSDOF 4
ENDMDL
MODEL 5
REMARK VINA RESULT:      -7.6      1.068      1.561
REMARK  Name = 
REMARK  5 active torsions:
REMARK  status: ('A' for Active; 'I' for Inactive)
REMARK    1  A    between atoms: C_1  and  N_2
REMARK    2  A    between atoms: N_2  and  C_3
REMARK    3  A    between atoms: C_6  and  C_7
REMARK    4  A    between atoms: N_10  and  C_11
REMARK    5  A    between atoms: C_19  and  C_20
REMARK                            x       y       z     vdW  Elec       q    Type
REMARK                         _______ _______ _______ _____ _____    ______ ____
ROOT
ATOM      1  C   UNL     1       1.023  10.495  18.414  0.00  0.00    +0.000 A 
ATOM      2  N   UNL     1       1.512   9.739  17.443  0.00  0.00    +0.000 NA
ATOM      3  C   UNL     1       1.976   8.570  17.861  0.00  0.00    +0.000 A 
ATOM      4  C   UNL     1       1.916   8.185  19.204  0.00  0.00    +0.000 A 
ATOM      5  C   UNL     1       1.356   9.069  20.130  0.00  0.00    +0.000 A 
ATOM      6  C   UNL     1       0.889  10.281  19.732  0.00  0.00    +0.000 A 
ENDROOT
BRANCH   6   7
ATOM      7  C   UNL     1       0.124  11.294  20.826  0.00  0.00    +0.000 A 
ATOM      8  N   UNL     1       0.466  12.618  21.460  0.00  0.00    +0.000 NA
ATOM      9  C   UNL     1      -0.617  13.020  22.463  0.00  0.00    +0.000 A 
ATOM     10  C   UNL     1      -0.840  14.567  23.535  0.00  0.00    +0.000 A 
ATOM     11  C   UNL     1      -2.007  14.391  24.252  0.00  0.00    +0.000 A 
ATOM     12  C   UNL     1      -2.681  14.307  24.681  0.00  0.00    +0.000 A 
ATOM     13  C   UNL     1      -3.067  11.991  23.524  0.00  0.00    +0.000 A 
ATOM     14  C   UNL     1      -1.597  11.835  22.410  0.00  0.00    +0.000 A 
ATOM     15  O   UNL     1      -1.030  10.873  21.405  0.00  0.00    +0.000 OA
ENDBRANCH   6   7
BRANCH   4  16
ATOM     16  C   UNL     1       2.431   6.876  19.621  0.00  0.00    +0.000 A 
ATOM     17  C   UNL     1       3.666   6.350  19.439  0.00  0.00    +0.000 A 
ATOM     18  N   UNL     1       3.694   5.111  19.957  0.00  0.00    +0.000 NA
ATOM     19  N   UNL     1       2.496   4.869  20.445  0.00  0.00    +0.000 N 
ATOM     20  C   UNL     1       1.748   5.936  20.241  0.00  0.00    +0.000 A 
BRANCH  19  21
ATOM     21  C   UNL     1       2.063   3.646  21.101  0.00  0.00    +0.000 C 
ATOM     22  C   UNL     1       3.095   2.544  20.924  0.00  0.00    +0.000 C 
ATOM     23  C   UNL     1       3.157   2.078  19.489  0.00  0.00    +0.000 C 
ATOM     24  N   UNL     1       1.852   1.626  19.021  0.00  0.00    +0.000 NA
ATOM     25  C   UNL     1       0.881   2.708  19.106  0.00  0.00    +0.000 C 
ATOM     26  C   UNL     1       0.724   3.209  20.526  0.00  0.00    +0.000 C 
ATOM     27  H   UNL     1       1.531   0.851  19.632  0.00  0.00    +0.000 HD
ENDBRANCH  19  21
ENDBRANCH   4  16
BRANCH   1  29
ATOM     28  C   UNL     1      -1.554  10.283  17.629  0.00  0.00    +0.000 C 
ATOM     29  N   UNL     1       0.081  11.261  18.137  0.00  0.00    +0.000 N 
ATOM     30  H   UNL     1       0.039  12.384  18.767  0.00  0.00    +0.000 HD
ENDBRANCH   1  29
TORSDOF 4
ENDMDL
MODEL 6
REMARK VINA RESULT:      -7.5      2.751      4.421
REMARK  Name = 
REMARK  5 active torsions:
REMARK  status: ('A' for Active; 'I' for Inactive)
REMARK    1  A    between atoms: C_1  and  N_2
REMARK    2  A    between atoms: N_2  and  C_3
REMARK    3  A    between atoms: C_6  and  C_7
REMARK    4  A    between atoms: N_10  and  C_11
REMARK    5  A    between atoms: C_19  and  C_20
REMARK                            x       y       z     vdW  Elec       q    Type
REMARK                         _______ _______ _______ _____ _____    ______ ____
ROOT
ATOM      1  C   UNL     1       0.703   9.500  21.073  0.00  0.00    +0.000 A 
ATOM      2  N   UNL     1       0.847   8.255  21.502  0.00  0.00    +0.000 NA
ATOM      3  C   UNL     1       1.489   7.470  20.648  0.00  0.00    +0.000 A 
ATOM      4  C   UNL     1       1.984   7.945  19.430  0.00  0.00    +0.000 A 
ATOM      5  C   UNL     1       1.783   9.289  19.104  0.00  0.00    +0.000 A 
ATOM      6  C   UNL     1       1.112  10.112  19.951  0.00  0.00    +0.000 A 
ENDROOT
BRANCH   6   7
ATOM      7  C   UNL     1       0.964  11.746  19.604  0.00  0.00    +0.000 A 
ATOM      8  N   UNL     1      -0.180  12.727  19.600  0.00  0.00    +0.000 NA
ATOM      9  C   UNL     1       0.298  14.095  19.110  0.00  0.00    +0.000 A 
ATOM     10  C   UNL     1      -0.591  15.759  18.929  0.00  0.00    +0.000 A 
ATOM     11  C   UNL     1       0.335  16.655  18.438  0.00  0.00    +0.000 A 
ATOM     12  C   UNL     1       0.859  17.193  18.148  0.00  0.00    +0.000 A 
ATOM     13  C   UNL     1       2.699  15.330  18.161  0.00  0.00    +0.000 A 
ATOM     14  C   UNL     1       1.784  13.850  18.790  0.00  0.00    +0.000 A 
ATOM     15  O   UNL     1       2.046  12.407  19.118  0.00  0.00    +0.000 OA
ENDBRANCH   6   7
BRANCH   4  16
ATOM     16  C   UNL     1       2.699   7.044  18.521  0.00  0.00    +0.000 A 
ATOM     17  C   UNL     1       2.492   5.725  18.293  0.00  0.00    +0.000 A 
ATOM     18  N   UNL     1       3.398   5.287  17.401  0.00  0.00    +0.000 NA
ATOM     19  N   UNL     1       4.158   6.315  17.088  0.00  0.00    +0.000 N 
ATOM     20  C   UNL     1       3.727   7.363  17.763  0.00  0.00    +0.000 A 
BRANCH  19  21
ATOM     21  C   UNL     1       5.275   6.309  16.157  0.00  0.00    +0.000 C 
ATOM     22  C   UNL     1       5.408   4.953  15.483  0.00  0.00    +0.000 C 
ATOM     23  C   UNL     1       5.861   3.897  16.462  0.00  0.00    +0.000 C 
ATOM     24  N   UNL     1       7.119   4.268  17.100  0.00  0.00    +0.000 NA
ATOM     25  C   UNL     1       6.969   5.523  17.822  0.00  0.00    +0.000 C 
ATOM     26  C   UNL     1       6.557   6.652  16.902  0.00  0.00    +0.000 C 
ATOM     27  H   UNL     1       7.837   4.399  16.362  0.00  0.00    +0.000 HD
ENDBRANCH  19  21
ENDBRANCH   4  16
BRANCH   1  29
ATOM     28  C   UNL     1      -0.992  10.452  22.950  0.00  0.00    +0.000 C 
ATOM     29  N   UNL     1       0.690  10.410  21.923  0.00  0.00    +0.000 N 
ATOM     30  H   UNL     1       1.821  10.733  22.449  0.00  0.00    +0.000 HD
ENDBRANCH   1  29
TORSDOF 4
ENDMDL
MODEL 7
REMARK VINA RESULT:      -7.5      1.288      2.090
REMARK  Name = 
REMARK  5 active torsions:
REMARK  status: ('A' for Active; 'I' for Inactive)
REMARK    1  A    between atoms: C_1  and  N_2
REMARK    2  A    between atoms: N_2  and  C_3
REMARK    3  A    between atoms: C_6  and  C_7
REMARK    4  A    between atoms: N_10  and  C_11
REMARK    5  A    between atoms: C_19  and  C_20
REMARK                            x       y       z     vdW  Elec       q    Type
REMARK                         _______ _______ _______ _____ _____    ______ ____
ROOT
ATOM      1  C   UNL     1       1.280  11.452  18.934  0.00  0.00    +0.000 A 
ATOM      2  N   UNL     1       1.995  10.980  17.924  0.00  0.00    +0.000 NA
ATOM      3  C   UNL     1       2.257   9.684  18.017  0.00  0.00    +0.000 A 
ATOM      4  C   UNL     1       1.785   8.905  19.077  0.00  0.00    +0.000 A 
ATOM      5  C   UNL     1       1.021   9.522  20.072  0.00  0.00    +0.000 A 
ATOM      6  C   UNL     1       0.754  10.852  20.013  0.00  0.00    +0.000 A 
ENDROOT
BRANCH   6   7
ATOM      7  C   UNL     1      -0.249  11.566  21.151  0.00  0.00    +0.000 A 
ATOM      8  N   UNL     1      -1.659  11.317  21.623  0.00  0.00    +0.000 NA
ATOM      9  C   UNL     1      -2.064  12.370  22.656  0.00  0.00    +0.000 A 
ATOM     10  C   UNL     1      -3.642  12.598  23.681  0.00  0.00    +0.000 A 
ATOM     11  C   UNL     1      -3.454  13.725  24.456  0.00  0.00    +0.000 A 
ATOM     12  C   UNL     1      -3.367  14.381  24.914  0.00  0.00    +0.000 A 
ATOM     13  C   UNL     1      -0.964  14.689  23.922  0.00  0.00    +0.000 A 
ATOM     14  C   UNL     1      -0.822  13.276  22.735  0.00  0.00    +0.000 A 
ATOM     15  O   UNL     1       0.179  12.691  21.779  0.00  0.00    +0.000 OA
ENDBRANCH   6   7
BRANCH   4  16
ATOM     16  C   UNL     1       2.089   7.471  19.134  0.00  0.00    +0.000 A 
ATOM     17  C   UNL     1       2.041   6.633  20.196  0.00  0.00    +0.000 A 
ATOM     18  N   UNL     1       2.428   5.407  19.804  0.00  0.00    +0.000 NA
ATOM     19  N   UNL     1       2.719   5.487  18.522  0.00  0.00    +0.000 N 
ATOM     20  C   UNL     1       2.508   6.728  18.132  0.00  0.00    +0.000 A 
BRANCH  19  21
ATOM     21  C   UNL     1       3.186   4.401  17.675  0.00  0.00    +0.000 C 
ATOM     22  C   UNL     1       3.370   3.127  18.484  0.00  0.00    +0.000 C 
ATOM     23  C   UNL     1       4.534   3.249  19.439  0.00  0.00    +0.000 C 
ATOM     24  N   UNL     1       5.766   3.582  18.735  0.00  0.00    +0.000 NA
ATOM     25  C   UNL     1       5.621   4.849  18.031  0.00  0.00    +0.000 C 
ATOM     26  C   UNL     1       4.498   4.799  17.018  0.00  0.00    +0.000 C 
ATOM     27  H   UNL     1       5.958   2.840  18.035  0.00  0.00    +0.000 HD
ENDBRANCH  19  21
ENDBRANCH   4  16
BRANCH   1  29
ATOM     28  C   UNL     1       1.402  14.146  18.776  0.00  0.00    +0.000 C 
ATOM     29  N   UNL     1       0.500  12.395  18.705  0.00  0.00    +0.000 N 
ATOM     30  H   UNL     1      -0.477  12.161  17.898  0.00  0.00    +0.000 HD
ENDBRANCH   1  29
TORSDOF 4
ENDMDL
MODEL 8
REMARK VINA RESULT:      -7.3      2.100      4.152
REMARK  Name = 
REMARK  5 active torsions:
REMARK  status: ('A' for Active; 'I' for Inactive)
REMARK    1  A    between atoms: C_1  and  N_2
REMARK    2  A    between atoms: N_2  and  C_3
REMARK    3  A    between atoms: C_6  and  C_7
REMARK    4  A    between atoms: N_10  and  C_11
REMARK    5  A    between atoms: C_19  and  C_20
REMARK                            x       y       z     vdW  Elec       q    Type
REMARK                         _______ _______ _______ _____ _____    ______ ____
ROOT
ATOM      1  C   UNL     1      -0.152  10.495  21.535  0.00  0.00    +0.000 A 
ATOM      2  N   UNL     1      -0.416   9.380  22.198  0.00  0.00    +0.000 NA
ATOM      3  C   UNL     1       0.193   8.311  21.705  0.00  0.00    +0.000 A 
ATOM      4  C   UNL     1       1.053   8.388  20.605  0.00  0.00    +0.000 A 
ATOM      5  C   UNL     1       1.263   9.632  20.005  0.00  0.00    +0.000 A 
ATOM      6  C   UNL     1       0.637  10.741  20.477  0.00  0.00    +0.000 A 
ENDROOT
BRANCH   6   7
ATOM      7  C   UNL     1       0.973  12.247  19.822  0.00  0.00    +0.000 A 
ATOM      8  N   UNL     1       2.237  12.984  19.458  0.00  0.00    +0.000 NA
ATOM      9  C   UNL     1       1.903  14.391  18.960  0.00  0.00    +0.000 A 
ATOM     10  C   UNL     1       2.993  15.789  18.289  0.00  0.00    +0.000 A 
ATOM     11  C   UNL     1       2.151  16.841  17.987  0.00  0.00    +0.000 A 
ATOM     12  C   UNL     1       1.679  17.467  17.808  0.00  0.00    +0.000 A 
ATOM     13  C   UNL     1      -0.392  16.052  18.557  0.00  0.00    +0.000 A 
ATOM     14  C   UNL     1       0.370  14.452  19.090  0.00  0.00    +0.000 A 
ATOM     15  O   UNL     1      -0.053  13.114  19.627  0.00  0.00    +0.000 OA
ENDBRANCH   6   7
BRANCH   4  16
ATOM     16  C   UNL     1       1.716   7.181  20.100  0.00  0.00    +0.000 A 
ATOM     17  C   UNL     1       1.743   5.937  20.636  0.00  0.00    +0.000 A 
ATOM     18  N   UNL     1       2.493   5.141  19.855  0.00  0.00    +0.000 NA
ATOM     19  N   UNL     1       2.931   5.880  18.858  0.00  0.00    +0.000 N 
ATOM     20  C   UNL     1       2.456   7.100  19.014  0.00  0.00    +0.000 A 
BRANCH  19  21
ATOM     21  C   UNL     1       3.785   5.438  17.767  0.00  0.00    +0.000 C 
ATOM     22  C   UNL     1       3.821   3.920  17.692  0.00  0.00    +0.000 C 
ATOM     23  C   UNL     1       4.556   3.331  18.872  0.00  0.00    +0.000 C 
ATOM     24  N   UNL     1       5.910   3.862  18.974  0.00  0.00    +0.000 NA
ATOM     25  C   UNL     1       5.875   5.309  19.136  0.00  0.00    +0.000 C 
ATOM     26  C   UNL     1       5.190   5.986  17.969  0.00  0.00    +0.000 C 
ATOM     27  H   UNL     1       6.418   3.645  18.094  0.00  0.00    +0.000 HD
ENDBRANCH  19  21
ENDBRANCH   4  16
BRANCH   1  29
ATOM     28  C   UNL     1      -1.952  12.230  22.560  0.00  0.00    +0.000 C 
ATOM     29  N   UNL     1      -0.138  11.564  22.174  0.00  0.00    +0.000 N 
ATOM     30  H   UNL     1       0.845  11.741  22.990  0.00  0.00    +0.000 HD
ENDBRANCH   1  29
TORSDOF 4
ENDMDL
MODEL 9
REMARK VINA RESULT:      -7.3      2.177      4.343
REMARK  Name = 
REMARK  5 active torsions:
REMARK  status: ('A' for Active; 'I' for Inactive)
REMARK    1  A    between atoms: C_1  and  N_2
REMARK    2  A    between atoms: N_2  and  C_3
REMARK    3  A    between atoms: C_6  and  C_7
REMARK    4  A    between atoms: N_10  and  C_11
REMARK    5  A    between atoms: C_19  and  C_20
REMARK                            x       y       z     vdW  Elec       q    Type
REMARK                         _______ _______ _______ _____ _____    ______ ____
ROOT
ATOM      1  C   UNL     1      -0.260  10.623  21.542  0.00  0.00    +0.000 A 
ATOM      2  N   UNL     1      -0.480   9.485  22.182  0.00  0.00    +0.000 NA
ATOM      3  C   UNL     1       0.180   8.453  21.675  0.00  0.00    +0.000 A 
ATOM      4  C   UNL     1       1.045   8.588  20.584  0.00  0.00    +0.000 A 
ATOM      5  C   UNL     1       1.205   9.852  20.009  0.00  0.00    +0.000 A 
ATOM      6  C   UNL     1       0.526  10.923  20.496  0.00  0.00    +0.000 A 
ENDROOT
BRANCH   6   7
ATOM      7  C   UNL     1       0.801  12.455  19.871  0.00  0.00    +0.000 A 
ATOM      8  N   UNL     1      -0.036  13.698  19.714  0.00  0.00    +0.000 NA
ATOM      9  C   UNL     1       0.759  14.782  18.984  0.00  0.00    +0.000 A 
ATOM     10  C   UNL     1       0.339  16.573  18.530  0.00  0.00    +0.000 A 
ATOM     11  C   UNL     1       1.439  17.087  17.874  0.00  0.00    +0.000 A 
ATOM     12  C   UNL     1       2.068  17.405  17.486  0.00  0.00    +0.000 A 
ATOM     13  C   UNL     1       3.337  15.136  17.794  0.00  0.00    +0.000 A 
ATOM     14  C   UNL     1       2.101  14.088  18.687  0.00  0.00    +0.000 A 
ATOM     15  O   UNL     1       1.987  12.703  19.259  0.00  0.00    +0.000 OA
ENDBRANCH   6   7
BRANCH   4  16
ATOM     16  C   UNL     1       1.764   7.422  20.063  0.00  0.00    +0.000 A 
ATOM     17  C   UNL     1       1.897   6.190  20.610  0.00  0.00    +0.000 A 
ATOM     18  N   UNL     1       2.665   5.435  19.806  0.00  0.00    +0.000 NA
ATOM     19  N   UNL     1       3.009   6.188  18.782  0.00  0.00    +0.000 N 
ATOM     20  C   UNL     1       2.460   7.375  18.946  0.00  0.00    +0.000 A 
BRANCH  19  21
ATOM     21  C   UNL     1       3.842   5.788  17.660  0.00  0.00    +0.000 C 
ATOM     22  C   UNL     1       3.747   4.290  17.423  0.00  0.00    +0.000 C 
ATOM     23  C   UNL     1       4.405   3.517  18.541  0.00  0.00    +0.000 C 
ATOM     24  N   UNL     1       5.797   3.912  18.713  0.00  0.00    +0.000 NA
ATOM     25  C   UNL     1       5.886   5.332  19.028  0.00  0.00    +0.000 C 
ATOM     26  C   UNL     1       5.285   6.186  17.933  0.00  0.00    +0.000 C 
ATOM     27  H   UNL     1       6.301   3.744  17.821  0.00  0.00    +0.000 HD
ENDBRANCH  19  21
ENDBRANCH   4  16
BRANCH   1  29
ATOM     28  C   UNL     1      -2.140  12.324  22.477  0.00  0.00    +0.000 C 
ATOM     29  N   UNL     1      -0.298  11.679  22.201  0.00  0.00    +0.000 N 
ATOM     30  H   UNL     1       0.626  11.849  23.083  0.00  0.00    +0.000 HD
ENDBRANCH   1  29
TORSDOF 4
ENDMDL
