MODEL 1
REMARK VINA RESULT:      -7.7      0.000      0.000
REMARK  Name = 
REMARK  4 active torsions:
REMARK  status: ('A' for Active; 'I' for Inactive)
REMARK    1  A    between atoms: C_2  and  C_3
REMARK    2  A    between atoms: C_3  and  N_4
REMARK    3  A    between atoms: C_5  and  C_6
REMARK    4  A    between atoms: N_18  and  C_19
REMARK                            x       y       z     vdW  Elec       q    Type
REMARK                         _______ _______ _______ _____ _____    ______ ____
ROOT
ATOM      1  N   UNL     1       4.162   3.981  18.253  0.00  0.00    +0.000 N 
ATOM      2  C   UNL     1       4.706   4.899  19.137  0.00  0.00    +0.000 A 
ATOM      3  C   UNL     1       3.740   5.183  20.088  0.00  0.00    +0.000 A 
ATOM      4  C   UNL     1       2.604   4.374  19.827  0.00  0.00    +0.000 A 
ATOM      5  C   UNL     1       1.369   4.199  20.482  0.00  0.00    +0.000 A 
ATOM      6  C   UNL     1       0.451   3.265  19.990  0.00  0.00    +0.000 A 
ATOM      7  C   UNL     1       0.749   2.521  18.852  0.00  0.00    +0.000 A 
ATOM      8  C   UNL     1       1.960   2.693  18.176  0.00  0.00    +0.000 A 
ATOM      9  C   UNL     1       2.886   3.624  18.682  0.00  0.00    +0.000 A 
ENDROOT
BRANCH   2  10
ATOM     10  C   UNL     1       6.039   5.426  19.086  0.00  0.00    +0.000 A 
ATOM     11  N   UNL     1       7.014   5.092  19.911  0.00  0.00    +0.000 NA
ATOM     12  N   UNL     1       8.126   5.810  19.555  0.00  0.00    +0.000 NA
ATOM     13  C   UNL     1       7.757   6.558  18.546  0.00  0.00    +0.000 A 
ATOM     14  O   UNL     1       6.461   6.375  18.181  0.00  0.00    +0.000 OA
ENDBRANCH   2  10
BRANCH   1  15
ATOM     15  C   UNL     1       4.862   3.328  17.146  0.00  0.00    +0.000 C 
BRANCH  15  17
ATOM     16  O   UNL     1       4.629   5.348  15.857  0.00  0.00    +0.000 OA
ATOM     17  C   UNL     1       5.117   4.224  15.944  0.00  0.00    +0.000 C 
ATOM     18  N   UNL     1       5.889   3.662  14.948  0.00  0.00    +0.000 N 
ATOM     19  H   UNL     1       6.236   2.712  15.084  0.00  0.00    +0.000 HD
BRANCH  18  20
ATOM     20  C   UNL     1       6.105   4.267  13.647  0.00  0.00    +0.000 C 
ATOM     21  C   UNL     1       7.449   4.988  13.560  0.00  0.00    +0.000 C 
ATOM     22  C   UNL     1       7.708   5.095  12.064  0.00  0.00    +0.000 C 
ATOM     23  C   UNL     1       7.087   3.842  11.453  0.00  0.00    +0.000 C 
ATOM     24  C   UNL     1       6.213   3.216  12.540  0.00  0.00    +0.000 C 
ENDBRANCH  18  20
ENDBRANCH  15  17
ENDBRANCH   1  15
TORSDOF 4
ENDMDL
MODEL 2
REMARK VINA RESULT:      -7.6      3.096      5.470
REMARK  Name = 
REMARK  4 active torsions:
REMARK  status: ('A' for Active; 'I' for Inactive)
REMARK    1  A    between atoms: C_2  and  C_3
REMARK    2  A    between atoms: C_3  and  N_4
REMARK    3  A    between atoms: C_5  and  C_6
REMARK    4  A    between atoms: N_18  and  C_19
REMARK                            x       y       z     vdW  Elec       q    Type
REMARK                         _______ _______ _______ _____ _____    ______ ____
ROOT
ATOM      1  N   UNL     1       3.578   4.485  18.521  0.00  0.00    +0.000 N 
ATOM      2  C   UNL     1       4.837   3.915  18.621  0.00  0.00    +0.000 A 
ATOM      3  C   UNL     1       4.823   3.069  19.718  0.00  0.00    +0.000 A 
ATOM      4  C   UNL     1       3.514   3.065  20.263  0.00  0.00    +0.000 A 
ATOM      5  C   UNL     1       2.911   2.364  21.327  0.00  0.00    +0.000 A 
ATOM      6  C   UNL     1       1.550   2.549  21.593  0.00  0.00    +0.000 A 
ATOM      7  C   UNL     1       0.796   3.427  20.821  0.00  0.00    +0.000 A 
ATOM      8  C   UNL     1       1.380   4.147  19.774  0.00  0.00    +0.000 A 
ATOM      9  C   UNL     1       2.746   3.948  19.501  0.00  0.00    +0.000 A 
ENDROOT
BRANCH   2  10
ATOM     10  C   UNL     1       5.935   4.140  17.726  0.00  0.00    +0.000 A 
ATOM     11  N   UNL     1       7.153   4.481  18.099  0.00  0.00    +0.000 NA
ATOM     12  N   UNL     1       7.914   4.616  16.966  0.00  0.00    +0.000 NA
ATOM     13  C   UNL     1       7.106   4.371  15.965  0.00  0.00    +0.000 A 
ATOM     14  O   UNL     1       5.842   4.057  16.354  0.00  0.00    +0.000 OA
ENDBRANCH   2  10
BRANCH   1  15
ATOM     15  C   UNL     1       3.111   5.368  17.452  0.00  0.00    +0.000 C 
BRANCH  15  17
ATOM     16  O   UNL     1       4.209   7.507  17.596  0.00  0.00    +0.000 OA
ATOM     17  C   UNL     1       3.187   6.852  17.780  0.00  0.00    +0.000 C 
ATOM     18  N   UNL     1       2.045   7.385  18.343  0.00  0.00    +0.000 N 
ATOM     19  H   UNL     1       1.245   6.769  18.488  0.00  0.00    +0.000 HD
BRANCH  18  20
ATOM     20  C   UNL     1       1.959   8.725  18.893  0.00  0.00    +0.000 C 
ATOM     21  C   UNL     1       1.106   9.652  18.031  0.00  0.00    +0.000 C 
ATOM     22  C   UNL     1       0.725  10.782  18.977  0.00  0.00    +0.000 C 
ATOM     23  C   UNL     1       0.603  10.135  20.354  0.00  0.00    +0.000 C 
ATOM     24  C   UNL     1       1.226   8.743  20.236  0.00  0.00    +0.000 C 
ENDBRANCH  18  20
ENDBRANCH  15  17
ENDBRANCH   1  15
TORSDOF 4
ENDMDL
MODEL 3
REMARK VINA RESULT:      -7.5      3.860      5.875
REMARK  Name = 
REMARK  4 active torsions:
REMARK  status: ('A' for Active; 'I' for Inactive)
REMARK    1  A    between atoms: C_2  and  C_3
REMARK    2  A    between atoms: C_3  and  N_4
REMARK    3  A    between atoms: C_5  and  C_6
REMARK    4  A    between atoms: N_18  and  C_19
REMARK                            x       y       z     vdW  Elec       q    Type
REMARK                         _______ _______ _______ _____ _____    ______ ____
ROOT
ATOM      1  N   UNL     1       3.701   5.596  18.038  0.00  0.00    +0.000 N 
ATOM      2  C   UNL     1       5.043   5.291  18.205  0.00  0.00    +0.000 A 
ATOM      3  C   UNL     1       5.118   3.989  18.669  0.00  0.00    +0.000 A 
ATOM      4  C   UNL     1       3.805   3.457  18.725  0.00  0.00    +0.000 A 
ATOM      5  C   UNL     1       3.287   2.190  19.061  0.00  0.00    +0.000 A 
ATOM      6  C   UNL     1       1.910   1.959  18.969  0.00  0.00    +0.000 A 
ATOM      7  C   UNL     1       1.054   2.976  18.559  0.00  0.00    +0.000 A 
ATOM      8  C   UNL     1       1.545   4.245  18.240  0.00  0.00    +0.000 A 
ATOM      9  C   UNL     1       2.932   4.470  18.321  0.00  0.00    +0.000 A 
ENDROOT
BRANCH   2  10
ATOM     10  C   UNL     1       6.144   6.163  17.913  0.00  0.00    +0.000 A 
ATOM     11  N   UNL     1       6.312   6.810  16.776  0.00  0.00    +0.000 NA
ATOM     12  N   UNL     1       7.478   7.526  16.871  0.00  0.00    +0.000 NA
ATOM     13  C   UNL     1       7.965   7.253  18.055  0.00  0.00    +0.000 A 
ATOM     14  O   UNL     1       7.186   6.408  18.780  0.00  0.00    +0.000 OA
ENDBRANCH   2  10
BRANCH   1  15
ATOM     15  C   UNL     1       3.159   6.832  17.473  0.00  0.00    +0.000 C 
BRANCH  15  17
ATOM     16  O   UNL     1       2.377   7.435  19.669  0.00  0.00    +0.000 OA
ATOM     17  C   UNL     1       2.466   7.736  18.482  0.00  0.00    +0.000 C 
ATOM     18  N   UNL     1       1.909   8.882  17.953  0.00  0.00    +0.000 N 
ATOM     19  H   UNL     1       2.003   9.048  16.951  0.00  0.00    +0.000 HD
BRANCH  18  20
ATOM     20  C   UNL     1       1.054   9.788  18.697  0.00  0.00    +0.000 C 
ATOM     21  C   UNL     1       1.568  11.226  18.667  0.00  0.00    +0.000 C 
ATOM     22  C   UNL     1       0.346  12.058  19.027  0.00  0.00    +0.000 C 
ATOM     23  C   UNL     1      -0.847  11.300  18.450  0.00  0.00    +0.000 C 
ATOM     24  C   UNL     1      -0.333   9.912  18.065  0.00  0.00    +0.000 C 
ENDBRANCH  18  20
ENDBRANCH  15  17
ENDBRANCH   1  15
TORSDOF 4
ENDMDL
MODEL 4
REMARK VINA RESULT:      -7.5      3.512      7.288
REMARK  Name = 
REMARK  4 active torsions:
REMARK  status: ('A' for Active; 'I' for Inactive)
REMARK    1  A    between atoms: C_2  and  C_3
REMARK    2  A    between atoms: C_3  and  N_4
REMARK    3  A    between atoms: C_5  and  C_6
REMARK    4  A    between atoms: N_18  and  C_19
REMARK                            x       y       z     vdW  Elec       q    Type
REMARK                         _______ _______ _______ _____ _____    ______ ____
ROOT
ATOM      1  N   UNL     1       3.863   5.125  18.478  0.00  0.00    +0.000 N 
ATOM      2  C   UNL     1       3.501   3.812  18.734  0.00  0.00    +0.000 A 
ATOM      3  C   UNL     1       3.843   3.063  17.620  0.00  0.00    +0.000 A 
ATOM      4  C   UNL     1       4.490   3.915  16.689  0.00  0.00    +0.000 A 
ATOM      5  C   UNL     1       5.089   3.697  15.433  0.00  0.00    +0.000 A 
ATOM      6  C   UNL     1       5.703   4.763  14.765  0.00  0.00    +0.000 A 
ATOM      7  C   UNL     1       5.712   6.034  15.332  0.00  0.00    +0.000 A 
ATOM      8  C   UNL     1       5.106   6.275  16.569  0.00  0.00    +0.000 A 
ATOM      9  C   UNL     1       4.502   5.198  17.243  0.00  0.00    +0.000 A 
ENDROOT
BRANCH   2  10
ATOM     10  C   UNL     1       2.912   3.324  19.947  0.00  0.00    +0.000 A 
ATOM     11  N   UNL     1       3.560   2.662  20.887  0.00  0.00    +0.000 NA
ATOM     12  N   UNL     1       2.662   2.357  21.877  0.00  0.00    +0.000 NA
ATOM     13  C   UNL     1       1.512   2.832  21.471  0.00  0.00    +0.000 A 
ATOM     14  O   UNL     1       1.579   3.462  20.269  0.00  0.00    +0.000 OA
ENDBRANCH   2  10
BRANCH   1  15
ATOM     15  C   UNL     1       3.777   6.243  19.417  0.00  0.00    +0.000 C 
BRANCH  15  17
ATOM     16  O   UNL     1       1.832   7.159  18.332  0.00  0.00    +0.000 OA
ATOM     17  C   UNL     1       2.458   7.001  19.377  0.00  0.00    +0.000 C 
ATOM     18  N   UNL     1       2.051   7.533  20.583  0.00  0.00    +0.000 N 
ATOM     19  H   UNL     1       2.641   7.380  21.402  0.00  0.00    +0.000 HD
BRANCH  18  20
ATOM     20  C   UNL     1       0.926   8.436  20.735  0.00  0.00    +0.000 C 
ATOM     21  C   UNL     1       0.798   8.967  22.162  0.00  0.00    +0.000 C 
ATOM     22  C   UNL     1      -0.054  10.218  22.010  0.00  0.00    +0.000 C 
ATOM     23  C   UNL     1       0.313  10.797  20.647  0.00  0.00    +0.000 C 
ATOM     24  C   UNL     1       1.106   9.715  19.915  0.00  0.00    +0.000 C 
ENDBRANCH  18  20
ENDBRANCH  15  17
ENDBRANCH   1  15
TORSDOF 4
ENDMDL
MODEL 5
REMARK VINA RESULT:      -7.4      3.358      5.399
REMARK  Name = 
REMARK  4 active torsions:
REMARK  status: ('A' for Active; 'I' for Inactive)
REMARK    1  A    between atoms: C_2  and  C_3
REMARK    2  A    between atoms: C_3  and  N_4
REMARK    3  A    between atoms: C_5  and  C_6
REMARK    4  A    between atoms: N_18  and  C_19
REMARK                            x       y       z     vdW  Elec       q    Type
REMARK                         _______ _______ _______ _____ _____    ______ ____
ROOT
ATOM      1  N   UNL     1       2.076   6.301  19.050  0.00  0.00    +0.000 N 
ATOM      2  C   UNL     1       1.783   5.950  20.359  0.00  0.00    +0.000 A 
ATOM      3  C   UNL     1       1.448   7.112  21.034  0.00  0.00    +0.000 A 
ATOM      4  C   UNL     1       1.467   8.188  20.111  0.00  0.00    +0.000 A 
ATOM      5  C   UNL     1       1.164   9.560  20.216  0.00  0.00    +0.000 A 
ATOM      6  C   UNL     1       1.237  10.374  19.081  0.00  0.00    +0.000 A 
ATOM      7  C   UNL     1       1.617   9.836  17.855  0.00  0.00    +0.000 A 
ATOM      8  C   UNL     1       1.941   8.482  17.733  0.00  0.00    +0.000 A 
ATOM      9  C   UNL     1       1.854   7.664  18.874  0.00  0.00    +0.000 A 
ENDROOT
BRANCH   2  10
ATOM     10  C   UNL     1       1.794   4.620  20.895  0.00  0.00    +0.000 A 
ATOM     11  N   UNL     1       2.713   4.146  21.716  0.00  0.00    +0.000 NA
ATOM     12  N   UNL     1       2.390   2.843  21.995  0.00  0.00    +0.000 NA
ATOM     13  C   UNL     1       1.304   2.592  21.308  0.00  0.00    +0.000 A 
ATOM     14  O   UNL     1       0.857   3.657  20.593  0.00  0.00    +0.000 OA
ENDBRANCH   2  10
BRANCH   1  15
ATOM     15  C   UNL     1       2.384   5.378  17.957  0.00  0.00    +0.000 C 
BRANCH  15  17
ATOM     16  O   UNL     1       4.287   3.906  17.859  0.00  0.00    +0.000 OA
ATOM     17  C   UNL     1       3.863   5.057  17.801  0.00  0.00    +0.000 C 
ATOM     18  N   UNL     1       4.686   6.153  17.642  0.00  0.00    +0.000 N 
ATOM     19  H   UNL     1       4.260   7.080  17.631  0.00  0.00    +0.000 HD
BRANCH  18  20
ATOM     20  C   UNL     1       6.136   6.091  17.656  0.00  0.00    +0.000 C 
ATOM     21  C   UNL     1       6.776   7.474  17.561  0.00  0.00    +0.000 C 
ATOM     22  C   UNL     1       8.188   7.259  18.087  0.00  0.00    +0.000 C 
ATOM     23  C   UNL     1       8.064   6.171  19.150  0.00  0.00    +0.000 C 
ATOM     24  C   UNL     1       6.671   5.562  18.987  0.00  0.00    +0.000 C 
ENDBRANCH  18  20
ENDBRANCH  15  17
ENDBRANCH   1  15
TORSDOF 4
ENDMDL
MODEL 6
REMARK VINA RESULT:      -7.4      3.527      7.349
REMARK  Name = 
REMARK  4 active torsions:
REMARK  status: ('A' for Active; 'I' for Inactive)
REMARK    1  A    between atoms: C_2  and  C_3
REMARK    2  A    between atoms: C_3  and  N_4
REMARK    3  A    between atoms: C_5  and  C_6
REMARK    4  A    between atoms: N_18  and  C_19
REMARK                            x       y       z     vdW  Elec       q    Type
REMARK                         _______ _______ _______ _____ _____    ______ ____
ROOT
ATOM      1  N   UNL     1       4.018   5.820  18.168  0.00  0.00    +0.000 N 
ATOM      2  C   UNL     1       3.916   4.819  19.121  0.00  0.00    +0.000 A 
ATOM      3  C   UNL     1       5.195   4.557  19.585  0.00  0.00    +0.000 A 
ATOM      4  C   UNL     1       6.092   5.460  18.959  0.00  0.00    +0.000 A 
ATOM      5  C   UNL     1       7.476   5.691  19.083  0.00  0.00    +0.000 A 
ATOM      6  C   UNL     1       8.076   6.715  18.341  0.00  0.00    +0.000 A 
ATOM      7  C   UNL     1       7.313   7.494  17.477  0.00  0.00    +0.000 A 
ATOM      8  C   UNL     1       5.942   7.269  17.324  0.00  0.00    +0.000 A 
ATOM      9  C   UNL     1       5.340   6.247  18.082  0.00  0.00    +0.000 A 
ENDROOT
BRANCH   2  10
ATOM     10  C   UNL     1       2.701   4.198  19.561  0.00  0.00    +0.000 A 
ATOM     11  N   UNL     1       1.869   4.714  20.447  0.00  0.00    +0.000 NA
ATOM     12  N   UNL     1       0.836   3.828  20.615  0.00  0.00    +0.000 NA
ATOM     13  C   UNL     1       1.112   2.812  19.837  0.00  0.00    +0.000 A 
ATOM     14  O   UNL     1       2.263   2.964  19.133  0.00  0.00    +0.000 OA
ENDBRANCH   2  10
BRANCH   1  15
ATOM     15  C   UNL     1       2.904   6.477  17.483  0.00  0.00    +0.000 C 
BRANCH  15  17
ATOM     16  O   UNL     1       2.696   8.876  17.548  0.00  0.00    +0.000 OA
ATOM     17  C   UNL     1       2.477   7.801  18.101  0.00  0.00    +0.000 C 
ATOM     18  N   UNL     1       1.878   7.702  19.340  0.00  0.00    +0.000 N 
ATOM     19  H   UNL     1       1.755   6.774  19.745  0.00  0.00    +0.000 HD
BRANCH  18  20
ATOM     20  C   UNL     1       1.558   8.840  20.181  0.00  0.00    +0.000 C 
ATOM     21  C   UNL     1       0.302   9.572  19.713  0.00  0.00    +0.000 C 
ATOM     22  C   UNL     1      -0.141  10.357  20.939  0.00  0.00    +0.000 C 
ATOM     23  C   UNL     1       0.252   9.496  22.137  0.00  0.00    +0.000 C 
ATOM     24  C   UNL     1       1.189   8.412  21.603  0.00  0.00    +0.000 C 
ENDBRANCH  18  20
ENDBRANCH  15  17
ENDBRANCH   1  15
TORSDOF 4
ENDMDL
MODEL 7
REMARK VINA RESULT:      -7.3      3.211      5.658
REMARK  Name = 
REMARK  4 active torsions:
REMARK  status: ('A' for Active; 'I' for Inactive)
REMARK    1  A    between atoms: C_2  and  C_3
REMARK    2  A    between atoms: C_3  and  N_4
REMARK    3  A    between atoms: C_5  and  C_6
REMARK    4  A    between atoms: N_18  and  C_19
REMARK                            x       y       z     vdW  Elec       q    Type
REMARK                         _______ _______ _______ _____ _____    ______ ____
ROOT
ATOM      1  N   UNL     1       3.885   4.976  18.267  0.00  0.00    +0.000 N 
ATOM      2  C   UNL     1       4.404   4.115  17.313  0.00  0.00    +0.000 A 
ATOM      3  C   UNL     1       3.697   2.927  17.397  0.00  0.00    +0.000 A 
ATOM      4  C   UNL     1       2.678   3.081  18.371  0.00  0.00    +0.000 A 
ATOM      5  C   UNL     1       1.643   2.242  18.830  0.00  0.00    +0.000 A 
ATOM      6  C   UNL     1       0.746   2.714  19.794  0.00  0.00    +0.000 A 
ATOM      7  C   UNL     1       0.880   4.001  20.307  0.00  0.00    +0.000 A 
ATOM      8  C   UNL     1       1.911   4.842  19.879  0.00  0.00    +0.000 A 
ATOM      9  C   UNL     1       2.803   4.368  18.900  0.00  0.00    +0.000 A 
ENDROOT
BRANCH   2  10
ATOM     10  C   UNL     1       5.459   4.422  16.391  0.00  0.00    +0.000 A 
ATOM     11  N   UNL     1       6.738   4.498  16.706  0.00  0.00    +0.000 NA
ATOM     12  N   UNL     1       7.430   4.822  15.568  0.00  0.00    +0.000 NA
ATOM     13  C   UNL     1       6.527   4.948  14.628  0.00  0.00    +0.000 A 
ATOM     14  O   UNL     1       5.261   4.707  15.057  0.00  0.00    +0.000 OA
ENDBRANCH   2  10
BRANCH   1  15
ATOM     15  C   UNL     1       4.264   6.375  18.467  0.00  0.00    +0.000 C 
BRANCH  15  17
ATOM     16  O   UNL     1       3.382   7.667  16.637  0.00  0.00    +0.000 OA
ATOM     17  C   UNL     1       3.320   7.382  17.830  0.00  0.00    +0.000 C 
ATOM     18  N   UNL     1       2.430   7.982  18.699  0.00  0.00    +0.000 N 
ATOM     19  H   UNL     1       2.458   7.710  19.682  0.00  0.00    +0.000 HD
BRANCH  18  20
ATOM     20  C   UNL     1       1.568   9.093  18.342  0.00  0.00    +0.000 C 
ATOM     21  C   UNL     1       0.621   9.479  19.476  0.00  0.00    +0.000 C 
ATOM     22  C   UNL     1       0.198  10.899  19.130  0.00  0.00    +0.000 C 
ATOM     23  C   UNL     1       1.405  11.527  18.440  0.00  0.00    +0.000 C 
ATOM     24  C   UNL     1       2.363  10.380  18.113  0.00  0.00    +0.000 C 
ENDBRANCH  18  20
ENDBRANCH  15  17
ENDBRANCH   1  15
TORSDOF 4
ENDMDL
MODEL 8
REMARK VINA RESULT:      -7.3      1.793      2.310
REMARK  Name = 
REMARK  4 active torsions:
REMARK  status: ('A' for Active; 'I' for Inactive)
REMARK    1  A    between atoms: C_2  and  C_3
REMARK    2  A    between atoms: C_3  and  N_4
REMARK    3  A    between atoms: C_5  and  C_6
REMARK    4  A    between atoms: N_18  and  C_19
REMARK                            x       y       z     vdW  Elec       q    Type
REMARK                         _______ _______ _______ _____ _____    ______ ____
ROOT
ATOM      1  N   UNL     1       5.347   4.705  17.168  0.00  0.00    +0.000 N 
ATOM      2  C   UNL     1       5.390   5.927  17.821  0.00  0.00    +0.000 A 
ATOM      3  C   UNL     1       4.178   6.093  18.470  0.00  0.00    +0.000 A 
ATOM      4  C   UNL     1       3.400   4.923  18.273  0.00  0.00    +0.000 A 
ATOM      5  C   UNL     1       2.133   4.514  18.734  0.00  0.00    +0.000 A 
ATOM      6  C   UNL     1       1.649   3.247  18.392  0.00  0.00    +0.000 A 
ATOM      7  C   UNL     1       2.407   2.398  17.591  0.00  0.00    +0.000 A 
ATOM      8  C   UNL     1       3.657   2.793  17.106  0.00  0.00    +0.000 A 
ATOM      9  C   UNL     1       4.147   4.063  17.463  0.00  0.00    +0.000 A 
ENDROOT
BRANCH   2  10
ATOM     10  C   UNL     1       6.504   6.830  17.841  0.00  0.00    +0.000 A 
ATOM     11  N   UNL     1       6.657   7.856  17.026  0.00  0.00    +0.000 NA
ATOM     12  N   UNL     1       7.842   8.468  17.344  0.00  0.00    +0.000 NA
ATOM     13  C   UNL     1       8.354   7.763  18.321  0.00  0.00    +0.000 A 
ATOM     14  O   UNL     1       7.575   6.717  18.701  0.00  0.00    +0.000 OA
ENDBRANCH   2  10
BRANCH   1  15
ATOM     15  C   UNL     1       6.447   4.077  16.437  0.00  0.00    +0.000 C 
BRANCH  15  17
ATOM     16  O   UNL     1       6.660   5.503  14.508  0.00  0.00    +0.000 OA
ATOM     17  C   UNL     1       6.463   4.372  14.945  0.00  0.00    +0.000 C 
ATOM     18  N   UNL     1       6.189   3.290  14.132  0.00  0.00    +0.000 N 
ATOM     19  H   UNL     1       6.009   2.388  14.572  0.00  0.00    +0.000 HD
BRANCH  18  20
ATOM     20  C   UNL     1       5.977   3.383  12.699  0.00  0.00    +0.000 C 
ATOM     21  C   UNL     1       6.208   2.049  11.992  0.00  0.00    +0.000 C 
ATOM     22  C   UNL     1       5.474   2.207  10.668  0.00  0.00    +0.000 C 
ATOM     23  C   UNL     1       4.275   3.101  10.971  0.00  0.00    +0.000 C 
ATOM     24  C   UNL     1       4.519   3.697  12.358  0.00  0.00    +0.000 C 
ENDBRANCH  18  20
ENDBRANCH  15  17
ENDBRANCH   1  15
TORSDOF 4
ENDMDL
MODEL 9
REMARK VINA RESULT:      -7.3      3.364      7.052
REMARK  Name = 
REMARK  4 active torsions:
REMARK  status: ('A' for Active; 'I' for Inactive)
REMARK    1  A    between atoms: C_2  and  C_3
REMARK    2  A    between atoms: C_3  and  N_4
REMARK    3  A    between atoms: C_5  and  C_6
REMARK    4  A    between atoms: N_18  and  C_19
REMARK                            x       y       z     vdW  Elec       q    Type
REMARK                         _______ _______ _______ _____ _____    ______ ____
ROOT
ATOM      1  N   UNL     1       4.152   4.855  18.412  0.00  0.00    +0.000 N 
ATOM      2  C   UNL     1       3.478   3.827  17.772  0.00  0.00    +0.000 A 
ATOM      3  C   UNL     1       4.121   3.596  16.567  0.00  0.00    +0.000 A 
ATOM      4  C   UNL     1       5.252   4.448  16.493  0.00  0.00    +0.000 A 
ATOM      5  C   UNL     1       6.282   4.609  15.546  0.00  0.00    +0.000 A 
ATOM      6  C   UNL     1       7.309   5.527  15.789  0.00  0.00    +0.000 A 
ATOM      7  C   UNL     1       7.309   6.287  16.955  0.00  0.00    +0.000 A 
ATOM      8  C   UNL     1       6.286   6.158  17.898  0.00  0.00    +0.000 A 
ATOM      9  C   UNL     1       5.262   5.224  17.656  0.00  0.00    +0.000 A 
ENDROOT
BRANCH   2  10
ATOM     10  C   UNL     1       2.344   3.116  18.289  0.00  0.00    +0.000 A 
ATOM     11  N   UNL     1       1.102   3.275  17.874  0.00  0.00    +0.000 NA
ATOM     12  N   UNL     1       0.305   2.436  18.610  0.00  0.00    +0.000 NA
ATOM     13  C   UNL     1       1.108   1.831  19.449  0.00  0.00    +0.000 A 
ATOM     14  O   UNL     1       2.410   2.195  19.311  0.00  0.00    +0.000 OA
ENDBRANCH   2  10
BRANCH   1  15
ATOM     15  C   UNL     1       3.878   5.362  19.757  0.00  0.00    +0.000 C 
BRANCH  15  17
ATOM     16  O   UNL     1       1.592   5.726  20.420  0.00  0.00    +0.000 OA
ATOM     17  C   UNL     1       2.598   6.175  19.876  0.00  0.00    +0.000 C 
ATOM     18  N   UNL     1       2.639   7.422  19.287  0.00  0.00    +0.000 N 
ATOM     19  H   UNL     1       3.504   7.713  18.831  0.00  0.00    +0.000 HD
BRANCH  18  20
ATOM     20  C   UNL     1       1.483   8.284  19.127  0.00  0.00    +0.000 C 
ATOM     21  C   UNL     1       1.158   9.060  20.402  0.00  0.00    +0.000 C 
ATOM     22  C   UNL     1       0.304  10.221  19.915  0.00  0.00    +0.000 C 
ATOM     23  C   UNL     1       0.833  10.559  18.524  0.00  0.00    +0.000 C 
ATOM     24  C   UNL     1       1.740   9.399  18.111  0.00  0.00    +0.000 C 
ENDBRANCH  18  20
ENDBRANCH  15  17
ENDBRANCH   1  15
TORSDOF 4
ENDMDL
