MODEL 1
REMARK VINA RESULT:      -5.7      0.000      0.000
REMARK  Name = 
REMARK  8 active torsions:
REMARK  status: ('A' for Active; 'I' for Inactive)
REMARK    1  A    between atoms: S_2  and  C_4
REMARK    2  A    between atoms: S_2  and  C_11
REMARK    3  A    between atoms: C_4  and  C_5
REMARK    4  A    between atoms: C_5  and  C_6
REMARK    5  A    between atoms: C_6  and  C_7
REMARK    6  A    between atoms: C_7  and  N_8
REMARK    7  A    between atoms: C_11  and  C_12
REMARK    8  A    between atoms: C_12  and  N_13
REMARK                            x       y       z     vdW  Elec       q    Type
REMARK                         _______ _______ _______ _____ _____    ______ ____
ROOT
ATOM      1  O   UNL     1       4.875   2.276  20.280  0.00  0.00    +0.000 OA
ATOM      2  S   UNL     1       3.845   2.914  19.481  0.00  0.00    +0.000 S 
ATOM      3  O   UNL     1       2.772   2.133  18.896  0.00  0.00    +0.000 OA
ENDROOT
BRANCH   2   4
ATOM      4  C   UNL     1       3.100   4.175  20.504  0.00  0.00    +0.000 C 
BRANCH   4   5
ATOM      5  C   UNL     1       2.044   4.928  19.694  0.00  0.00    +0.000 C 
BRANCH   5   6
ATOM      6  C   UNL     1       2.380   6.405  19.522  0.00  0.00    +0.000 C 
BRANCH   6   7
ATOM      7  C   UNL     1       2.509   6.764  18.039  0.00  0.00    +0.000 C 
BRANCH   7   8
ATOM      8  N   UNL     1       2.841   8.193  17.933  0.00  0.00    +0.000 NA
ATOM      9  C   UNL     1       1.958   8.925  18.180  0.00  0.00    +0.000 C 
ATOM     10  S   UNL     1       0.771   9.931  18.508  0.00  0.00    +0.000 S 
ENDBRANCH   7   8
ENDBRANCH   6   7
ENDBRANCH   5   6
ENDBRANCH   4   5
ENDBRANCH   2   4
BRANCH   2  11
ATOM     11  C   UNL     1       4.672   3.802  18.153  0.00  0.00    +0.000 C 
BRANCH  11  12
ATOM     12  C   UNL     1       5.656   4.764  18.818  0.00  0.00    +0.000 C 
BRANCH  12  13
ATOM     13  N   UNL     1       7.085   4.642  18.465  0.00  0.00    +0.000 NA
ATOM     14  C   UNL     1       7.767   5.929  18.794  0.00  0.00    +0.000 C 
ATOM     15  C   UNL     1       7.374   7.092  17.858  0.00  0.00    +0.000 C 
ATOM     16  O   UNL     1       7.624   6.763  16.485  0.00  0.00    +0.000 OA
ATOM     17  C   UNL     1       6.954   5.554  16.107  0.00  0.00    +0.000 C 
ATOM     18  C   UNL     1       7.338   4.384  17.031  0.00  0.00    +0.000 C 
ENDBRANCH  12  13
ENDBRANCH  11  12
ENDBRANCH   2  11
TORSDOF 8
ENDMDL
MODEL 2
REMARK VINA RESULT:      -5.6      1.691      2.058
REMARK  Name = 
REMARK  8 active torsions:
REMARK  status: ('A' for Active; 'I' for Inactive)
REMARK    1  A    between atoms: S_2  and  C_4
REMARK    2  A    between atoms: S_2  and  C_11
REMARK    3  A    between atoms: C_4  and  C_5
REMARK    4  A    between atoms: C_5  and  C_6
REMARK    5  A    between atoms: C_6  and  C_7
REMARK    6  A    between atoms: C_7  and  N_8
REMARK    7  A    between atoms: C_11  and  C_12
REMARK    8  A    between atoms: C_12  and  N_13
REMARK                            x       y       z     vdW  Elec       q    Type
REMARK                         _______ _______ _______ _____ _____    ______ ____
ROOT
ATOM      1  O   UNL     1       4.724   2.275  20.205  0.00  0.00    +0.000 OA
ATOM      2  S   UNL     1       3.755   2.235  19.125  0.00  0.00    +0.000 S 
ATOM      3  O   UNL     1       3.714   1.111  18.209  0.00  0.00    +0.000 OA
ENDROOT
BRANCH   2   4
ATOM      4  C   UNL     1       2.139   2.384  19.870  0.00  0.00    +0.000 C 
BRANCH   4   5
ATOM      5  C   UNL     1       2.292   2.758  21.344  0.00  0.00    +0.000 C 
BRANCH   5   6
ATOM      6  C   UNL     1       2.288   4.266  21.571  0.00  0.00    +0.000 C 
BRANCH   6   7
ATOM      7  C   UNL     1       1.455   4.975  20.499  0.00  0.00    +0.000 C 
BRANCH   7   8
ATOM      8  N   UNL     1       2.153   6.209  20.108  0.00  0.00    +0.000 NA
ATOM      9  C   UNL     1       1.705   7.194  20.560  0.00  0.00    +0.000 C 
ATOM     10  S   UNL     1       1.107   8.540  21.162  0.00  0.00    +0.000 S 
ENDBRANCH   7   8
ENDBRANCH   6   7
ENDBRANCH   5   6
ENDBRANCH   4   5
ENDBRANCH   2   4
BRANCH   2  11
ATOM     11  C   UNL     1       3.975   3.733  18.154  0.00  0.00    +0.000 C 
BRANCH  11  12
ATOM     12  C   UNL     1       5.417   4.189  18.377  0.00  0.00    +0.000 C 
BRANCH  12  13
ATOM     13  N   UNL     1       6.282   4.349  17.190  0.00  0.00    +0.000 NA
ATOM     14  C   UNL     1       7.501   5.111  17.590  0.00  0.00    +0.000 C 
ATOM     15  C   UNL     1       7.225   6.598  17.903  0.00  0.00    +0.000 C 
ATOM     16  O   UNL     1       6.601   7.256  16.794  0.00  0.00    +0.000 OA
ATOM     17  C   UNL     1       5.398   6.585  16.397  0.00  0.00    +0.000 C 
ATOM     18  C   UNL     1       5.658   5.102  16.080  0.00  0.00    +0.000 C 
ENDBRANCH  12  13
ENDBRANCH  11  12
ENDBRANCH   2  11
TORSDOF 8
ENDMDL
MODEL 3
REMARK VINA RESULT:      -5.5      3.580      6.045
REMARK  Name = 
REMARK  8 active torsions:
REMARK  status: ('A' for Active; 'I' for Inactive)
REMARK    1  A    between atoms: S_2  and  C_4
REMARK    2  A    between atoms: S_2  and  C_11
REMARK    3  A    between atoms: C_4  and  C_5
REMARK    4  A    between atoms: C_5  and  C_6
REMARK    5  A    between atoms: C_6  and  C_7
REMARK    6  A    between atoms: C_7  and  N_8
REMARK    7  A    between atoms: C_11  and  C_12
REMARK    8  A    between atoms: C_12  and  N_13
REMARK                            x       y       z     vdW  Elec       q    Type
REMARK                         _______ _______ _______ _____ _____    ______ ____
ROOT
ATOM      1  O   UNL     1       7.637   4.509  16.947  0.00  0.00    +0.000 OA
ATOM      2  S   UNL     1       6.616   4.934  17.887  0.00  0.00    +0.000 S 
ATOM      3  O   UNL     1       6.829   4.814  19.316  0.00  0.00    +0.000 OA
ENDROOT
BRANCH   2   4
ATOM      4  C   UNL     1       6.269   6.651  17.535  0.00  0.00    +0.000 C 
BRANCH   4   5
ATOM      5  C   UNL     1       7.565   7.364  17.151  0.00  0.00    +0.000 C 
BRANCH   5   6
ATOM      6  C   UNL     1       8.274   7.979  18.352  0.00  0.00    +0.000 C 
BRANCH   6   7
ATOM      7  C   UNL     1       8.412   9.495  18.184  0.00  0.00    +0.000 C 
BRANCH   7   8
ATOM      8  N   UNL     1       9.252  10.010  19.276  0.00  0.00    +0.000 NA
ATOM      9  C   UNL     1       9.793  11.025  19.047  0.00  0.00    +0.000 C 
ATOM     10  S   UNL     1      10.535  12.401  18.752  0.00  0.00    +0.000 S 
ENDBRANCH   7   8
ENDBRANCH   6   7
ENDBRANCH   5   6
ENDBRANCH   4   5
ENDBRANCH   2   4
BRANCH   2  11
ATOM     11  C   UNL     1       5.107   4.047  17.474  0.00  0.00    +0.000 C 
BRANCH  11  12
ATOM     12  C   UNL     1       4.483   3.608  18.799  0.00  0.00    +0.000 C 
BRANCH  12  13
ATOM     13  N   UNL     1       3.468   4.491  19.410  0.00  0.00    +0.000 NA
ATOM     14  C   UNL     1       2.764   3.733  20.486  0.00  0.00    +0.000 C 
ATOM     15  C   UNL     1       1.840   2.618  19.951  0.00  0.00    +0.000 C 
ATOM     16  O   UNL     1       0.872   3.140  19.032  0.00  0.00    +0.000 OA
ATOM     17  C   UNL     1       1.502   3.843  17.953  0.00  0.00    +0.000 C 
ATOM     18  C   UNL     1       2.425   4.959  18.471  0.00  0.00    +0.000 C 
ENDBRANCH  12  13
ENDBRANCH  11  12
ENDBRANCH   2  11
TORSDOF 8
ENDMDL
MODEL 4
REMARK VINA RESULT:      -5.5      4.001      6.401
REMARK  Name = 
REMARK  8 active torsions:
REMARK  status: ('A' for Active; 'I' for Inactive)
REMARK    1  A    between atoms: S_2  and  C_4
REMARK    2  A    between atoms: S_2  and  C_11
REMARK    3  A    between atoms: C_4  and  C_5
REMARK    4  A    between atoms: C_5  and  C_6
REMARK    5  A    between atoms: C_6  and  C_7
REMARK    6  A    between atoms: C_7  and  N_8
REMARK    7  A    between atoms: C_11  and  C_12
REMARK    8  A    between atoms: C_12  and  N_13
REMARK                            x       y       z     vdW  Elec       q    Type
REMARK                         _______ _______ _______ _____ _____    ______ ____
ROOT
ATOM      1  O   UNL     1       7.527   6.190  16.126  0.00  0.00    +0.000 OA
ATOM      2  S   UNL     1       7.208   5.779  17.481  0.00  0.00    +0.000 S 
ATOM      3  O   UNL     1       7.533   4.445  17.946  0.00  0.00    +0.000 OA
ENDROOT
BRANCH   2   4
ATOM      4  C   UNL     1       8.006   6.942  18.578  0.00  0.00    +0.000 C 
BRANCH   4   5
ATOM      5  C   UNL     1       8.091   8.307  17.896  0.00  0.00    +0.000 C 
BRANCH   5   6
ATOM      6  C   UNL     1       8.792   9.351  18.759  0.00  0.00    +0.000 C 
BRANCH   6   7
ATOM      7  C   UNL     1       8.818  10.711  18.054  0.00  0.00    +0.000 C 
BRANCH   7   8
ATOM      8  N   UNL     1      10.220  11.118  17.881  0.00  0.00    +0.000 NA
ATOM      9  C   UNL     1      10.388  12.272  17.757  0.00  0.00    +0.000 C 
ATOM     10  S   UNL     1      10.632  13.835  17.584  0.00  0.00    +0.000 S 
ENDBRANCH   7   8
ENDBRANCH   6   7
ENDBRANCH   5   6
ENDBRANCH   4   5
ENDBRANCH   2   4
BRANCH   2  11
ATOM     11  C   UNL     1       5.443   6.033  17.715  0.00  0.00    +0.000 C 
BRANCH  11  12
ATOM     12  C   UNL     1       4.885   4.723  18.270  0.00  0.00    +0.000 C 
BRANCH  12  13
ATOM     13  N   UNL     1       3.782   4.074  17.530  0.00  0.00    +0.000 NA
ATOM     14  C   UNL     1       2.493   4.689  17.963  0.00  0.00    +0.000 C 
ATOM     15  C   UNL     1       2.084   4.315  19.404  0.00  0.00    +0.000 C 
ATOM     16  O   UNL     1       2.008   2.894  19.571  0.00  0.00    +0.000 OA
ATOM     17  C   UNL     1       3.240   2.258  19.208  0.00  0.00    +0.000 C 
ATOM     18  C   UNL     1       3.660   2.620  17.773  0.00  0.00    +0.000 C 
ENDBRANCH  12  13
ENDBRANCH  11  12
ENDBRANCH   2  11
TORSDOF 8
ENDMDL
MODEL 5
REMARK VINA RESULT:      -5.5      2.912      5.714
REMARK  Name = 
REMARK  8 active torsions:
REMARK  status: ('A' for Active; 'I' for Inactive)
REMARK    1  A    between atoms: S_2  and  C_4
REMARK    2  A    between atoms: S_2  and  C_11
REMARK    3  A    between atoms: C_4  and  C_5
REMARK    4  A    between atoms: C_5  and  C_6
REMARK    5  A    between atoms: C_6  and  C_7
REMARK    6  A    between atoms: C_7  and  N_8
REMARK    7  A    between atoms: C_11  and  C_12
REMARK    8  A    between atoms: C_12  and  N_13
REMARK                            x       y       z     vdW  Elec       q    Type
REMARK                         _______ _______ _______ _____ _____    ______ ____
ROOT
ATOM      1  O   UNL     1       4.017   5.918  19.576  0.00  0.00    +0.000 OA
ATOM      2  S   UNL     1       3.466   6.124  18.249  0.00  0.00    +0.000 S 
ATOM      3  O   UNL     1       2.332   7.004  18.047  0.00  0.00    +0.000 OA
ENDROOT
BRANCH   2   4
ATOM      4  C   UNL     1       4.800   6.716  17.219  0.00  0.00    +0.000 C 
BRANCH   4   5
ATOM      5  C   UNL     1       4.857   5.888  15.935  0.00  0.00    +0.000 C 
BRANCH   5   6
ATOM      6  C   UNL     1       6.279   5.482  15.562  0.00  0.00    +0.000 C 
BRANCH   6   7
ATOM      7  C   UNL     1       6.645   4.137  16.196  0.00  0.00    +0.000 C 
BRANCH   7   8
ATOM      8  N   UNL     1       7.894   4.305  16.954  0.00  0.00    +0.000 NA
ATOM      9  C   UNL     1       7.781   4.874  17.973  0.00  0.00    +0.000 C 
ATOM     10  S   UNL     1       7.646   5.647  19.356  0.00  0.00    +0.000 S 
ENDBRANCH   7   8
ENDBRANCH   6   7
ENDBRANCH   5   6
ENDBRANCH   4   5
ENDBRANCH   2   4
BRANCH   2  11
ATOM     11  C   UNL     1       3.036   4.505  17.592  0.00  0.00    +0.000 C 
BRANCH  11  12
ATOM     12  C   UNL     1       1.919   3.958  18.480  0.00  0.00    +0.000 C 
BRANCH  12  13
ATOM     13  N   UNL     1       1.961   2.525  18.837  0.00  0.00    +0.000 NA
ATOM     14  C   UNL     1       1.388   2.359  20.205  0.00  0.00    +0.000 C 
ATOM     15  C   UNL     1       2.289   2.924  21.324  0.00  0.00    +0.000 C 
ATOM     16  O   UNL     1       3.596   2.337  21.286  0.00  0.00    +0.000 OA
ATOM     17  C   UNL     1       4.208   2.508  20.002  0.00  0.00    +0.000 C 
ATOM     18  C   UNL     1       3.322   1.947  18.876  0.00  0.00    +0.000 C 
ENDBRANCH  12  13
ENDBRANCH  11  12
ENDBRANCH   2  11
TORSDOF 8
ENDMDL
MODEL 6
REMARK VINA RESULT:      -5.5      3.457      5.974
REMARK  Name = 
REMARK  8 active torsions:
REMARK  status: ('A' for Active; 'I' for Inactive)
REMARK    1  A    between atoms: S_2  and  C_4
REMARK    2  A    between atoms: S_2  and  C_11
REMARK    3  A    between atoms: C_4  and  C_5
REMARK    4  A    between atoms: C_5  and  C_6
REMARK    5  A    between atoms: C_6  and  C_7
REMARK    6  A    between atoms: C_7  and  N_8
REMARK    7  A    between atoms: C_11  and  C_12
REMARK    8  A    between atoms: C_12  and  N_13
REMARK                            x       y       z     vdW  Elec       q    Type
REMARK                         _______ _______ _______ _____ _____    ______ ____
ROOT
ATOM      1  O   UNL     1       5.659   3.762  15.745  0.00  0.00    +0.000 OA
ATOM      2  S   UNL     1       6.491   4.527  16.656  0.00  0.00    +0.000 S 
ATOM      3  O   UNL     1       7.903   4.227  16.797  0.00  0.00    +0.000 OA
ENDROOT
BRANCH   2   4
ATOM      4  C   UNL     1       6.348   6.241  16.176  0.00  0.00    +0.000 C 
BRANCH   4   5
ATOM      5  C   UNL     1       6.372   7.123  17.424  0.00  0.00    +0.000 C 
BRANCH   5   6
ATOM      6  C   UNL     1       7.784   7.545  17.817  0.00  0.00    +0.000 C 
BRANCH   6   7
ATOM      7  C   UNL     1       7.955   9.061  17.682  0.00  0.00    +0.000 C 
BRANCH   7   8
ATOM      8  N   UNL     1       8.805   9.533  18.786  0.00  0.00    +0.000 NA
ATOM      9  C   UNL     1       9.351  10.552  18.588  0.00  0.00    +0.000 C 
ATOM     10  S   UNL     1      10.100  11.932  18.335  0.00  0.00    +0.000 S 
ENDBRANCH   7   8
ENDBRANCH   6   7
ENDBRANCH   5   6
ENDBRANCH   4   5
ENDBRANCH   2   4
BRANCH   2  11
ATOM     11  C   UNL     1       5.737   4.421  18.286  0.00  0.00    +0.000 C 
BRANCH  11  12
ATOM     12  C   UNL     1       4.301   3.944  18.071  0.00  0.00    +0.000 C 
BRANCH  12  13
ATOM     13  N   UNL     1       3.975   2.550  18.435  0.00  0.00    +0.000 NA
ATOM     14  C   UNL     1       2.672   2.186  17.804  0.00  0.00    +0.000 C 
ATOM     15  C   UNL     1       1.459   2.902  18.437  0.00  0.00    +0.000 C 
ATOM     16  O   UNL     1       1.385   2.655  19.846  0.00  0.00    +0.000 OA
ATOM     17  C   UNL     1       2.601   3.029  20.507  0.00  0.00    +0.000 C 
ATOM     18  C   UNL     1       3.819   2.321  19.888  0.00  0.00    +0.000 C 
ENDBRANCH  12  13
ENDBRANCH  11  12
ENDBRANCH   2  11
TORSDOF 8
ENDMDL
MODEL 7
REMARK VINA RESULT:      -5.5      2.668      4.094
REMARK  Name = 
REMARK  8 active torsions:
REMARK  status: ('A' for Active; 'I' for Inactive)
REMARK    1  A    between atoms: S_2  and  C_4
REMARK    2  A    between atoms: S_2  and  C_11
REMARK    3  A    between atoms: C_4  and  C_5
REMARK    4  A    between atoms: C_5  and  C_6
REMARK    5  A    between atoms: C_6  and  C_7
REMARK    6  A    between atoms: C_7  and  N_8
REMARK    7  A    between atoms: C_11  and  C_12
REMARK    8  A    between atoms: C_12  and  N_13
REMARK                            x       y       z     vdW  Elec       q    Type
REMARK                         _______ _______ _______ _____ _____    ______ ____
ROOT
ATOM      1  O   UNL     1       1.808   5.425  17.829  0.00  0.00    +0.000 OA
ATOM      2  S   UNL     1       2.533   6.088  18.897  0.00  0.00    +0.000 S 
ATOM      3  O   UNL     1       2.337   7.501  19.159  0.00  0.00    +0.000 OA
ENDROOT
BRANCH   2   4
ATOM      4  C   UNL     1       2.165   5.203  20.404  0.00  0.00    +0.000 C 
BRANCH   4   5
ATOM      5  C   UNL     1       0.899   4.370  20.207  0.00  0.00    +0.000 C 
BRANCH   5   6
ATOM      6  C   UNL     1       1.134   2.881  20.439  0.00  0.00    +0.000 C 
BRANCH   6   7
ATOM      7  C   UNL     1       0.997   2.099  19.130  0.00  0.00    +0.000 C 
BRANCH   7   8
ATOM      8  N   UNL     1       2.270   2.190  18.399  0.00  0.00    +0.000 NA
ATOM      9  C   UNL     1       3.230   2.112  19.067  0.00  0.00    +0.000 C 
ATOM     10  S   UNL     1       4.543   2.012  19.960  0.00  0.00    +0.000 S 
ENDBRANCH   7   8
ENDBRANCH   6   7
ENDBRANCH   5   6
ENDBRANCH   4   5
ENDBRANCH   2   4
BRANCH   2  11
ATOM     11  C   UNL     1       4.287   5.819  18.600  0.00  0.00    +0.000 C 
BRANCH  11  12
ATOM     12  C   UNL     1       4.392   5.048  17.284  0.00  0.00    +0.000 C 
BRANCH  12  13
ATOM     13  N   UNL     1       5.548   4.147  17.103  0.00  0.00    +0.000 NA
ATOM     14  C   UNL     1       6.755   4.795  17.698  0.00  0.00    +0.000 C 
ATOM     15  C   UNL     1       7.258   6.015  16.896  0.00  0.00    +0.000 C 
ATOM     16  O   UNL     1       7.534   5.664  15.534  0.00  0.00    +0.000 OA
ATOM     17  C   UNL     1       6.390   5.075  14.904  0.00  0.00    +0.000 C 
ATOM     18  C   UNL     1       5.878   3.856  15.691  0.00  0.00    +0.000 C 
ENDBRANCH  12  13
ENDBRANCH  11  12
ENDBRANCH   2  11
TORSDOF 8
ENDMDL
MODEL 8
REMARK VINA RESULT:      -5.5      2.690      4.213
REMARK  Name = 
REMARK  8 active torsions:
REMARK  status: ('A' for Active; 'I' for Inactive)
REMARK    1  A    between atoms: S_2  and  C_4
REMARK    2  A    between atoms: S_2  and  C_11
REMARK    3  A    between atoms: C_4  and  C_5
REMARK    4  A    between atoms: C_5  and  C_6
REMARK    5  A    between atoms: C_6  and  C_7
REMARK    6  A    between atoms: C_7  and  N_8
REMARK    7  A    between atoms: C_11  and  C_12
REMARK    8  A    between atoms: C_12  and  N_13
REMARK                            x       y       z     vdW  Elec       q    Type
REMARK                         _______ _______ _______ _____ _____    ______ ____
ROOT
ATOM      1  O   UNL     1       2.235   6.606  19.021  0.00  0.00    +0.000 OA
ATOM      2  S   UNL     1       3.456   5.955  18.581  0.00  0.00    +0.000 S 
ATOM      3  O   UNL     1       4.402   5.429  19.546  0.00  0.00    +0.000 OA
ENDROOT
BRANCH   2   4
ATOM      4  C   UNL     1       2.971   4.610  17.511  0.00  0.00    +0.000 C 
BRANCH   4   5
ATOM      5  C   UNL     1       1.554   4.162  17.867  0.00  0.00    +0.000 C 
BRANCH   5   6
ATOM      6  C   UNL     1       1.514   2.758  18.461  0.00  0.00    +0.000 C 
BRANCH   6   7
ATOM      7  C   UNL     1       2.880   2.076  18.335  0.00  0.00    +0.000 C 
BRANCH   7   8
ATOM      8  N   UNL     1       3.508   2.044  19.665  0.00  0.00    +0.000 NA
ATOM      9  C   UNL     1       2.871   2.528  20.523  0.00  0.00    +0.000 C 
ATOM     10  S   UNL     1       2.022   3.183  21.699  0.00  0.00    +0.000 S 
ENDBRANCH   7   8
ENDBRANCH   6   7
ENDBRANCH   5   6
ENDBRANCH   4   5
ENDBRANCH   2   4
BRANCH   2  11
ATOM     11  C   UNL     1       4.331   7.117  17.524  0.00  0.00    +0.000 C 
BRANCH  11  12
ATOM     12  C   UNL     1       4.980   6.292  16.413  0.00  0.00    +0.000 C 
BRANCH  12  13
ATOM     13  N   UNL     1       6.391   6.576  16.077  0.00  0.00    +0.000 NA
ATOM     14  C   UNL     1       6.918   5.450  15.251  0.00  0.00    +0.000 C 
ATOM     15  C   UNL     1       7.106   4.138  16.043  0.00  0.00    +0.000 C 
ATOM     16  O   UNL     1       7.962   4.332  17.176  0.00  0.00    +0.000 OA
ATOM     17  C   UNL     1       7.475   5.378  18.026  0.00  0.00    +0.000 C 
ATOM     18  C   UNL     1       7.284   6.693  17.251  0.00  0.00    +0.000 C 
ENDBRANCH  12  13
ENDBRANCH  11  12
ENDBRANCH   2  11
TORSDOF 8
ENDMDL
MODEL 9
REMARK VINA RESULT:      -5.5      3.153      6.174
REMARK  Name = 
REMARK  8 active torsions:
REMARK  status: ('A' for Active; 'I' for Inactive)
REMARK    1  A    between atoms: S_2  and  C_4
REMARK    2  A    between atoms: S_2  and  C_11
REMARK    3  A    between atoms: C_4  and  C_5
REMARK    4  A    between atoms: C_5  and  C_6
REMARK    5  A    between atoms: C_6  and  C_7
REMARK    6  A    between atoms: C_7  and  N_8
REMARK    7  A    between atoms: C_11  and  C_12
REMARK    8  A    between atoms: C_12  and  N_13
REMARK                            x       y       z     vdW  Elec       q    Type
REMARK                         _______ _______ _______ _____ _____    ______ ____
ROOT
ATOM      1  O   UNL     1       5.119   3.284  19.593  0.00  0.00    +0.000 OA
ATOM      2  S   UNL     1       5.475   4.437  18.787  0.00  0.00    +0.000 S 
ATOM      3  O   UNL     1       6.747   5.107  18.974  0.00  0.00    +0.000 OA
ENDROOT
BRANCH   2   4
ATOM      4  C   UNL     1       5.380   3.927  17.078  0.00  0.00    +0.000 C 
BRANCH   4   5
ATOM      5  C   UNL     1       6.452   4.656  16.269  0.00  0.00    +0.000 C 
BRANCH   5   6
ATOM      6  C   UNL     1       5.902   5.269  14.985  0.00  0.00    +0.000 C 
BRANCH   6   7
ATOM      7  C   UNL     1       6.752   4.858  13.779  0.00  0.00    +0.000 C 
BRANCH   7   8
ATOM      8  N   UNL     1       6.373   3.492  13.387  0.00  0.00    +0.000 NA
ATOM      9  C   UNL     1       5.556   3.427  12.549  0.00  0.00    +0.000 C 
ATOM     10  S   UNL     1       4.446   3.322  11.414  0.00  0.00    +0.000 S 
ENDBRANCH   7   8
ENDBRANCH   6   7
ENDBRANCH   5   6
ENDBRANCH   4   5
ENDBRANCH   2   4
BRANCH   2  11
ATOM     11  C   UNL     1       4.171   5.658  18.995  0.00  0.00    +0.000 C 
BRANCH  11  12
ATOM     12  C   UNL     1       3.137   5.035  19.933  0.00  0.00    +0.000 C 
BRANCH  12  13
ATOM     13  N   UNL     1       1.747   4.918  19.448  0.00  0.00    +0.000 NA
ATOM     14  C   UNL     1       0.985   4.047  20.392  0.00  0.00    +0.000 C 
ATOM     15  C   UNL     1       1.401   2.561  20.332  0.00  0.00    +0.000 C 
ATOM     16  O   UNL     1       1.275   2.039  19.003  0.00  0.00    +0.000 OA
ATOM     17  C   UNL     1       2.024   2.817  18.062  0.00  0.00    +0.000 C 
ATOM     18  C   UNL     1       1.620   4.301  18.109  0.00  0.00    +0.000 C 
ENDBRANCH  12  13
ENDBRANCH  11  12
ENDBRANCH   2  11
TORSDOF 8
ENDMDL
