MODEL 1
REMARK VINA RESULT:      -5.9      0.000      0.000
REMARK  Name = 
REMARK  18 active torsions:
REMARK  status: ('A' for Active; 'I' for Inactive)
REMARK    1  A    between atoms: C_1  and  C_2
REMARK    2  A    between atoms: C_2  and  C_3
REMARK    3  A    between atoms: C_3  and  C_4
REMARK    4  A    between atoms: C_4  and  C_5
REMARK    5  A    between atoms: C_5  and  C_6
REMARK    6  A    between atoms: C_6  and  C_7
REMARK    7  A    between atoms: C_7  and  C_8
REMARK    8  A    between atoms: C_7  and  C_9
REMARK    9  A    between atoms: C_7  and  C_10
REMARK   10  A    between atoms: C_12  and  O_13
REMARK   11  A    between atoms: O_13  and  C_14
REMARK   12  A    between atoms: C_15  and  C_16
REMARK   13  A    between atoms: C_17  and  O_18
REMARK   14  A    between atoms: C_19  and  C_20
REMARK   15  A    between atoms: C_24  and  C_25
REMARK   16  A    between atoms: C_24  and  C_26
REMARK   17  A    between atoms: C_27  and  O_28
REMARK   18  A    between atoms: O_28  and  C_29
REMARK                            x       y       z     vdW  Elec       q    Type
REMARK                         _______ _______ _______ _____ _____    ______ ____
ROOT
ATOM      1  C   UNL     1       1.628  10.202  18.907  0.00  0.00    +0.000 A 
ATOM      2  C   UNL     1       2.282   9.420  17.955  0.00  0.00    +0.000 A 
ATOM      3  C   UNL     1       2.542   8.057  18.163  0.00  0.00    +0.000 A 
ATOM      4  C   UNL     1       2.100   7.399  19.332  0.00  0.00    +0.000 A 
ATOM      5  C   UNL     1       1.351   8.167  20.256  0.00  0.00    +0.000 A 
ATOM      6  C   UNL     1       1.141   9.539  20.042  0.00  0.00    +0.000 A 
ENDROOT
BRANCH   4   7
ATOM      7  C   UNL     1       2.461   5.955  19.709  0.00  0.00    +0.000 C 
ATOM      8  C   UNL     1       3.790   5.350  19.170  0.00  0.00    +0.000 C 
ATOM      9  C   UNL     1       3.348   3.940  18.657  0.00  0.00    +0.000 C 
ATOM     10  C   UNL     1       4.514   2.997  18.423  0.00  0.00    +0.000 C 
ATOM     11  C   UNL     1       2.526   4.190  17.353  0.00  0.00    +0.000 C 
ATOM     12  C   UNL     1       1.194   4.760  17.870  0.00  0.00    +0.000 C 
ATOM     13  C   UNL     1       1.421   4.817  19.391  0.00  0.00    +0.000 C 
ATOM     14  C   UNL     1       2.233   3.500  19.656  0.00  0.00    +0.000 C 
ATOM     15  C   UNL     1       1.523   2.183  19.256  0.00  0.00    +0.000 C 
ATOM     16  C   UNL     1       2.642   3.285  21.125  0.00  0.00    +0.000 C 
BRANCH   8  17
ATOM     17  O   UNL     1       4.799   5.326  20.181  0.00  0.00    +0.000 OA
ATOM     18  H   UNL     1       4.392   5.475  21.047  0.00  0.00    +0.000 HD
ENDBRANCH   8  17
ENDBRANCH   4   7
BRANCH   1  19
ATOM     19  C   UNL     1       1.419  11.715  18.733  0.00  0.00    +0.000 C 
ATOM     20  C   UNL     1       2.564  12.426  17.970  0.00  0.00    +0.000 C 
ATOM     21  C   UNL     1       1.374  12.363  20.138  0.00  0.00    +0.000 C 
BRANCH  19  22
ATOM     22  C   UNL     1       0.071  11.997  18.004  0.00  0.00    +0.000 C 
BRANCH  22  23
ATOM     23  C   UNL     1      -1.091  12.297  18.957  0.00  0.00    +0.000 C 
BRANCH  23  24
ATOM     24  C   UNL     1      -2.363  11.546  18.560  0.00  0.00    +0.000 C 
BRANCH  24  25
ATOM     25  C   UNL     1      -2.005  10.155  18.051  0.00  0.00    +0.000 C 
BRANCH  25  27
ATOM     26  C   UNL     1      -3.697  10.699  16.279  0.00  0.00    +0.000 C 
ATOM     27  C   UNL     1      -2.395   9.978  16.585  0.00  0.00    +0.000 C 
ENDBRANCH  25  27
ENDBRANCH  24  25
ENDBRANCH  23  24
ENDBRANCH  22  23
ENDBRANCH  19  22
ENDBRANCH   1  19
BRANCH   3  28
ATOM     28  O   UNL     1       3.180   7.332  17.189  0.00  0.00    +0.000 OA
ATOM     29  C   UNL     1       4.583   7.543  17.046  0.00  0.00    +0.000 C 
ENDBRANCH   3  28
BRANCH   5  30
ATOM     30  O   UNL     1       0.841   7.503  21.349  0.00  0.00    +0.000 OA
ATOM     31  C   UNL     1      -0.188   8.164  22.079  0.00  0.00    +0.000 C 
ENDBRANCH   5  30
TORSDOF 10
ENDMDL
MODEL 2
REMARK VINA RESULT:      -5.9      3.768      8.728
REMARK  Name = 
REMARK  18 active torsions:
REMARK  status: ('A' for Active; 'I' for Inactive)
REMARK    1  A    between atoms: C_1  and  C_2
REMARK    2  A    between atoms: C_2  and  C_3
REMARK    3  A    between atoms: C_3  and  C_4
REMARK    4  A    between atoms: C_4  and  C_5
REMARK    5  A    between atoms: C_5  and  C_6
REMARK    6  A    between atoms: C_6  and  C_7
REMARK    7  A    between atoms: C_7  and  C_8
REMARK    8  A    between atoms: C_7  and  C_9
REMARK    9  A    between atoms: C_7  and  C_10
REMARK   10  A    between atoms: C_12  and  O_13
REMARK   11  A    between atoms: O_13  and  C_14
REMARK   12  A    between atoms: C_15  and  C_16
REMARK   13  A    between atoms: C_17  and  O_18
REMARK   14  A    between atoms: C_19  and  C_20
REMARK   15  A    between atoms: C_24  and  C_25
REMARK   16  A    between atoms: C_24  and  C_26
REMARK   17  A    between atoms: C_27  and  O_28
REMARK   18  A    between atoms: O_28  and  C_29
REMARK                            x       y       z     vdW  Elec       q    Type
REMARK                         _______ _______ _______ _____ _____    ______ ____
ROOT
ATOM      1  C   UNL     1       0.411  10.299  19.591  0.00  0.00    +0.000 A 
ATOM      2  C   UNL     1      -0.155  11.532  19.266  0.00  0.00    +0.000 A 
ATOM      3  C   UNL     1      -1.023  12.206  20.139  0.00  0.00    +0.000 A 
ATOM      4  C   UNL     1      -1.320  11.687  21.419  0.00  0.00    +0.000 A 
ATOM      5  C   UNL     1      -0.670  10.485  21.790  0.00  0.00    +0.000 A 
ATOM      6  C   UNL     1       0.161   9.810  20.882  0.00  0.00    +0.000 A 
ENDROOT
BRANCH   4   7
ATOM      7  C   UNL     1      -2.363  12.277  22.378  0.00  0.00    +0.000 C 
ATOM      8  C   UNL     1      -3.517  13.141  21.790  0.00  0.00    +0.000 C 
ATOM      9  C   UNL     1      -3.551  14.377  22.748  0.00  0.00    +0.000 C 
ATOM     10  C   UNL     1      -4.824  15.193  22.626  0.00  0.00    +0.000 C 
ATOM     11  C   UNL     1      -2.280  15.221  22.412  0.00  0.00    +0.000 C 
ATOM     12  C   UNL     1      -1.130  14.396  23.014  0.00  0.00    +0.000 C 
ATOM     13  C   UNL     1      -1.859  13.164  23.577  0.00  0.00    +0.000 C 
ATOM     14  C   UNL     1      -3.181  13.790  24.146  0.00  0.00    +0.000 C 
ATOM     15  C   UNL     1      -2.995  14.867  25.243  0.00  0.00    +0.000 C 
ATOM     16  C   UNL     1      -4.156  12.772  24.766  0.00  0.00    +0.000 C 
BRANCH   8  17
ATOM     17  O   UNL     1      -4.739  12.403  21.728  0.00  0.00    +0.000 OA
ATOM     18  H   UNL     1      -4.807  11.825  22.502  0.00  0.00    +0.000 HD
ENDBRANCH   8  17
ENDBRANCH   4   7
BRANCH   1  19
ATOM     19  C   UNL     1       1.288   9.506  18.609  0.00  0.00    +0.000 C 
ATOM     20  C   UNL     1       2.397  10.350  17.932  0.00  0.00    +0.000 C 
ATOM     21  C   UNL     1       0.386   8.987  17.463  0.00  0.00    +0.000 C 
BRANCH  19  22
ATOM     22  C   UNL     1       1.943   8.288  19.326  0.00  0.00    +0.000 C 
BRANCH  22  23
ATOM     23  C   UNL     1       2.432   7.201  18.364  0.00  0.00    +0.000 C 
BRANCH  23  24
ATOM     24  C   UNL     1       2.935   5.963  19.108  0.00  0.00    +0.000 C 
BRANCH  24  25
ATOM     25  C   UNL     1       2.028   5.671  20.297  0.00  0.00    +0.000 C 
BRANCH  25  27
ATOM     26  C   UNL     1       1.608   3.383  21.238  0.00  0.00    +0.000 C 
ATOM     27  C   UNL     1       1.275   4.354  20.118  0.00  0.00    +0.000 C 
ENDBRANCH  25  27
ENDBRANCH  24  25
ENDBRANCH  23  24
ENDBRANCH  22  23
ENDBRANCH  19  22
ENDBRANCH   1  19
BRANCH   3  28
ATOM     28  O   UNL     1      -1.543  13.420  19.773  0.00  0.00    +0.000 OA
ATOM     29  C   UNL     1      -0.631  14.375  19.235  0.00  0.00    +0.000 C 
ENDBRANCH   3  28
BRANCH   5  30
ATOM     30  O   UNL     1      -0.888  10.029  23.071  0.00  0.00    +0.000 OA
ATOM     31  C   UNL     1       0.194   9.351  23.703  0.00  0.00    +0.000 C 
ENDBRANCH   5  30
TORSDOF 10
ENDMDL
MODEL 3
REMARK VINA RESULT:      -5.9      2.323      7.884
REMARK  Name = 
REMARK  18 active torsions:
REMARK  status: ('A' for Active; 'I' for Inactive)
REMARK    1  A    between atoms: C_1  and  C_2
REMARK    2  A    between atoms: C_2  and  C_3
REMARK    3  A    between atoms: C_3  and  C_4
REMARK    4  A    between atoms: C_4  and  C_5
REMARK    5  A    between atoms: C_5  and  C_6
REMARK    6  A    between atoms: C_6  and  C_7
REMARK    7  A    between atoms: C_7  and  C_8
REMARK    8  A    between atoms: C_7  and  C_9
REMARK    9  A    between atoms: C_7  and  C_10
REMARK   10  A    between atoms: C_12  and  O_13
REMARK   11  A    between atoms: O_13  and  C_14
REMARK   12  A    between atoms: C_15  and  C_16
REMARK   13  A    between atoms: C_17  and  O_18
REMARK   14  A    between atoms: C_19  and  C_20
REMARK   15  A    between atoms: C_24  and  C_25
REMARK   16  A    between atoms: C_24  and  C_26
REMARK   17  A    between atoms: C_27  and  O_28
REMARK   18  A    between atoms: O_28  and  C_29
REMARK                            x       y       z     vdW  Elec       q    Type
REMARK                         _______ _______ _______ _____ _____    ______ ____
ROOT
ATOM      1  C   UNL     1       1.933   7.623  19.801  0.00  0.00    +0.000 A 
ATOM      2  C   UNL     1       1.899   8.577  18.784  0.00  0.00    +0.000 A 
ATOM      3  C   UNL     1       1.374   9.863  18.986  0.00  0.00    +0.000 A 
ATOM      4  C   UNL     1       0.904  10.268  20.256  0.00  0.00    +0.000 A 
ATOM      5  C   UNL     1       1.027   9.335  21.313  0.00  0.00    +0.000 A 
ATOM      6  C   UNL     1       1.518   8.042  21.073  0.00  0.00    +0.000 A 
ENDROOT
BRANCH   4   7
ATOM      7  C   UNL     1       0.185  11.595  20.536  0.00  0.00    +0.000 C 
ATOM      8  C   UNL     1      -0.315  12.445  19.331  0.00  0.00    +0.000 C 
ATOM      9  C   UNL     1       0.156  13.890  19.703  0.00  0.00    +0.000 C 
ATOM     10  C   UNL     1      -0.525  14.971  18.884  0.00  0.00    +0.000 C 
ATOM     11  C   UNL     1       1.706  13.903  19.518  0.00  0.00    +0.000 C 
ATOM     12  C   UNL     1       2.220  13.092  20.719  0.00  0.00    +0.000 C 
ATOM     13  C   UNL     1       0.918  12.670  21.422  0.00  0.00    +0.000 C 
ATOM     14  C   UNL     1       0.022  13.949  21.257  0.00  0.00    +0.000 C 
ATOM     15  C   UNL     1       0.587  15.248  21.881  0.00  0.00    +0.000 C 
ATOM     16  C   UNL     1      -1.392  13.819  21.852  0.00  0.00    +0.000 C 
BRANCH   8  17
ATOM     17  O   UNL     1      -1.726  12.308  19.147  0.00  0.00    +0.000 OA
ATOM     18  H   UNL     1      -1.926  12.273  18.200  0.00  0.00    +0.000 HD
ENDBRANCH   8  17
ENDBRANCH   4   7
BRANCH   1  19
ATOM     19  C   UNL     1       2.419   6.184  19.569  0.00  0.00    +0.000 C 
ATOM     20  C   UNL     1       3.955   6.054  19.415  0.00  0.00    +0.000 C 
ATOM     21  C   UNL     1       1.811   5.675  18.239  0.00  0.00    +0.000 C 
BRANCH  19  22
ATOM     22  C   UNL     1       1.945   5.256  20.727  0.00  0.00    +0.000 C 
BRANCH  22  23
ATOM     23  C   UNL     1       0.906   4.216  20.293  0.00  0.00    +0.000 C 
BRANCH  23  24
ATOM     24  C   UNL     1       1.225   2.826  20.847  0.00  0.00    +0.000 C 
BRANCH  24  25
ATOM     25  C   UNL     1       2.480   2.279  20.179  0.00  0.00    +0.000 C 
BRANCH  25  27
ATOM     26  C   UNL     1       3.561   2.392  17.917  0.00  0.00    +0.000 C 
ATOM     27  C   UNL     1       2.279   2.091  18.676  0.00  0.00    +0.000 C 
ENDBRANCH  25  27
ENDBRANCH  24  25
ENDBRANCH  23  24
ENDBRANCH  22  23
ENDBRANCH  19  22
ENDBRANCH   1  19
BRANCH   3  28
ATOM     28  O   UNL     1       1.374  10.766  17.955  0.00  0.00    +0.000 OA
ATOM     29  C   UNL     1       2.630  11.345  17.607  0.00  0.00    +0.000 C 
ENDBRANCH   3  28
BRANCH   5  30
ATOM     30  O   UNL     1       0.655   9.763  22.568  0.00  0.00    +0.000 OA
ATOM     31  C   UNL     1      -0.621   9.337  23.039  0.00  0.00    +0.000 C 
ENDBRANCH   5  30
TORSDOF 10
ENDMDL
MODEL 4
REMARK VINA RESULT:      -5.8      2.149      8.122
REMARK  Name = 
REMARK  18 active torsions:
REMARK  status: ('A' for Active; 'I' for Inactive)
REMARK    1  A    between atoms: C_1  and  C_2
REMARK    2  A    between atoms: C_2  and  C_3
REMARK    3  A    between atoms: C_3  and  C_4
REMARK    4  A    between atoms: C_4  and  C_5
REMARK    5  A    between atoms: C_5  and  C_6
REMARK    6  A    between atoms: C_6  and  C_7
REMARK    7  A    between atoms: C_7  and  C_8
REMARK    8  A    between atoms: C_7  and  C_9
REMARK    9  A    between atoms: C_7  and  C_10
REMARK   10  A    between atoms: C_12  and  O_13
REMARK   11  A    between atoms: O_13  and  C_14
REMARK   12  A    between atoms: C_15  and  C_16
REMARK   13  A    between atoms: C_17  and  O_18
REMARK   14  A    between atoms: C_19  and  C_20
REMARK   15  A    between atoms: C_24  and  C_25
REMARK   16  A    between atoms: C_24  and  C_26
REMARK   17  A    between atoms: C_27  and  O_28
REMARK   18  A    between atoms: O_28  and  C_29
REMARK                            x       y       z     vdW  Elec       q    Type
REMARK                         _______ _______ _______ _____ _____    ______ ____
ROOT
ATOM      1  C   UNL     1       1.801   7.475  19.703  0.00  0.00    +0.000 A 
ATOM      2  C   UNL     1       1.729   8.117  20.939  0.00  0.00    +0.000 A 
ATOM      3  C   UNL     1       1.283   9.442  21.066  0.00  0.00    +0.000 A 
ATOM      4  C   UNL     1       0.832  10.171  19.942  0.00  0.00    +0.000 A 
ATOM      5  C   UNL     1       0.813   9.490  18.701  0.00  0.00    +0.000 A 
ATOM      6  C   UNL     1       1.303   8.178  18.596  0.00  0.00    +0.000 A 
ENDROOT
BRANCH   4   7
ATOM      7  C   UNL     1       0.466  11.661  19.961  0.00  0.00    +0.000 C 
ATOM      8  C   UNL     1       1.130  12.583  21.026  0.00  0.00    +0.000 C 
ATOM      9  C   UNL     1      -0.080  13.408  21.577  0.00  0.00    +0.000 C 
ATOM     10  C   UNL     1       0.342  14.638  22.359  0.00  0.00    +0.000 C 
ATOM     11  C   UNL     1      -0.919  12.419  22.448  0.00  0.00    +0.000 C 
ATOM     12  C   UNL     1      -1.608  11.519  21.408  0.00  0.00    +0.000 C 
ATOM     13  C   UNL     1      -1.054  12.056  20.078  0.00  0.00    +0.000 C 
ATOM     14  C   UNL     1      -1.008  13.603  20.337  0.00  0.00    +0.000 C 
ATOM     15  C   UNL     1      -2.365  14.268  20.674  0.00  0.00    +0.000 C 
ATOM     16  C   UNL     1      -0.455  14.433  19.163  0.00  0.00    +0.000 C 
BRANCH   8  17
ATOM     17  O   UNL     1       2.175  13.371  20.453  0.00  0.00    +0.000 OA
ATOM     18  H   UNL     1       2.083  13.378  19.489  0.00  0.00    +0.000 HD
ENDBRANCH   8  17
ENDBRANCH   4   7
BRANCH   1  19
ATOM     19  C   UNL     1       2.374   6.059  19.538  0.00  0.00    +0.000 C 
ATOM     20  C   UNL     1       3.919   6.010  19.446  0.00  0.00    +0.000 C 
ATOM     21  C   UNL     1       1.847   5.474  18.205  0.00  0.00    +0.000 C 
BRANCH  19  22
ATOM     22  C   UNL     1       1.906   5.143  20.709  0.00  0.00    +0.000 C 
BRANCH  22  23
ATOM     23  C   UNL     1       0.892   4.075  20.285  0.00  0.00    +0.000 C 
BRANCH  23  24
ATOM     24  C   UNL     1       1.509   2.676  20.270  0.00  0.00    +0.000 C 
BRANCH  24  25
ATOM     25  C   UNL     1       2.880   2.708  20.936  0.00  0.00    +0.000 C 
BRANCH  25  27
ATOM     26  C   UNL     1       3.413   1.777  18.668  0.00  0.00    +0.000 C 
ATOM     27  C   UNL     1       3.991   2.353  19.950  0.00  0.00    +0.000 C 
ENDBRANCH  25  27
ENDBRANCH  24  25
ENDBRANCH  23  24
ENDBRANCH  22  23
ENDBRANCH  19  22
ENDBRANCH   1  19
BRANCH   3  28
ATOM     28  O   UNL     1       1.222  10.021  22.307  0.00  0.00    +0.000 OA
ATOM     29  C   UNL     1       0.472   9.329  23.303  0.00  0.00    +0.000 C 
ENDBRANCH   3  28
BRANCH   5  30
ATOM     30  O   UNL     1       0.287  10.170  17.626  0.00  0.00    +0.000 OA
ATOM     31  C   UNL     1      -1.064   9.878  17.280  0.00  0.00    +0.000 C 
ENDBRANCH   5  30
TORSDOF 10
ENDMDL
MODEL 5
REMARK VINA RESULT:      -5.7      3.645      8.844
REMARK  Name = 
REMARK  18 active torsions:
REMARK  status: ('A' for Active; 'I' for Inactive)
REMARK    1  A    between atoms: C_1  and  C_2
REMARK    2  A    between atoms: C_2  and  C_3
REMARK    3  A    between atoms: C_3  and  C_4
REMARK    4  A    between atoms: C_4  and  C_5
REMARK    5  A    between atoms: C_5  and  C_6
REMARK    6  A    between atoms: C_6  and  C_7
REMARK    7  A    between atoms: C_7  and  C_8
REMARK    8  A    between atoms: C_7  and  C_9
REMARK    9  A    between atoms: C_7  and  C_10
REMARK   10  A    between atoms: C_12  and  O_13
REMARK   11  A    between atoms: O_13  and  C_14
REMARK   12  A    between atoms: C_15  and  C_16
REMARK   13  A    between atoms: C_17  and  O_18
REMARK   14  A    between atoms: C_19  and  C_20
REMARK   15  A    between atoms: C_24  and  C_25
REMARK   16  A    between atoms: C_24  and  C_26
REMARK   17  A    between atoms: C_27  and  O_28
REMARK   18  A    between atoms: O_28  and  C_29
REMARK                            x       y       z     vdW  Elec       q    Type
REMARK                         _______ _______ _______ _____ _____    ______ ____
ROOT
ATOM      1  C   UNL     1       0.261  10.258  19.555  0.00  0.00    +0.000 A 
ATOM      2  C   UNL     1       0.436  10.151  20.935  0.00  0.00    +0.000 A 
ATOM      3  C   UNL     1      -0.396  10.821  21.845  0.00  0.00    +0.000 A 
ATOM      4  C   UNL     1      -1.492  11.595  21.401  0.00  0.00    +0.000 A 
ATOM      5  C   UNL     1      -1.730  11.627  20.006  0.00  0.00    +0.000 A 
ATOM      6  C   UNL     1      -0.857  10.981  19.115  0.00  0.00    +0.000 A 
ENDROOT
BRANCH   4   7
ATOM      7  C   UNL     1      -2.363  12.474  22.308  0.00  0.00    +0.000 C 
ATOM      8  C   UNL     1      -3.649  13.121  21.713  0.00  0.00    +0.000 C 
ATOM      9  C   UNL     1      -3.562  14.598  22.221  0.00  0.00    +0.000 C 
ATOM     10  C   UNL     1      -4.875  15.351  22.097  0.00  0.00    +0.000 C 
ATOM     11  C   UNL     1      -2.420  15.274  21.397  0.00  0.00    +0.000 C 
ATOM     12  C   UNL     1      -1.139  14.669  21.994  0.00  0.00    +0.000 C 
ATOM     13  C   UNL     1      -1.688  13.689  23.045  0.00  0.00    +0.000 C 
ATOM     14  C   UNL     1      -2.909  14.482  23.633  0.00  0.00    +0.000 C 
ATOM     15  C   UNL     1      -2.573  15.849  24.278  0.00  0.00    +0.000 C 
ATOM     16  C   UNL     1      -3.699  13.728  24.719  0.00  0.00    +0.000 C 
BRANCH   8  17
ATOM     17  O   UNL     1      -4.823  12.419  22.125  0.00  0.00    +0.000 OA
ATOM     18  H   UNL     1      -5.138  11.861  21.398  0.00  0.00    +0.000 HD
ENDBRANCH   8  17
ENDBRANCH   4   7
BRANCH   1  19
ATOM     19  C   UNL     1       1.220   9.606  18.547  0.00  0.00    +0.000 C 
ATOM     20  C   UNL     1       2.252  10.585  17.935  0.00  0.00    +0.000 C 
ATOM     21  C   UNL     1       0.383   9.070  17.360  0.00  0.00    +0.000 C 
BRANCH  19  22
ATOM     22  C   UNL     1       1.978   8.417  19.208  0.00  0.00    +0.000 C 
BRANCH  22  23
ATOM     23  C   UNL     1       2.490   7.381  18.202  0.00  0.00    +0.000 C 
BRANCH  23  24
ATOM     24  C   UNL     1       2.560   5.979  18.810  0.00  0.00    +0.000 C 
BRANCH  24  25
ATOM     25  C   UNL     1       2.037   6.010  20.241  0.00  0.00    +0.000 C 
BRANCH  25  27
ATOM     26  C   UNL     1       0.919   3.765  20.173  0.00  0.00    +0.000 C 
ATOM     27  C   UNL     1       1.985   4.610  20.850  0.00  0.00    +0.000 C 
ENDBRANCH  25  27
ENDBRANCH  24  25
ENDBRANCH  23  24
ENDBRANCH  22  23
ENDBRANCH  19  22
ENDBRANCH   1  19
BRANCH   3  28
ATOM     28  O   UNL     1      -0.186  10.673  23.192  0.00  0.00    +0.000 OA
ATOM     29  C   UNL     1       0.191   9.375  23.645  0.00  0.00    +0.000 C 
ENDBRANCH   3  28
BRANCH   5  30
ATOM     30  O   UNL     1      -2.851  12.305  19.581  0.00  0.00    +0.000 OA
ATOM     31  C   UNL     1      -3.583  11.723  18.506  0.00  0.00    +0.000 C 
ENDBRANCH   5  30
TORSDOF 10
ENDMDL
MODEL 6
REMARK VINA RESULT:      -5.7      2.196      7.781
REMARK  Name = 
REMARK  18 active torsions:
REMARK  status: ('A' for Active; 'I' for Inactive)
REMARK    1  A    between atoms: C_1  and  C_2
REMARK    2  A    between atoms: C_2  and  C_3
REMARK    3  A    between atoms: C_3  and  C_4
REMARK    4  A    between atoms: C_4  and  C_5
REMARK    5  A    between atoms: C_5  and  C_6
REMARK    6  A    between atoms: C_6  and  C_7
REMARK    7  A    between atoms: C_7  and  C_8
REMARK    8  A    between atoms: C_7  and  C_9
REMARK    9  A    between atoms: C_7  and  C_10
REMARK   10  A    between atoms: C_12  and  O_13
REMARK   11  A    between atoms: O_13  and  C_14
REMARK   12  A    between atoms: C_15  and  C_16
REMARK   13  A    between atoms: C_17  and  O_18
REMARK   14  A    between atoms: C_19  and  C_20
REMARK   15  A    between atoms: C_24  and  C_25
REMARK   16  A    between atoms: C_24  and  C_26
REMARK   17  A    between atoms: C_27  and  O_28
REMARK   18  A    between atoms: O_28  and  C_29
REMARK                            x       y       z     vdW  Elec       q    Type
REMARK                         _______ _______ _______ _____ _____    ______ ____
ROOT
ATOM      1  C   UNL     1       2.281   7.960  18.834  0.00  0.00    +0.000 A 
ATOM      2  C   UNL     1       2.376   9.136  18.090  0.00  0.00    +0.000 A 
ATOM      3  C   UNL     1       1.653  10.291  18.427  0.00  0.00    +0.000 A 
ATOM      4  C   UNL     1       0.833  10.329  19.578  0.00  0.00    +0.000 A 
ATOM      5  C   UNL     1       0.811   9.169  20.388  0.00  0.00    +0.000 A 
ATOM      6  C   UNL     1       1.511   8.014  20.005  0.00  0.00    +0.000 A 
ENDROOT
BRANCH   4   7
ATOM      7  C   UNL     1      -0.100  11.491  19.944  0.00  0.00    +0.000 C 
ATOM      8  C   UNL     1      -0.357  12.608  18.889  0.00  0.00    +0.000 C 
ATOM      9  C   UNL     1      -0.197  13.921  19.724  0.00  0.00    +0.000 C 
ATOM     10  C   UNL     1      -0.760  15.145  19.027  0.00  0.00    +0.000 C 
ATOM     11  C   UNL     1       1.330  14.065  20.019  0.00  0.00    +0.000 C 
ATOM     12  C   UNL     1       1.595  12.988  21.084  0.00  0.00    +0.000 C 
ATOM     13  C   UNL     1       0.217  12.324  21.242  0.00  0.00    +0.000 C 
ATOM     14  C   UNL     1      -0.757  13.550  21.133  0.00  0.00    +0.000 C 
ATOM     15  C   UNL     1      -0.559  14.661  22.193  0.00  0.00    +0.000 C 
ATOM     16  C   UNL     1      -2.252  13.191  21.228  0.00  0.00    +0.000 C 
BRANCH   8  17
ATOM     17  O   UNL     1      -1.633  12.451  18.265  0.00  0.00    +0.000 OA
ATOM     18  H   UNL     1      -2.027  11.611  18.543  0.00  0.00    +0.000 HD
ENDBRANCH   8  17
ENDBRANCH   4   7
BRANCH   1  19
ATOM     19  C   UNL     1       2.993   6.662  18.424  0.00  0.00    +0.000 C 
ATOM     20  C   UNL     1       3.709   5.939  19.592  0.00  0.00    +0.000 C 
ATOM     21  C   UNL     1       4.098   7.018  17.399  0.00  0.00    +0.000 C 
BRANCH  19  22
ATOM     22  C   UNL     1       1.988   5.676  17.757  0.00  0.00    +0.000 C 
BRANCH  22  23
ATOM     23  C   UNL     1       1.469   4.593  18.709  0.00  0.00    +0.000 C 
BRANCH  23  24
ATOM     24  C   UNL     1       1.781   3.186  18.197  0.00  0.00    +0.000 C 
BRANCH  24  25
ATOM     25  C   UNL     1       1.545   2.168  19.306  0.00  0.00    +0.000 C 
BRANCH  25  27
ATOM     26  C   UNL     1       2.368   2.743  21.606  0.00  0.00    +0.000 C 
ATOM     27  C   UNL     1       1.207   2.850  20.631  0.00  0.00    +0.000 C 
ENDBRANCH  25  27
ENDBRANCH  24  25
ENDBRANCH  23  24
ENDBRANCH  22  23
ENDBRANCH  19  22
ENDBRANCH   1  19
BRANCH   3  28
ATOM     28  O   UNL     1       1.791  11.423  17.667  0.00  0.00    +0.000 OA
ATOM     29  C   UNL     1       3.017  12.140  17.798  0.00  0.00    +0.000 C 
ENDBRANCH   3  28
BRANCH   5  30
ATOM     30  O   UNL     1       0.086   9.240  21.557  0.00  0.00    +0.000 OA
ATOM     31  C   UNL     1       0.825   9.195  22.774  0.00  0.00    +0.000 C 
ENDBRANCH   5  30
TORSDOF 10
ENDMDL
MODEL 7
REMARK VINA RESULT:      -5.7      1.677      3.388
REMARK  Name = 
REMARK  18 active torsions:
REMARK  status: ('A' for Active; 'I' for Inactive)
REMARK    1  A    between atoms: C_1  and  C_2
REMARK    2  A    between atoms: C_2  and  C_3
REMARK    3  A    between atoms: C_3  and  C_4
REMARK    4  A    between atoms: C_4  and  C_5
REMARK    5  A    between atoms: C_5  and  C_6
REMARK    6  A    between atoms: C_6  and  C_7
REMARK    7  A    between atoms: C_7  and  C_8
REMARK    8  A    between atoms: C_7  and  C_9
REMARK    9  A    between atoms: C_7  and  C_10
REMARK   10  A    between atoms: C_12  and  O_13
REMARK   11  A    between atoms: O_13  and  C_14
REMARK   12  A    between atoms: C_15  and  C_16
REMARK   13  A    between atoms: C_17  and  O_18
REMARK   14  A    between atoms: C_19  and  C_20
REMARK   15  A    between atoms: C_24  and  C_25
REMARK   16  A    between atoms: C_24  and  C_26
REMARK   17  A    between atoms: C_27  and  O_28
REMARK   18  A    between atoms: O_28  and  C_29
REMARK                            x       y       z     vdW  Elec       q    Type
REMARK                         _______ _______ _______ _____ _____    ______ ____
ROOT
ATOM      1  C   UNL     1       1.238   8.339  20.830  0.00  0.00    +0.000 A 
ATOM      2  C   UNL     1       1.673   8.852  19.608  0.00  0.00    +0.000 A 
ATOM      3  C   UNL     1       2.256   8.037  18.624  0.00  0.00    +0.000 A 
ATOM      4  C   UNL     1       2.377   6.642  18.809  0.00  0.00    +0.000 A 
ATOM      5  C   UNL     1       1.847   6.105  20.007  0.00  0.00    +0.000 A 
ATOM      6  C   UNL     1       1.307   6.948  20.992  0.00  0.00    +0.000 A 
ENDROOT
BRANCH   4   7
ATOM      7  C   UNL     1       3.125   5.698  17.858  0.00  0.00    +0.000 C 
ATOM      8  C   UNL     1       2.878   4.165  17.975  0.00  0.00    +0.000 C 
ATOM      9  C   UNL     1       4.326   3.574  17.931  0.00  0.00    +0.000 C 
ATOM     10  C   UNL     1       4.354   2.083  17.653  0.00  0.00    +0.000 C 
ATOM     11  C   UNL     1       4.981   3.927  19.305  0.00  0.00    +0.000 C 
ATOM     12  C   UNL     1       5.261   5.435  19.194  0.00  0.00    +0.000 C 
ATOM     13  C   UNL     1       4.696   5.781  17.805  0.00  0.00    +0.000 C 
ATOM     14  C   UNL     1       5.098   4.521  16.960  0.00  0.00    +0.000 C 
ATOM     15  C   UNL     1       6.615   4.224  16.877  0.00  0.00    +0.000 C 
ATOM     16  C   UNL     1       4.633   4.560  15.492  0.00  0.00    +0.000 C 
BRANCH   8  17
ATOM     17  O   UNL     1       2.013   3.697  16.939  0.00  0.00    +0.000 OA
ATOM     18  H   UNL     1       1.967   2.730  16.969  0.00  0.00    +0.000 HD
ENDBRANCH   8  17
ENDBRANCH   4   7
BRANCH   1  19
ATOM     19  C   UNL     1       0.684   9.232  21.951  0.00  0.00    +0.000 C 
ATOM     20  C   UNL     1       1.529   9.212  23.249  0.00  0.00    +0.000 C 
ATOM     21  C   UNL     1      -0.717   8.704  22.344  0.00  0.00    +0.000 C 
BRANCH  19  22
ATOM     22  C   UNL     1       0.547  10.703  21.457  0.00  0.00    +0.000 C 
BRANCH  22  23
ATOM     23  C   UNL     1      -0.782  10.993  20.752  0.00  0.00    +0.000 C 
BRANCH  23  24
ATOM     24  C   UNL     1      -0.653  12.125  19.732  0.00  0.00    +0.000 C 
BRANCH  24  25
ATOM     25  C   UNL     1      -1.406  11.762  18.457  0.00  0.00    +0.000 C 
BRANCH  25  27
ATOM     26  C   UNL     1      -2.137   9.908  16.933  0.00  0.00    +0.000 C 
ATOM     27  C   UNL     1      -1.310  10.267  18.156  0.00  0.00    +0.000 C 
ENDBRANCH  25  27
ENDBRANCH  24  25
ENDBRANCH  23  24
ENDBRANCH  22  23
ENDBRANCH  19  22
ENDBRANCH   1  19
BRANCH   3  28
ATOM     28  O   UNL     1       2.658   8.591  17.436  0.00  0.00    +0.000 OA
ATOM     29  C   UNL     1       2.544  10.008  17.317  0.00  0.00    +0.000 C 
ENDBRANCH   3  28
BRANCH   5  30
ATOM     30  O   UNL     1       1.882   4.736  20.145  0.00  0.00    +0.000 OA
ATOM     31  C   UNL     1       2.095   4.228  21.459  0.00  0.00    +0.000 C 
ENDBRANCH   5  30
TORSDOF 10
ENDMDL
MODEL 8
REMARK VINA RESULT:      -5.6      1.639      7.369
REMARK  Name = 
REMARK  18 active torsions:
REMARK  status: ('A' for Active; 'I' for Inactive)
REMARK    1  A    between atoms: C_1  and  C_2
REMARK    2  A    between atoms: C_2  and  C_3
REMARK    3  A    between atoms: C_3  and  C_4
REMARK    4  A    between atoms: C_4  and  C_5
REMARK    5  A    between atoms: C_5  and  C_6
REMARK    6  A    between atoms: C_6  and  C_7
REMARK    7  A    between atoms: C_7  and  C_8
REMARK    8  A    between atoms: C_7  and  C_9
REMARK    9  A    between atoms: C_7  and  C_10
REMARK   10  A    between atoms: C_12  and  O_13
REMARK   11  A    between atoms: O_13  and  C_14
REMARK   12  A    between atoms: C_15  and  C_16
REMARK   13  A    between atoms: C_17  and  O_18
REMARK   14  A    between atoms: C_19  and  C_20
REMARK   15  A    between atoms: C_24  and  C_25
REMARK   16  A    between atoms: C_24  and  C_26
REMARK   17  A    between atoms: C_27  and  O_28
REMARK   18  A    between atoms: O_28  and  C_29
REMARK                            x       y       z     vdW  Elec       q    Type
REMARK                         _______ _______ _______ _____ _____    ______ ____
ROOT
ATOM      1  C   UNL     1       1.979   5.732  20.064  0.00  0.00    +0.000 A 
ATOM      2  C   UNL     1       2.497   6.378  18.942  0.00  0.00    +0.000 A 
ATOM      3  C   UNL     1       2.358   7.761  18.749  0.00  0.00    +0.000 A 
ATOM      4  C   UNL     1       1.730   8.575  19.719  0.00  0.00    +0.000 A 
ATOM      5  C   UNL     1       1.289   7.936  20.903  0.00  0.00    +0.000 A 
ATOM      6  C   UNL     1       1.404   6.545  21.052  0.00  0.00    +0.000 A 
ENDROOT
BRANCH   4   7
ATOM      7  C   UNL     1       1.407  10.063  19.531  0.00  0.00    +0.000 C 
ATOM      8  C   UNL     1       0.766  10.846  20.715  0.00  0.00    +0.000 C 
ATOM      9  C   UNL     1      -0.392  11.638  20.024  0.00  0.00    +0.000 C 
ATOM     10  C   UNL     1      -0.941  12.764  20.880  0.00  0.00    +0.000 C 
ATOM     11  C   UNL     1      -1.489  10.583  19.671  0.00  0.00    +0.000 C 
ATOM     12  C   UNL     1      -0.885   9.819  18.480  0.00  0.00    +0.000 C 
ATOM     13  C   UNL     1       0.494  10.483  18.320  0.00  0.00    +0.000 C 
ATOM     14  C   UNL     1       0.173  11.992  18.613  0.00  0.00    +0.000 C 
ATOM     15  C   UNL     1      -0.867  12.651  17.674  0.00  0.00    +0.000 C 
ATOM     16  C   UNL     1       1.393  12.929  18.554  0.00  0.00    +0.000 C 
BRANCH   8  17
ATOM     17  O   UNL     1       1.730  11.664  21.381  0.00  0.00    +0.000 OA
ATOM     18  H   UNL     1       2.404  11.950  20.746  0.00  0.00    +0.000 HD
ENDBRANCH   8  17
ENDBRANCH   4   7
BRANCH   1  19
ATOM     19  C   UNL     1       2.042   4.207  20.243  0.00  0.00    +0.000 C 
ATOM     20  C   UNL     1       0.818   3.453  19.665  0.00  0.00    +0.000 C 
ATOM     21  C   UNL     1       2.058   3.897  21.760  0.00  0.00    +0.000 C 
BRANCH  19  22
ATOM     22  C   UNL     1       3.340   3.637  19.598  0.00  0.00    +0.000 C 
BRANCH  22  23
ATOM     23  C   UNL     1       3.106   2.376  18.760  0.00  0.00    +0.000 C 
BRANCH  23  24
ATOM     24  C   UNL     1       3.841   2.436  17.420  0.00  0.00    +0.000 C 
BRANCH  24  25
ATOM     25  C   UNL     1       3.976   3.886  16.969  0.00  0.00    +0.000 C 
BRANCH  25  27
ATOM     26  C   UNL     1       5.516   4.258  15.023  0.00  0.00    +0.000 C 
ATOM     27  C   UNL     1       5.406   4.208  16.538  0.00  0.00    +0.000 C 
ENDBRANCH  25  27
ENDBRANCH  24  25
ENDBRANCH  23  24
ENDBRANCH  22  23
ENDBRANCH  19  22
ENDBRANCH   1  19
BRANCH   3  28
ATOM     28  O   UNL     1       2.896   8.347  17.632  0.00  0.00    +0.000 OA
ATOM     29  C   UNL     1       3.903   7.611  16.942  0.00  0.00    +0.000 C 
ENDBRANCH   3  28
BRANCH   5  30
ATOM     30  O   UNL     1       0.762   8.743  21.886  0.00  0.00    +0.000 OA
ATOM     31  C   UNL     1      -0.548   8.423  22.345  0.00  0.00    +0.000 C 
ENDBRANCH   5  30
TORSDOF 10
ENDMDL
MODEL 9
REMARK VINA RESULT:      -5.6      3.747      8.714
REMARK  Name = 
REMARK  18 active torsions:
REMARK  status: ('A' for Active; 'I' for Inactive)
REMARK    1  A    between atoms: C_1  and  C_2
REMARK    2  A    between atoms: C_2  and  C_3
REMARK    3  A    between atoms: C_3  and  C_4
REMARK    4  A    between atoms: C_4  and  C_5
REMARK    5  A    between atoms: C_5  and  C_6
REMARK    6  A    between atoms: C_6  and  C_7
REMARK    7  A    between atoms: C_7  and  C_8
REMARK    8  A    between atoms: C_7  and  C_9
REMARK    9  A    between atoms: C_7  and  C_10
REMARK   10  A    between atoms: C_12  and  O_13
REMARK   11  A    between atoms: O_13  and  C_14
REMARK   12  A    between atoms: C_15  and  C_16
REMARK   13  A    between atoms: C_17  and  O_18
REMARK   14  A    between atoms: C_19  and  C_20
REMARK   15  A    between atoms: C_24  and  C_25
REMARK   16  A    between atoms: C_24  and  C_26
REMARK   17  A    between atoms: C_27  and  O_28
REMARK   18  A    between atoms: O_28  and  C_29
REMARK                            x       y       z     vdW  Elec       q    Type
REMARK                         _______ _______ _______ _____ _____    ______ ____
ROOT
ATOM      1  C   UNL     1       0.291  10.273  19.436  0.00  0.00    +0.000 A 
ATOM      2  C   UNL     1      -0.743  11.082  18.966  0.00  0.00    +0.000 A 
ATOM      3  C   UNL     1      -1.643  11.719  19.835  0.00  0.00    +0.000 A 
ATOM      4  C   UNL     1      -1.505  11.613  21.237  0.00  0.00    +0.000 A 
ATOM      5  C   UNL     1      -0.398  10.872  21.718  0.00  0.00    +0.000 A 
ATOM      6  C   UNL     1       0.462  10.211  20.827  0.00  0.00    +0.000 A 
ENDROOT
BRANCH   4   7
ATOM      7  C   UNL     1      -2.518  12.152  22.256  0.00  0.00    +0.000 C 
ATOM      8  C   UNL     1      -3.743  12.962  21.738  0.00  0.00    +0.000 C 
ATOM      9  C   UNL     1      -3.779  14.194  22.702  0.00  0.00    +0.000 C 
ATOM     10  C   UNL     1      -5.094  14.950  22.656  0.00  0.00    +0.000 C 
ATOM     11  C   UNL     1      -2.570  15.096  22.298  0.00  0.00    +0.000 C 
ATOM     12  C   UNL     1      -1.351  14.325  22.831  0.00  0.00    +0.000 C 
ATOM     13  C   UNL     1      -1.989  13.059  23.428  0.00  0.00    +0.000 C 
ATOM     14  C   UNL     1      -3.304  13.622  24.074  0.00  0.00    +0.000 C 
ATOM     15  C   UNL     1      -3.107  14.704  25.163  0.00  0.00    +0.000 C 
ATOM     16  C   UNL     1      -4.194  12.559  24.744  0.00  0.00    +0.000 C 
BRANCH   8  17
ATOM     17  O   UNL     1      -4.931  12.168  21.742  0.00  0.00    +0.000 OA
ATOM     18  H   UNL     1      -5.397  12.288  22.583  0.00  0.00    +0.000 HD
ENDBRANCH   8  17
ENDBRANCH   4   7
BRANCH   1  19
ATOM     19  C   UNL     1       1.226   9.496  18.496  0.00  0.00    +0.000 C 
ATOM     20  C   UNL     1       2.351  10.358  17.872  0.00  0.00    +0.000 C 
ATOM     21  C   UNL     1       0.386   8.964  17.309  0.00  0.00    +0.000 C 
BRANCH  19  22
ATOM     22  C   UNL     1       1.866   8.288  19.242  0.00  0.00    +0.000 C 
BRANCH  22  23
ATOM     23  C   UNL     1       2.782   7.435  18.357  0.00  0.00    +0.000 C 
BRANCH  23  24
ATOM     24  C   UNL     1       2.360   5.966  18.346  0.00  0.00    +0.000 C 
BRANCH  24  25
ATOM     25  C   UNL     1       3.426   5.116  19.027  0.00  0.00    +0.000 C 
BRANCH  25  27
ATOM     26  C   UNL     1       1.477   4.788  20.573  0.00  0.00    +0.000 C 
ATOM     27  C   UNL     1       2.830   4.252  20.137  0.00  0.00    +0.000 C 
ENDBRANCH  25  27
ENDBRANCH  24  25
ENDBRANCH  23  24
ENDBRANCH  22  23
ENDBRANCH  19  22
ENDBRANCH   1  19
BRANCH   3  28
ATOM     28  O   UNL     1      -2.636  12.512  19.320  0.00  0.00    +0.000 OA
ATOM     29  C   UNL     1      -3.524  11.904  18.385  0.00  0.00    +0.000 C 
ENDBRANCH   3  28
BRANCH   5  30
ATOM     30  O   UNL     1      -0.212  10.846  23.082  0.00  0.00    +0.000 OA
ATOM     31  C   UNL     1       0.040   9.573  23.671  0.00  0.00    +0.000 C 
ENDBRANCH   5  30
TORSDOF 10
ENDMDL
