MODEL 1
REMARK VINA RESULT:      -6.9      0.000      0.000
REMARK  Name = 
REMARK  9 active torsions:
REMARK  status: ('A' for Active; 'I' for Inactive)
REMARK    1  A    between atoms: C_1  and  C_2
REMARK    2  A    between atoms: C_2  and  C_3
REMARK    3  A    between atoms: C_4  and  C_5
REMARK    4  A    between atoms: C_5  and  C_6
REMARK    5  A    between atoms: C_6  and  C_7
REMARK    6  A    between atoms: C_7  and  C_8
REMARK    7  A    between atoms: C_9  and  C_10
REMARK    8  A    between atoms: C_10  and  N_11
REMARK    9  A    between atoms: C_12  and  C_14
REMARK                            x       y       z     vdW  Elec       q    Type
REMARK                         _______ _______ _______ _____ _____    ______ ____
ROOT
ATOM      1  C   UNL     1       4.635   6.641  17.193  0.00  0.00    +0.000 C 
ENDROOT
BRANCH   1   2
ATOM      2  N   UNL     1       3.685   5.732  17.777  0.00  0.00    +0.000 N 
ATOM      3  C   UNL     1       3.983   5.099  18.965  0.00  0.00    +0.000 C 
ATOM      4  O   UNL     1       5.060   5.281  19.530  0.00  0.00    +0.000 OA
ATOM      5  H   UNL     1       2.786   5.575  17.340  0.00  0.00    +0.000 HD
BRANCH   3   6
ATOM      6  C   UNL     1       2.967   4.221  19.505  0.00  0.00    +0.000 A 
ATOM      7  C   UNL     1       1.599   4.419  19.466  0.00  0.00    +0.000 A 
ATOM      8  N   UNL     1       0.828   3.436  20.047  0.00  0.00    +0.000 NA
ATOM      9  C   UNL     1       1.617   2.498  20.525  0.00  0.00    +0.000 A 
ATOM     10  S   UNL     1       3.301   2.741  20.304  0.00  0.00    +0.000 S 
ENDBRANCH   3   6
ENDBRANCH   1   2
BRANCH   1  13
ATOM     11  C   UNL     1       6.307   5.422  15.716  0.00  0.00    +0.000 C 
ATOM     12  C   UNL     1       7.228   5.123  16.873  0.00  0.00    +0.000 C 
ATOM     13  C   UNL     1       5.139   6.073  15.903  0.00  0.00    +0.000 C 
BRANCH  11  14
ATOM     14  C   UNL     1       6.805   4.952  14.354  0.00  0.00    +0.000 C 
BRANCH  14  15
ATOM     15  C   UNL     1       6.183   3.647  13.835  0.00  0.00    +0.000 C 
BRANCH  15  19
ATOM     16  C   UNL     1       3.732   3.319  10.818  0.00  0.00    +0.000 C 
ATOM     17  C   UNL     1       4.890   3.055  11.739  0.00  0.00    +0.000 C 
ATOM     18  C   UNL     1       5.760   1.870  11.424  0.00  0.00    +0.000 C 
ATOM     19  C   UNL     1       5.121   3.865  12.792  0.00  0.00    +0.000 C 
ENDBRANCH  15  19
ENDBRANCH  14  15
ENDBRANCH  11  14
ENDBRANCH   1  13
TORSDOF 6
ENDMDL
MODEL 2
REMARK VINA RESULT:      -6.7      0.892      1.225
REMARK  Name = 
REMARK  9 active torsions:
REMARK  status: ('A' for Active; 'I' for Inactive)
REMARK    1  A    between atoms: C_1  and  C_2
REMARK    2  A    between atoms: C_2  and  C_3
REMARK    3  A    between atoms: C_4  and  C_5
REMARK    4  A    between atoms: C_5  and  C_6
REMARK    5  A    between atoms: C_6  and  C_7
REMARK    6  A    between atoms: C_7  and  C_8
REMARK    7  A    between atoms: C_9  and  C_10
REMARK    8  A    between atoms: C_10  and  N_11
REMARK    9  A    between atoms: C_12  and  C_14
REMARK                            x       y       z     vdW  Elec       q    Type
REMARK                         _______ _______ _______ _____ _____    ______ ____
ROOT
ATOM      1  C   UNL     1       4.763   6.613  17.276  0.00  0.00    +0.000 C 
ENDROOT
BRANCH   1   2
ATOM      2  N   UNL     1       3.708   5.779  17.787  0.00  0.00    +0.000 N 
ATOM      3  C   UNL     1       3.834   5.202  19.033  0.00  0.00    +0.000 C 
ATOM      4  O   UNL     1       4.844   5.371  19.714  0.00  0.00    +0.000 OA
ATOM      5  H   UNL     1       2.861   5.634  17.254  0.00  0.00    +0.000 HD
BRANCH   3   6
ATOM      6  C   UNL     1       2.721   4.399  19.492  0.00  0.00    +0.000 A 
ATOM      7  C   UNL     1       2.191   4.375  20.768  0.00  0.00    +0.000 A 
ATOM      8  N   UNL     1       1.122   3.527  20.964  0.00  0.00    +0.000 NA
ATOM      9  C   UNL     1       0.848   2.914  19.833  0.00  0.00    +0.000 A 
ATOM     10  S   UNL     1       1.842   3.315  18.494  0.00  0.00    +0.000 S 
ENDBRANCH   3   6
ENDBRANCH   1   2
BRANCH   1  13
ATOM     11  C   UNL     1       6.468   5.299  15.924  0.00  0.00    +0.000 C 
ATOM     12  C   UNL     1       7.302   4.981  17.142  0.00  0.00    +0.000 C 
ATOM     13  C   UNL     1       5.320   6.002  16.029  0.00  0.00    +0.000 C 
BRANCH  11  14
ATOM     14  C   UNL     1       7.029   4.785  14.603  0.00  0.00    +0.000 C 
BRANCH  14  15
ATOM     15  C   UNL     1       5.985   4.421  13.537  0.00  0.00    +0.000 C 
BRANCH  15  19
ATOM     16  C   UNL     1       6.058   1.429  11.035  0.00  0.00    +0.000 C 
ATOM     17  C   UNL     1       5.569   2.631  11.793  0.00  0.00    +0.000 C 
ATOM     18  C   UNL     1       4.226   3.187  11.407  0.00  0.00    +0.000 C 
ATOM     19  C   UNL     1       6.320   3.166  12.778  0.00  0.00    +0.000 C 
ENDBRANCH  15  19
ENDBRANCH  14  15
ENDBRANCH  11  14
ENDBRANCH   1  13
TORSDOF 6
ENDMDL
MODEL 3
REMARK VINA RESULT:      -6.6      1.297      1.805
REMARK  Name = 
REMARK  9 active torsions:
REMARK  status: ('A' for Active; 'I' for Inactive)
REMARK    1  A    between atoms: C_1  and  C_2
REMARK    2  A    between atoms: C_2  and  C_3
REMARK    3  A    between atoms: C_4  and  C_5
REMARK    4  A    between atoms: C_5  and  C_6
REMARK    5  A    between atoms: C_6  and  C_7
REMARK    6  A    between atoms: C_7  and  C_8
REMARK    7  A    between atoms: C_9  and  C_10
REMARK    8  A    between atoms: C_10  and  N_11
REMARK    9  A    between atoms: C_12  and  C_14
REMARK                            x       y       z     vdW  Elec       q    Type
REMARK                         _______ _______ _______ _____ _____    ______ ____
ROOT
ATOM      1  C   UNL     1       6.122   5.334  18.851  0.00  0.00    +0.000 C 
ENDROOT
BRANCH   1   2
ATOM      2  N   UNL     1       4.996   4.499  19.175  0.00  0.00    +0.000 N 
ATOM      3  C   UNL     1       3.747   5.062  19.325  0.00  0.00    +0.000 C 
ATOM      4  O   UNL     1       3.576   6.273  19.206  0.00  0.00    +0.000 OA
ATOM      5  H   UNL     1       5.107   3.497  19.265  0.00  0.00    +0.000 HD
BRANCH   3   6
ATOM      6  C   UNL     1       2.658   4.154  19.623  0.00  0.00    +0.000 A 
ATOM      7  C   UNL     1       2.377   3.575  20.846  0.00  0.00    +0.000 A 
ATOM      8  N   UNL     1       1.278   2.744  20.883  0.00  0.00    +0.000 NA
ATOM      9  C   UNL     1       0.733   2.699  19.687  0.00  0.00    +0.000 A 
ATOM     10  S   UNL     1       1.497   3.637  18.471  0.00  0.00    +0.000 S 
ENDBRANCH   3   6
ENDBRANCH   1   2
BRANCH   1  13
ATOM     11  C   UNL     1       6.266   5.400  16.314  0.00  0.00    +0.000 C 
ATOM     12  C   UNL     1       5.221   6.483  16.206  0.00  0.00    +0.000 C 
ATOM     13  C   UNL     1       6.669   4.936  17.517  0.00  0.00    +0.000 C 
BRANCH  11  14
ATOM     14  C   UNL     1       6.801   4.882  14.984  0.00  0.00    +0.000 C 
BRANCH  14  15
ATOM     15  C   UNL     1       5.739   4.392  13.989  0.00  0.00    +0.000 C 
BRANCH  15  19
ATOM     16  C   UNL     1       6.227   1.769  11.142  0.00  0.00    +0.000 C 
ATOM     17  C   UNL     1       5.600   2.838  11.992  0.00  0.00    +0.000 C 
ATOM     18  C   UNL     1       4.276   3.388  11.538  0.00  0.00    +0.000 C 
ATOM     19  C   UNL     1       6.216   3.264  13.114  0.00  0.00    +0.000 C 
ENDBRANCH  15  19
ENDBRANCH  14  15
ENDBRANCH  11  14
ENDBRANCH   1  13
TORSDOF 6
ENDMDL
MODEL 4
REMARK VINA RESULT:      -6.5      1.261      1.755
REMARK  Name = 
REMARK  9 active torsions:
REMARK  status: ('A' for Active; 'I' for Inactive)
REMARK    1  A    between atoms: C_1  and  C_2
REMARK    2  A    between atoms: C_2  and  C_3
REMARK    3  A    between atoms: C_4  and  C_5
REMARK    4  A    between atoms: C_5  and  C_6
REMARK    5  A    between atoms: C_6  and  C_7
REMARK    6  A    between atoms: C_7  and  C_8
REMARK    7  A    between atoms: C_9  and  C_10
REMARK    8  A    between atoms: C_10  and  N_11
REMARK    9  A    between atoms: C_12  and  C_14
REMARK                            x       y       z     vdW  Elec       q    Type
REMARK                         _______ _______ _______ _____ _____    ______ ____
ROOT
ATOM      1  C   UNL     1       5.928   5.580  18.750  0.00  0.00    +0.000 C 
ENDROOT
BRANCH   1   2
ATOM      2  N   UNL     1       4.585   5.077  18.858  0.00  0.00    +0.000 N 
ATOM      3  C   UNL     1       4.366   3.814  19.368  0.00  0.00    +0.000 C 
ATOM      4  O   UNL     1       5.302   3.098  19.717  0.00  0.00    +0.000 OA
ATOM      5  H   UNL     1       3.796   5.650  18.591  0.00  0.00    +0.000 HD
BRANCH   3   6
ATOM      6  C   UNL     1       2.987   3.387  19.473  0.00  0.00    +0.000 A 
ATOM      7  C   UNL     1       2.135   3.601  20.540  0.00  0.00    +0.000 A 
ATOM      8  N   UNL     1       0.858   3.101  20.406  0.00  0.00    +0.000 NA
ATOM      9  C   UNL     1       0.750   2.509  19.236  0.00  0.00    +0.000 A 
ATOM     10  S   UNL     1       2.153   2.522  18.248  0.00  0.00    +0.000 S 
ENDBRANCH   3   6
ENDBRANCH   1   2
BRANCH   1  13
ATOM     11  C   UNL     1       6.186   5.531  16.222  0.00  0.00    +0.000 C 
ATOM     12  C   UNL     1       5.156   6.616  16.019  0.00  0.00    +0.000 C 
ATOM     13  C   UNL     1       6.530   5.119  17.461  0.00  0.00    +0.000 C 
BRANCH  11  14
ATOM     14  C   UNL     1       6.774   4.949  14.942  0.00  0.00    +0.000 C 
BRANCH  14  15
ATOM     15  C   UNL     1       5.753   4.420  13.924  0.00  0.00    +0.000 C 
BRANCH  15  19
ATOM     16  C   UNL     1       6.367   1.773  11.124  0.00  0.00    +0.000 C 
ATOM     17  C   UNL     1       5.685   2.819  11.962  0.00  0.00    +0.000 C 
ATOM     18  C   UNL     1       4.324   3.275  11.516  0.00  0.00    +0.000 C 
ATOM     19  C   UNL     1       6.289   3.306  13.065  0.00  0.00    +0.000 C 
ENDBRANCH  15  19
ENDBRANCH  14  15
ENDBRANCH  11  14
ENDBRANCH   1  13
TORSDOF 6
ENDMDL
MODEL 5
REMARK VINA RESULT:      -6.3      1.211      1.411
REMARK  Name = 
REMARK  9 active torsions:
REMARK  status: ('A' for Active; 'I' for Inactive)
REMARK    1  A    between atoms: C_1  and  C_2
REMARK    2  A    between atoms: C_2  and  C_3
REMARK    3  A    between atoms: C_4  and  C_5
REMARK    4  A    between atoms: C_5  and  C_6
REMARK    5  A    between atoms: C_6  and  C_7
REMARK    6  A    between atoms: C_7  and  C_8
REMARK    7  A    between atoms: C_9  and  C_10
REMARK    8  A    between atoms: C_10  and  N_11
REMARK    9  A    between atoms: C_12  and  C_14
REMARK                            x       y       z     vdW  Elec       q    Type
REMARK                         _______ _______ _______ _____ _____    ______ ____
ROOT
ATOM      1  C   UNL     1       6.677   4.510  18.691  0.00  0.00    +0.000 C 
ENDROOT
BRANCH   1   2
ATOM      2  N   UNL     1       5.434   4.013  19.216  0.00  0.00    +0.000 N 
ATOM      3  C   UNL     1       4.351   4.859  19.331  0.00  0.00    +0.000 C 
ATOM      4  O   UNL     1       4.432   6.043  19.008  0.00  0.00    +0.000 OA
ATOM      5  H   UNL     1       5.336   3.040  19.476  0.00  0.00    +0.000 HD
BRANCH   3   6
ATOM      6  C   UNL     1       3.126   4.280  19.841  0.00  0.00    +0.000 A 
ATOM      7  C   UNL     1       1.919   4.928  20.021  0.00  0.00    +0.000 A 
ATOM      8  N   UNL     1       0.888   4.161  20.520  0.00  0.00    +0.000 NA
ATOM      9  C   UNL     1       1.321   2.935  20.714  0.00  0.00    +0.000 A 
ATOM     10  S   UNL     1       2.963   2.639  20.314  0.00  0.00    +0.000 S 
ENDBRANCH   3   6
ENDBRANCH   1   2
BRANCH   1  13
ATOM     11  C   UNL     1       6.862   5.499  16.356  0.00  0.00    +0.000 C 
ATOM     12  C   UNL     1       7.273   6.854  16.880  0.00  0.00    +0.000 C 
ATOM     13  C   UNL     1       6.638   4.465  17.196  0.00  0.00    +0.000 C 
BRANCH  11  14
ATOM     14  C   UNL     1       6.713   5.408  14.842  0.00  0.00    +0.000 C 
BRANCH  14  15
ATOM     15  C   UNL     1       6.442   4.002  14.286  0.00  0.00    +0.000 C 
BRANCH  15  19
ATOM     16  C   UNL     1       4.102   3.224  11.263  0.00  0.00    +0.000 C 
ATOM     17  C   UNL     1       5.329   3.273  12.130  0.00  0.00    +0.000 C 
ATOM     18  C   UNL     1       6.545   2.537  11.641  0.00  0.00    +0.000 C 
ATOM     19  C   UNL     1       5.315   3.961  13.290  0.00  0.00    +0.000 C 
ENDBRANCH  15  19
ENDBRANCH  14  15
ENDBRANCH  11  14
ENDBRANCH   1  13
TORSDOF 6
ENDMDL
MODEL 6
REMARK VINA RESULT:      -6.2      1.317      1.627
REMARK  Name = 
REMARK  9 active torsions:
REMARK  status: ('A' for Active; 'I' for Inactive)
REMARK    1  A    between atoms: C_1  and  C_2
REMARK    2  A    between atoms: C_2  and  C_3
REMARK    3  A    between atoms: C_4  and  C_5
REMARK    4  A    between atoms: C_5  and  C_6
REMARK    5  A    between atoms: C_6  and  C_7
REMARK    6  A    between atoms: C_7  and  C_8
REMARK    7  A    between atoms: C_9  and  C_10
REMARK    8  A    between atoms: C_10  and  N_11
REMARK    9  A    between atoms: C_12  and  C_14
REMARK                            x       y       z     vdW  Elec       q    Type
REMARK                         _______ _______ _______ _____ _____    ______ ____
ROOT
ATOM      1  C   UNL     1       4.531   6.493  17.503  0.00  0.00    +0.000 C 
ENDROOT
BRANCH   1   2
ATOM      2  N   UNL     1       4.060   5.424  18.342  0.00  0.00    +0.000 N 
ATOM      3  C   UNL     1       3.031   5.655  19.231  0.00  0.00    +0.000 C 
ATOM      4  O   UNL     1       2.518   6.767  19.335  0.00  0.00    +0.000 OA
ATOM      5  H   UNL     1       4.455   4.497  18.267  0.00  0.00    +0.000 HD
BRANCH   3   6
ATOM      6  C   UNL     1       2.591   4.525  20.021  0.00  0.00    +0.000 A 
ATOM      7  C   UNL     1       3.389   3.535  20.563  0.00  0.00    +0.000 A 
ATOM      8  N   UNL     1       2.738   2.559  21.285  0.00  0.00    +0.000 NA
ATOM      9  C   UNL     1       1.447   2.816  21.286  0.00  0.00    +0.000 A 
ATOM     10  S   UNL     1       0.954   4.221  20.435  0.00  0.00    +0.000 S 
ENDBRANCH   3   6
ENDBRANCH   1   2
BRANCH   1  13
ATOM     11  C   UNL     1       6.278   5.451  15.978  0.00  0.00    +0.000 C 
ATOM     12  C   UNL     1       7.305   5.371  17.082  0.00  0.00    +0.000 C 
ATOM     13  C   UNL     1       5.037   5.926  16.213  0.00  0.00    +0.000 C 
BRANCH  11  14
ATOM     14  C   UNL     1       6.758   4.975  14.611  0.00  0.00    +0.000 C 
BRANCH  14  15
ATOM     15  C   UNL     1       5.686   4.334  13.718  0.00  0.00    +0.000 C 
BRANCH  15  19
ATOM     16  C   UNL     1       6.261   1.551  11.045  0.00  0.00    +0.000 C 
ATOM     17  C   UNL     1       5.604   2.661  11.818  0.00  0.00    +0.000 C 
ATOM     18  C   UNL     1       4.281   3.161  11.310  0.00  0.00    +0.000 C 
ATOM     19  C   UNL     1       6.195   3.163  12.922  0.00  0.00    +0.000 C 
ENDBRANCH  15  19
ENDBRANCH  14  15
ENDBRANCH  11  14
ENDBRANCH   1  13
TORSDOF 6
ENDMDL
MODEL 7
REMARK VINA RESULT:      -6.2      3.080      6.941
REMARK  Name = 
REMARK  9 active torsions:
REMARK  status: ('A' for Active; 'I' for Inactive)
REMARK    1  A    between atoms: C_1  and  C_2
REMARK    2  A    between atoms: C_2  and  C_3
REMARK    3  A    between atoms: C_4  and  C_5
REMARK    4  A    between atoms: C_5  and  C_6
REMARK    5  A    between atoms: C_6  and  C_7
REMARK    6  A    between atoms: C_7  and  C_8
REMARK    7  A    between atoms: C_9  and  C_10
REMARK    8  A    between atoms: C_10  and  N_11
REMARK    9  A    between atoms: C_12  and  C_14
REMARK                            x       y       z     vdW  Elec       q    Type
REMARK                         _______ _______ _______ _____ _____    ______ ____
ROOT
ATOM      1  C   UNL     1       3.821   2.040  18.937  0.00  0.00    +0.000 C 
ENDROOT
BRANCH   1   2
ATOM      2  N   UNL     1       4.471   2.766  17.879  0.00  0.00    +0.000 N 
ATOM      3  C   UNL     1       5.413   3.725  18.184  0.00  0.00    +0.000 C 
ATOM      4  O   UNL     1       5.698   3.988  19.351  0.00  0.00    +0.000 OA
ATOM      5  H   UNL     1       4.265   2.560  16.910  0.00  0.00    +0.000 HD
BRANCH   3   6
ATOM      6  C   UNL     1       6.045   4.393  17.066  0.00  0.00    +0.000 A 
ATOM      7  C   UNL     1       6.845   5.518  17.122  0.00  0.00    +0.000 A 
ATOM      8  N   UNL     1       7.339   5.970  15.918  0.00  0.00    +0.000 NA
ATOM      9  C   UNL     1       6.909   5.184  14.955  0.00  0.00    +0.000 A 
ATOM     10  S   UNL     1       5.905   3.878  15.436  0.00  0.00    +0.000 S 
ENDBRANCH   3   6
ENDBRANCH   1   2
BRANCH   1  13
ATOM     11  C   UNL     1       1.718   3.270  19.666  0.00  0.00    +0.000 C 
ATOM     12  C   UNL     1       0.854   2.544  18.663  0.00  0.00    +0.000 C 
ATOM     13  C   UNL     1       3.035   2.992  19.783  0.00  0.00    +0.000 C 
BRANCH  11  14
ATOM     14  C   UNL     1       0.998   4.323  20.500  0.00  0.00    +0.000 C 
BRANCH  14  15
ATOM     15  C   UNL     1       1.768   5.634  20.720  0.00  0.00    +0.000 C 
BRANCH  15  19
ATOM     16  C   UNL     1       2.860   8.064  17.870  0.00  0.00    +0.000 C 
ATOM     17  C   UNL     1       2.216   7.554  19.130  0.00  0.00    +0.000 C 
ATOM     18  C   UNL     1       1.503   8.558  19.992  0.00  0.00    +0.000 C 
ATOM     19  C   UNL     1       2.284   6.244  19.446  0.00  0.00    +0.000 C 
ENDBRANCH  15  19
ENDBRANCH  14  15
ENDBRANCH  11  14
ENDBRANCH   1  13
TORSDOF 6
ENDMDL
MODEL 8
REMARK VINA RESULT:      -6.2      3.011      6.035
REMARK  Name = 
REMARK  9 active torsions:
REMARK  status: ('A' for Active; 'I' for Inactive)
REMARK    1  A    between atoms: C_1  and  C_2
REMARK    2  A    between atoms: C_2  and  C_3
REMARK    3  A    between atoms: C_4  and  C_5
REMARK    4  A    between atoms: C_5  and  C_6
REMARK    5  A    between atoms: C_6  and  C_7
REMARK    6  A    between atoms: C_7  and  C_8
REMARK    7  A    between atoms: C_9  and  C_10
REMARK    8  A    between atoms: C_10  and  N_11
REMARK    9  A    between atoms: C_12  and  C_14
REMARK                            x       y       z     vdW  Elec       q    Type
REMARK                         _______ _______ _______ _____ _____    ______ ____
ROOT
ATOM      1  C   UNL     1       2.998   6.499  19.499  0.00  0.00    +0.000 C 
ENDROOT
BRANCH   1   2
ATOM      2  N   UNL     1       3.776   6.315  18.303  0.00  0.00    +0.000 N 
ATOM      3  C   UNL     1       4.962   5.614  18.359  0.00  0.00    +0.000 C 
ATOM      4  O   UNL     1       5.381   5.156  19.420  0.00  0.00    +0.000 OA
ATOM      5  H   UNL     1       3.447   6.669  17.415  0.00  0.00    +0.000 HD
BRANCH   3   6
ATOM      6  C   UNL     1       5.674   5.444  17.110  0.00  0.00    +0.000 A 
ATOM      7  C   UNL     1       5.293   5.921  15.870  0.00  0.00    +0.000 A 
ATOM      8  N   UNL     1       6.142   5.634  14.824  0.00  0.00    +0.000 NA
ATOM      9  C   UNL     1       7.164   4.941  15.278  0.00  0.00    +0.000 A 
ATOM     10  S   UNL     1       7.161   4.602  16.959  0.00  0.00    +0.000 S 
ENDBRANCH   3   6
ENDBRANCH   1   2
BRANCH   1  13
ATOM     11  C   UNL     1       1.624   4.538  20.351  0.00  0.00    +0.000 C 
ATOM     12  C   UNL     1       2.549   4.298  21.519  0.00  0.00    +0.000 C 
ATOM     13  C   UNL     1       1.838   5.555  19.489  0.00  0.00    +0.000 C 
BRANCH  11  14
ATOM     14  C   UNL     1       0.469   3.551  20.227  0.00  0.00    +0.000 C 
BRANCH  14  15
ATOM     15  C   UNL     1       0.521   2.619  19.008  0.00  0.00    +0.000 C 
BRANCH  15  19
ATOM     16  C   UNL     1       4.069   1.233  18.163  0.00  0.00    +0.000 C 
ATOM     17  C   UNL     1       2.807   2.047  18.079  0.00  0.00    +0.000 C 
ATOM     18  C   UNL     1       2.745   3.108  17.015  0.00  0.00    +0.000 C 
ATOM     19  C   UNL     1       1.788   1.810  18.929  0.00  0.00    +0.000 C 
ENDBRANCH  15  19
ENDBRANCH  14  15
ENDBRANCH  11  14
ENDBRANCH   1  13
TORSDOF 6
ENDMDL
MODEL 9
REMARK VINA RESULT:      -6.2      3.045      7.028
REMARK  Name = 
REMARK  9 active torsions:
REMARK  status: ('A' for Active; 'I' for Inactive)
REMARK    1  A    between atoms: C_1  and  C_2
REMARK    2  A    between atoms: C_2  and  C_3
REMARK    3  A    between atoms: C_4  and  C_5
REMARK    4  A    between atoms: C_5  and  C_6
REMARK    5  A    between atoms: C_6  and  C_7
REMARK    6  A    between atoms: C_7  and  C_8
REMARK    7  A    between atoms: C_9  and  C_10
REMARK    8  A    between atoms: C_10  and  N_11
REMARK    9  A    between atoms: C_12  and  C_14
REMARK                            x       y       z     vdW  Elec       q    Type
REMARK                         _______ _______ _______ _____ _____    ______ ____
ROOT
ATOM      1  C   UNL     1       6.028   6.717  17.194  0.00  0.00    +0.000 C 
ENDROOT
BRANCH   1   2
ATOM      2  N   UNL     1       6.100   6.235  15.840  0.00  0.00    +0.000 N 
ATOM      3  C   UNL     1       6.955   5.201  15.526  0.00  0.00    +0.000 C 
ATOM      4  O   UNL     1       7.677   4.690  16.380  0.00  0.00    +0.000 OA
ATOM      5  H   UNL     1       5.507   6.629  15.121  0.00  0.00    +0.000 HD
BRANCH   3   6
ATOM      6  C   UNL     1       6.952   4.751  14.150  0.00  0.00    +0.000 A 
ATOM      7  C   UNL     1       7.775   5.196  13.134  0.00  0.00    +0.000 A 
ATOM      8  N   UNL     1       7.586   4.612  11.900  0.00  0.00    +0.000 NA
ATOM      9  C   UNL     1       6.618   3.725  11.990  0.00  0.00    +0.000 A 
ATOM     10  S   UNL     1       5.895   3.548  13.536  0.00  0.00    +0.000 S 
ENDBRANCH   3   6
ENDBRANCH   1   2
BRANCH   1  13
ATOM     11  C   UNL     1       3.766   5.748  17.829  0.00  0.00    +0.000 C 
ATOM     12  C   UNL     1       4.259   4.326  17.720  0.00  0.00    +0.000 C 
ATOM     13  C   UNL     1       4.596   6.792  17.620  0.00  0.00    +0.000 C 
BRANCH  11  14
ATOM     14  C   UNL     1       2.288   5.897  18.170  0.00  0.00    +0.000 C 
BRANCH  14  15
ATOM     15  C   UNL     1       1.501   4.583  18.297  0.00  0.00    +0.000 C 
BRANCH  15  19
ATOM     16  C   UNL     1       1.393   2.634  21.675  0.00  0.00    +0.000 C 
ATOM     17  C   UNL     1       1.549   2.920  20.207  0.00  0.00    +0.000 C 
ATOM     18  C   UNL     1       1.994   1.783  19.330  0.00  0.00    +0.000 C 
ATOM     19  C   UNL     1       1.288   4.151  19.723  0.00  0.00    +0.000 C 
ENDBRANCH  15  19
ENDBRANCH  14  15
ENDBRANCH  11  14
ENDBRANCH   1  13
TORSDOF 6
ENDMDL
