MODEL 1
REMARK VINA RESULT:      -7.5      0.000      0.000
REMARK  Name = 
REMARK  5 active torsions:
REMARK  status: ('A' for Active; 'I' for Inactive)
REMARK    1  A    between atoms: C_1  and  C_2
REMARK    2  A    between atoms: C_2  and  O_3
REMARK    3  A    between atoms: O_3  and  C_4
REMARK    4  A    between atoms: C_8  and  C_9
REMARK    5  A    between atoms: C_14  and  C_15
REMARK                            x       y       z     vdW  Elec       q    Type
REMARK                         _______ _______ _______ _____ _____    ______ ____
ROOT
ATOM      1  C   UNL     1       6.293   5.706  16.268  0.00  0.00    +0.000 C 
ATOM      2  O   UNL     1       5.885   6.106  15.180  0.00  0.00    +0.000 OA
ATOM      3  N   UNL     1       7.011   6.495  17.177  0.00  0.00    +0.000 N 
ATOM      4  N   UNL     1       7.238   7.854  16.953  0.00  0.00    +0.000 NA
ATOM      5  C   UNL     1       8.001   8.186  17.947  0.00  0.00    +0.000 A 
ATOM      6  O   UNL     1       8.320   7.181  18.807  0.00  0.00    +0.000 OA
ATOM      7  C   UNL     1       7.690   6.080  18.309  0.00  0.00    +0.000 A 
ATOM      8  O   UNL     1       7.761   4.982  18.828  0.00  0.00    +0.000 OA
ENDROOT
BRANCH   5   9
ATOM      9  C   UNL     1       8.573   9.460  18.314  0.00  0.00    +0.000 A 
ATOM     10  N   UNL     1       9.334   9.645  19.381  0.00  0.00    +0.000 NA
ATOM     11  C   UNL     1       9.602  10.987  19.379  0.00  0.00    +0.000 A 
ATOM     12  C   UNL     1      10.339  11.763  20.280  0.00  0.00    +0.000 A 
ATOM     13  C   UNL     1      10.441  13.141  20.048  0.00  0.00    +0.000 A 
ATOM     14  C   UNL     1       9.841  13.744  18.930  0.00  0.00    +0.000 A 
ATOM     15  C   UNL     1       9.977  15.234  18.750  0.00  0.00    +0.000 C 
ATOM     16  C   UNL     1       9.091  12.965  18.019  0.00  0.00    +0.000 A 
ATOM     17  C   UNL     1       9.004  11.594  18.287  0.00  0.00    +0.000 A 
ATOM     18  O   UNL     1       8.338  10.612  17.585  0.00  0.00    +0.000 OA
ENDBRANCH   5   9
BRANCH   1  19
ATOM     19  O   UNL     1       6.115   4.418  16.693  0.00  0.00    +0.000 OA
BRANCH  19  21
ATOM     20  C   UNL     1       3.886   4.613  17.706  0.00  0.00    +0.000 C 
ATOM     21  C   UNL     1       4.767   3.901  16.694  0.00  0.00    +0.000 C 
ENDBRANCH  19  21
ENDBRANCH   1  19
TORSDOF 3
ENDMDL
MODEL 2
REMARK VINA RESULT:      -7.1      0.880      1.447
REMARK  Name = 
REMARK  5 active torsions:
REMARK  status: ('A' for Active; 'I' for Inactive)
REMARK    1  A    between atoms: C_1  and  C_2
REMARK    2  A    between atoms: C_2  and  O_3
REMARK    3  A    between atoms: O_3  and  C_4
REMARK    4  A    between atoms: C_8  and  C_9
REMARK    5  A    between atoms: C_14  and  C_15
REMARK                            x       y       z     vdW  Elec       q    Type
REMARK                         _______ _______ _______ _____ _____    ______ ____
ROOT
ATOM      1  C   UNL     1       6.802   5.350  16.106  0.00  0.00    +0.000 C 
ATOM      2  O   UNL     1       6.651   5.623  14.917  0.00  0.00    +0.000 OA
ATOM      3  N   UNL     1       7.271   6.257  17.066  0.00  0.00    +0.000 N 
ATOM      4  N   UNL     1       7.516   7.596  16.757  0.00  0.00    +0.000 NA
ATOM      5  C   UNL     1       8.018   8.059  17.859  0.00  0.00    +0.000 A 
ATOM      6  O   UNL     1       8.150   7.159  18.871  0.00  0.00    +0.000 OA
ATOM      7  C   UNL     1       7.677   5.987  18.362  0.00  0.00    +0.000 A 
ATOM      8  O   UNL     1       7.648   4.950  18.996  0.00  0.00    +0.000 OA
ENDROOT
BRANCH   5   9
ATOM      9  C   UNL     1       8.462   9.388  18.209  0.00  0.00    +0.000 A 
ATOM     10  N   UNL     1       8.166  10.472  17.508  0.00  0.00    +0.000 NA
ATOM     11  C   UNL     1       8.828  11.483  18.150  0.00  0.00    +0.000 A 
ATOM     12  C   UNL     1       8.906  12.846  17.849  0.00  0.00    +0.000 A 
ATOM     13  C   UNL     1       9.683  13.671  18.673  0.00  0.00    +0.000 A 
ATOM     14  C   UNL     1      10.357  13.160  19.795  0.00  0.00    +0.000 A 
ATOM     15  C   UNL     1      11.189  14.100  20.630  0.00  0.00    +0.000 C 
ATOM     16  C   UNL     1      10.287  11.782  20.102  0.00  0.00    +0.000 A 
ATOM     17  C   UNL     1       9.508  10.988  19.250  0.00  0.00    +0.000 A 
ATOM     18  O   UNL     1       9.273   9.631  19.303  0.00  0.00    +0.000 OA
ENDBRANCH   5   9
BRANCH   1  19
ATOM     19  O   UNL     1       6.557   4.104  16.613  0.00  0.00    +0.000 OA
BRANCH  19  21
ATOM     20  C   UNL     1       4.165   4.473  17.022  0.00  0.00    +0.000 C 
ATOM     21  C   UNL     1       5.230   3.565  16.434  0.00  0.00    +0.000 C 
ENDBRANCH  19  21
ENDBRANCH   1  19
TORSDOF 3
ENDMDL
MODEL 3
REMARK VINA RESULT:      -7.0      5.452      6.824
REMARK  Name = 
REMARK  5 active torsions:
REMARK  status: ('A' for Active; 'I' for Inactive)
REMARK    1  A    between atoms: C_1  and  C_2
REMARK    2  A    between atoms: C_2  and  O_3
REMARK    3  A    between atoms: O_3  and  C_4
REMARK    4  A    between atoms: C_8  and  C_9
REMARK    5  A    between atoms: C_14  and  C_15
REMARK                            x       y       z     vdW  Elec       q    Type
REMARK                         _______ _______ _______ _____ _____    ______ ____
ROOT
ATOM      1  C   UNL     1       6.602   5.658  16.207  0.00  0.00    +0.000 C 
ATOM      2  O   UNL     1       7.518   6.469  16.325  0.00  0.00    +0.000 OA
ATOM      3  N   UNL     1       5.322   5.835  16.749  0.00  0.00    +0.000 N 
ATOM      4  N   UNL     1       4.952   7.016  17.394  0.00  0.00    +0.000 NA
ATOM      5  C   UNL     1       3.759   6.748  17.824  0.00  0.00    +0.000 A 
ATOM      6  O   UNL     1       3.298   5.498  17.546  0.00  0.00    +0.000 OA
ATOM      7  C   UNL     1       4.309   4.897  16.857  0.00  0.00    +0.000 A 
ATOM      8  O   UNL     1       4.248   3.753  16.448  0.00  0.00    +0.000 OA
ENDROOT
BRANCH   5   9
ATOM      9  C   UNL     1       2.813   7.561  18.552  0.00  0.00    +0.000 A 
ATOM     10  N   UNL     1       2.398   7.286  19.779  0.00  0.00    +0.000 NA
ATOM     11  C   UNL     1       1.480   8.262  20.054  0.00  0.00    +0.000 A 
ATOM     12  C   UNL     1       0.693   8.469  21.192  0.00  0.00    +0.000 A 
ATOM     13  C   UNL     1      -0.195   9.553  21.204  0.00  0.00    +0.000 A 
ATOM     14  C   UNL     1      -0.292  10.434  20.114  0.00  0.00    +0.000 A 
ATOM     15  C   UNL     1      -1.280  11.570  20.187  0.00  0.00    +0.000 C 
ATOM     16  C   UNL     1       0.496  10.227  18.959  0.00  0.00    +0.000 A 
ATOM     17  C   UNL     1       1.365   9.130  18.980  0.00  0.00    +0.000 A 
ATOM     18  O   UNL     1       2.231   8.688  18.002  0.00  0.00    +0.000 OA
ENDBRANCH   5   9
BRANCH   1  19
ATOM     19  O   UNL     1       6.754   4.465  15.556  0.00  0.00    +0.000 OA
BRANCH  19  21
ATOM     20  C   UNL     1       5.981   3.697  13.356  0.00  0.00    +0.000 C 
ATOM     21  C   UNL     1       6.999   4.512  14.134  0.00  0.00    +0.000 C 
ENDBRANCH  19  21
ENDBRANCH   1  19
TORSDOF 3
ENDMDL
MODEL 4
REMARK VINA RESULT:      -7.0      5.930      7.143
REMARK  Name = 
REMARK  5 active torsions:
REMARK  status: ('A' for Active; 'I' for Inactive)
REMARK    1  A    between atoms: C_1  and  C_2
REMARK    2  A    between atoms: C_2  and  O_3
REMARK    3  A    between atoms: O_3  and  C_4
REMARK    4  A    between atoms: C_8  and  C_9
REMARK    5  A    between atoms: C_14  and  C_15
REMARK                            x       y       z     vdW  Elec       q    Type
REMARK                         _______ _______ _______ _____ _____    ______ ____
ROOT
ATOM      1  C   UNL     1       5.430   5.602  16.147  0.00  0.00    +0.000 C 
ATOM      2  O   UNL     1       6.129   6.494  15.673  0.00  0.00    +0.000 OA
ATOM      3  N   UNL     1       4.362   5.825  17.027  0.00  0.00    +0.000 N 
ATOM      4  N   UNL     1       3.940   7.113  17.362  0.00  0.00    +0.000 NA
ATOM      5  C   UNL     1       3.022   6.893  18.250  0.00  0.00    +0.000 A 
ATOM      6  O   UNL     1       2.797   5.585  18.556  0.00  0.00    +0.000 OA
ATOM      7  C   UNL     1       3.669   4.888  17.774  0.00  0.00    +0.000 A 
ATOM      8  O   UNL     1       3.751   3.675  17.789  0.00  0.00    +0.000 OA
ENDROOT
BRANCH   5   9
ATOM      9  C   UNL     1       2.174   7.807  18.978  0.00  0.00    +0.000 A 
ATOM     10  N   UNL     1       1.746   8.961  18.490  0.00  0.00    +0.000 NA
ATOM     11  C   UNL     1       1.037   9.522  19.517  0.00  0.00    +0.000 A 
ATOM     12  C   UNL     1       0.375  10.752  19.593  0.00  0.00    +0.000 A 
ATOM     13  C   UNL     1      -0.267  11.094  20.790  0.00  0.00    +0.000 A 
ATOM     14  C   UNL     1      -0.273  10.225  21.894  0.00  0.00    +0.000 A 
ATOM     15  C   UNL     1      -0.969  10.663  23.157  0.00  0.00    +0.000 C 
ATOM     16  C   UNL     1       0.399   8.983  21.826  0.00  0.00    +0.000 A 
ATOM     17  C   UNL     1       1.036   8.680  20.617  0.00  0.00    +0.000 A 
ATOM     18  O   UNL     1       1.765   7.560  20.277  0.00  0.00    +0.000 OA
ENDBRANCH   5   9
BRANCH   1  19
ATOM     19  O   UNL     1       5.651   4.278  15.888  0.00  0.00    +0.000 OA
BRANCH  19  21
ATOM     20  C   UNL     1       5.724   3.846  13.472  0.00  0.00    +0.000 C 
ATOM     21  C   UNL     1       6.505   3.954  14.770  0.00  0.00    +0.000 C 
ENDBRANCH  19  21
ENDBRANCH   1  19
TORSDOF 3
ENDMDL
MODEL 5
REMARK VINA RESULT:      -6.9      5.533      7.298
REMARK  Name = 
REMARK  5 active torsions:
REMARK  status: ('A' for Active; 'I' for Inactive)
REMARK    1  A    between atoms: C_1  and  C_2
REMARK    2  A    between atoms: C_2  and  O_3
REMARK    3  A    between atoms: O_3  and  C_4
REMARK    4  A    between atoms: C_8  and  C_9
REMARK    5  A    between atoms: C_14  and  C_15
REMARK                            x       y       z     vdW  Elec       q    Type
REMARK                         _______ _______ _______ _____ _____    ______ ____
ROOT
ATOM      1  C   UNL     1       5.109   5.910  16.574  0.00  0.00    +0.000 C 
ATOM      2  O   UNL     1       5.434   6.700  15.692  0.00  0.00    +0.000 OA
ATOM      3  N   UNL     1       4.186   6.200  17.588  0.00  0.00    +0.000 N 
ATOM      4  N   UNL     1       3.478   7.402  17.617  0.00  0.00    +0.000 NA
ATOM      5  C   UNL     1       2.824   7.324  18.734  0.00  0.00    +0.000 A 
ATOM      6  O   UNL     1       3.036   6.195  19.465  0.00  0.00    +0.000 OA
ATOM      7  C   UNL     1       3.925   5.467  18.733  0.00  0.00    +0.000 A 
ATOM      8  O   UNL     1       4.352   4.384  19.090  0.00  0.00    +0.000 OA
ENDROOT
BRANCH   5   9
ATOM      9  C   UNL     1       1.887   8.237  19.345  0.00  0.00    +0.000 A 
ATOM     10  N   UNL     1       1.284   9.220  18.693  0.00  0.00    +0.000 NA
ATOM     11  C   UNL     1       0.544   9.859  19.650  0.00  0.00    +0.000 A 
ATOM     12  C   UNL     1      -0.278  10.986  19.553  0.00  0.00    +0.000 A 
ATOM     13  C   UNL     1      -0.915  11.451  20.712  0.00  0.00    +0.000 A 
ATOM     14  C   UNL     1      -0.758  10.801  21.947  0.00  0.00    +0.000 A 
ATOM     15  C   UNL     1      -1.458  11.365  23.157  0.00  0.00    +0.000 C 
ATOM     16  C   UNL     1       0.077   9.665  22.052  0.00  0.00    +0.000 A 
ATOM     17  C   UNL     1       0.702   9.234  20.876  0.00  0.00    +0.000 A 
ATOM     18  O   UNL     1       1.566   8.176  20.689  0.00  0.00    +0.000 OA
ENDBRANCH   5   9
BRANCH   1  19
ATOM     19  O   UNL     1       5.651   4.658  16.677  0.00  0.00    +0.000 OA
BRANCH  19  21
ATOM     20  C   UNL     1       7.572   5.273  18.078  0.00  0.00    +0.000 C 
ATOM     21  C   UNL     1       7.084   4.566  16.825  0.00  0.00    +0.000 C 
ENDBRANCH  19  21
ENDBRANCH   1  19
TORSDOF 3
ENDMDL
MODEL 6
REMARK VINA RESULT:      -6.9      5.821      7.185
REMARK  Name = 
REMARK  5 active torsions:
REMARK  status: ('A' for Active; 'I' for Inactive)
REMARK    1  A    between atoms: C_1  and  C_2
REMARK    2  A    between atoms: C_2  and  O_3
REMARK    3  A    between atoms: O_3  and  C_4
REMARK    4  A    between atoms: C_8  and  C_9
REMARK    5  A    between atoms: C_14  and  C_15
REMARK                            x       y       z     vdW  Elec       q    Type
REMARK                         _______ _______ _______ _____ _____    ______ ____
ROOT
ATOM      1  C   UNL     1       4.902   5.927  16.345  0.00  0.00    +0.000 C 
ATOM      2  O   UNL     1       5.228   6.815  15.561  0.00  0.00    +0.000 OA
ATOM      3  N   UNL     1       4.062   6.125  17.450  0.00  0.00    +0.000 N 
ATOM      4  N   UNL     1       3.441   7.351  17.692  0.00  0.00    +0.000 NA
ATOM      5  C   UNL     1       2.849   7.154  18.829  0.00  0.00    +0.000 A 
ATOM      6  O   UNL     1       3.026   5.923  19.381  0.00  0.00    +0.000 OA
ATOM      7  C   UNL     1       3.819   5.254  18.498  0.00  0.00    +0.000 A 
ATOM      8  O   UNL     1       4.191   4.109  18.673  0.00  0.00    +0.000 OA
ENDROOT
BRANCH   5   9
ATOM      9  C   UNL     1       2.014   8.025  19.622  0.00  0.00    +0.000 A 
ATOM     10  N   UNL     1       1.718   7.804  20.893  0.00  0.00    +0.000 NA
ATOM     11  C   UNL     1       0.869   8.824  21.227  0.00  0.00    +0.000 A 
ATOM     12  C   UNL     1       0.212   9.096  22.432  0.00  0.00    +0.000 A 
ATOM     13  C   UNL     1      -0.630  10.213  22.497  0.00  0.00    +0.000 A 
ATOM     14  C   UNL     1      -0.808  11.064  21.394  0.00  0.00    +0.000 A 
ATOM     15  C   UNL     1      -1.742  12.240  21.528  0.00  0.00    +0.000 C 
ATOM     16  C   UNL     1      -0.151  10.792  20.172  0.00  0.00    +0.000 A 
ATOM     17  C   UNL     1       0.675   9.662  20.142  0.00  0.00    +0.000 A 
ATOM     18  O   UNL     1       1.418   9.157  19.096  0.00  0.00    +0.000 OA
ENDBRANCH   5   9
BRANCH   1  19
ATOM     19  O   UNL     1       5.363   4.644  16.239  0.00  0.00    +0.000 OA
BRANCH  19  21
ATOM     20  C   UNL     1       7.521   4.595  17.409  0.00  0.00    +0.000 C 
ATOM     21  C   UNL     1       6.786   4.461  16.086  0.00  0.00    +0.000 C 
ENDBRANCH  19  21
ENDBRANCH   1  19
TORSDOF 3
ENDMDL
MODEL 7
REMARK VINA RESULT:      -6.9      6.615      9.421
REMARK  Name = 
REMARK  5 active torsions:
REMARK  status: ('A' for Active; 'I' for Inactive)
REMARK    1  A    between atoms: C_1  and  C_2
REMARK    2  A    between atoms: C_2  and  O_3
REMARK    3  A    between atoms: O_3  and  C_4
REMARK    4  A    between atoms: C_8  and  C_9
REMARK    5  A    between atoms: C_14  and  C_15
REMARK                            x       y       z     vdW  Elec       q    Type
REMARK                         _______ _______ _______ _____ _____    ______ ____
ROOT
ATOM      1  C   UNL     1       0.108  10.122  22.605  0.00  0.00    +0.000 C 
ATOM      2  O   UNL     1       0.329   9.662  23.722  0.00  0.00    +0.000 OA
ATOM      3  N   UNL     1       0.578   9.553  21.413  0.00  0.00    +0.000 N 
ATOM      4  N   UNL     1       1.266   8.338  21.399  0.00  0.00    +0.000 NA
ATOM      5  C   UNL     1       1.604   8.214  20.153  0.00  0.00    +0.000 A 
ATOM      6  O   UNL     1       1.225   9.233  19.334  0.00  0.00    +0.000 OA
ATOM      7  C   UNL     1       0.568  10.108  20.145  0.00  0.00    +0.000 A 
ATOM      8  O   UNL     1       0.089  11.154  19.747  0.00  0.00    +0.000 OA
ENDROOT
BRANCH   5   9
ATOM      9  C   UNL     1       2.317   7.161  19.469  0.00  0.00    +0.000 A 
ATOM     10  N   UNL     1       2.397   5.916  19.914  0.00  0.00    +0.000 NA
ATOM     11  C   UNL     1       3.201   5.282  19.007  0.00  0.00    +0.000 A 
ATOM     12  C   UNL     1       3.658   3.961  18.973  0.00  0.00    +0.000 A 
ATOM     13  C   UNL     1       4.502   3.571  17.924  0.00  0.00    +0.000 A 
ATOM     14  C   UNL     1       4.873   4.469  16.909  0.00  0.00    +0.000 A 
ATOM     15  C   UNL     1       5.796   3.988  15.819  0.00  0.00    +0.000 C 
ATOM     16  C   UNL     1       4.419   5.807  16.941  0.00  0.00    +0.000 A 
ATOM     17  C   UNL     1       3.585   6.162  18.008  0.00  0.00    +0.000 A 
ATOM     18  O   UNL     1       3.012   7.383  18.294  0.00  0.00    +0.000 OA
ENDBRANCH   5   9
BRANCH   1  19
ATOM     19  O   UNL     1      -0.600  11.276  22.410  0.00  0.00    +0.000 OA
BRANCH  19  21
ATOM     20  C   UNL     1      -2.762  12.433  22.552  0.00  0.00    +0.000 C 
ATOM     21  C   UNL     1      -1.790  11.465  23.205  0.00  0.00    +0.000 C 
ENDBRANCH  19  21
ENDBRANCH   1  19
TORSDOF 3
ENDMDL
MODEL 8
REMARK VINA RESULT:      -6.8      0.965      1.122
REMARK  Name = 
REMARK  5 active torsions:
REMARK  status: ('A' for Active; 'I' for Inactive)
REMARK    1  A    between atoms: C_1  and  C_2
REMARK    2  A    between atoms: C_2  and  O_3
REMARK    3  A    between atoms: O_3  and  C_4
REMARK    4  A    between atoms: C_8  and  C_9
REMARK    5  A    between atoms: C_14  and  C_15
REMARK                            x       y       z     vdW  Elec       q    Type
REMARK                         _______ _______ _______ _____ _____    ______ ____
ROOT
ATOM      1  C   UNL     1       5.847   6.269  16.438  0.00  0.00    +0.000 C 
ATOM      2  O   UNL     1       5.317   6.821  15.477  0.00  0.00    +0.000 OA
ATOM      3  N   UNL     1       6.765   6.892  17.294  0.00  0.00    +0.000 N 
ATOM      4  N   UNL     1       7.081   8.247  17.174  0.00  0.00    +0.000 NA
ATOM      5  C   UNL     1       8.014   8.404  18.061  0.00  0.00    +0.000 A 
ATOM      6  O   UNL     1       8.366   7.286  18.752  0.00  0.00    +0.000 OA
ATOM      7  C   UNL     1       7.568   6.300  18.254  0.00  0.00    +0.000 A 
ATOM      8  O   UNL     1       7.614   5.148  18.640  0.00  0.00    +0.000 OA
ENDROOT
BRANCH   5   9
ATOM      9  C   UNL     1       8.751   9.581  18.456  0.00  0.00    +0.000 A 
ATOM     10  N   UNL     1       9.165   9.809  19.693  0.00  0.00    +0.000 NA
ATOM     11  C   UNL     1       9.756  11.041  19.633  0.00  0.00    +0.000 A 
ATOM     12  C   UNL     1      10.350  11.810  20.639  0.00  0.00    +0.000 A 
ATOM     13  C   UNL     1      10.869  13.067  20.303  0.00  0.00    +0.000 A 
ATOM     14  C   UNL     1      10.820  13.553  18.986  0.00  0.00    +0.000 A 
ATOM     15  C   UNL     1      11.382  14.921  18.697  0.00  0.00    +0.000 C 
ATOM     16  C   UNL     1      10.215  12.784  17.965  0.00  0.00    +0.000 A 
ATOM     17  C   UNL     1       9.701  11.537  18.340  0.00  0.00    +0.000 A 
ATOM     18  O   UNL     1       9.057  10.595  17.567  0.00  0.00    +0.000 OA
ENDBRANCH   5   9
BRANCH   1  19
ATOM     19  O   UNL     1       5.617   4.958  16.754  0.00  0.00    +0.000 OA
BRANCH  19  21
ATOM     20  C   UNL     1       5.893   4.338  14.394  0.00  0.00    +0.000 C 
ATOM     21  C   UNL     1       6.127   3.958  15.846  0.00  0.00    +0.000 C 
ENDBRANCH  19  21
ENDBRANCH   1  19
TORSDOF 3
ENDMDL
MODEL 9
REMARK VINA RESULT:      -6.8      1.369      2.024
REMARK  Name = 
REMARK  5 active torsions:
REMARK  status: ('A' for Active; 'I' for Inactive)
REMARK    1  A    between atoms: C_1  and  C_2
REMARK    2  A    between atoms: C_2  and  O_3
REMARK    3  A    between atoms: O_3  and  C_4
REMARK    4  A    between atoms: C_8  and  C_9
REMARK    5  A    between atoms: C_14  and  C_15
REMARK                            x       y       z     vdW  Elec       q    Type
REMARK                         _______ _______ _______ _____ _____    ______ ____
ROOT
ATOM      1  C   UNL     1       7.519   5.607  18.912  0.00  0.00    +0.000 C 
ATOM      2  O   UNL     1       7.890   5.199  20.010  0.00  0.00    +0.000 OA
ATOM      3  N   UNL     1       7.771   6.897  18.427  0.00  0.00    +0.000 N 
ATOM      4  N   UNL     1       8.565   7.805  19.130  0.00  0.00    +0.000 NA
ATOM      5  C   UNL     1       8.472   8.883  18.414  0.00  0.00    +0.000 A 
ATOM      6  O   UNL     1       7.681   8.791  17.310  0.00  0.00    +0.000 OA
ATOM      7  C   UNL     1       7.216   7.510  17.317  0.00  0.00    +0.000 A 
ATOM      8  O   UNL     1       6.464   7.071  16.467  0.00  0.00    +0.000 OA
ENDROOT
BRANCH   5   9
ATOM      9  C   UNL     1       9.078  10.183  18.581  0.00  0.00    +0.000 A 
ATOM     10  N   UNL     1       9.880  10.497  19.586  0.00  0.00    +0.000 NA
ATOM     11  C   UNL     1      10.170  11.819  19.390  0.00  0.00    +0.000 A 
ATOM     12  C   UNL     1      10.951  12.697  20.148  0.00  0.00    +0.000 A 
ATOM     13  C   UNL     1      11.066  14.028  19.726  0.00  0.00    +0.000 A 
ATOM     14  C   UNL     1      10.435  14.483  18.557  0.00  0.00    +0.000 A 
ATOM     15  C   UNL     1      10.587  15.932  18.168  0.00  0.00    +0.000 C 
ATOM     16  C   UNL     1       9.639  13.603  17.788  0.00  0.00    +0.000 A 
ATOM     17  C   UNL     1       9.540  12.284  18.246  0.00  0.00    +0.000 A 
ATOM     18  O   UNL     1       8.834  11.229  17.710  0.00  0.00    +0.000 OA
ENDBRANCH   5   9
BRANCH   1  19
ATOM     19  O   UNL     1       6.779   4.841  18.053  0.00  0.00    +0.000 OA
BRANCH  19  21
ATOM     20  C   UNL     1       4.602   5.347  19.071  0.00  0.00    +0.000 C 
ATOM     21  C   UNL     1       5.551   4.276  18.559  0.00  0.00    +0.000 C 
ENDBRANCH  19  21
ENDBRANCH   1  19
TORSDOF 3
ENDMDL
