MODEL 1
REMARK VINA RESULT:      -7.8      0.000      0.000
REMARK  Name = 
REMARK  7 active torsions:
REMARK  status: ('A' for Active; 'I' for Inactive)
REMARK    1  A    between atoms: C_1  and  S_2
REMARK    2  A    between atoms: S_2  and  N_5
REMARK    3  A    between atoms: N_5  and  C_6
REMARK    4  A    between atoms: C_9  and  C_10
REMARK    5  A    between atoms: C_10  and  C_11
REMARK    6  A    between atoms: C_11  and  N_12
REMARK    7  A    between atoms: N_15  and  C_16
REMARK                            x       y       z     vdW  Elec       q    Type
REMARK                         _______ _______ _______ _____ _____    ______ ____
ROOT
ATOM      1  C   UNL     1       7.940   7.457  18.042  0.00  0.00    +0.000 C 
ENDROOT
BRANCH   1   2
ATOM      2  N   UNL     1       7.543   6.507  16.993  0.00  0.00    +0.000 NA
ATOM      3  C   UNL     1       7.516   5.113  17.477  0.00  0.00    +0.000 C 
ATOM      4  C   UNL     1       6.417   4.819  18.515  0.00  0.00    +0.000 C 
ATOM      5  N   UNL     1       5.092   5.151  17.973  0.00  0.00    +0.000 N 
ATOM      6  C   UNL     1       4.980   6.486  17.339  0.00  0.00    +0.000 C 
ATOM      7  C   UNL     1       6.203   6.808  16.437  0.00  0.00    +0.000 C 
BRANCH   5   8
ATOM      8  C   UNL     1       3.985   4.327  18.176  0.00  0.00    +0.000 A 
ATOM      9  C   UNL     1       3.938   3.096  17.481  0.00  0.00    +0.000 A 
ATOM     10  C   UNL     1       2.917   2.159  17.651  0.00  0.00    +0.000 A 
ATOM     11  C   UNL     1       1.905   2.402  18.564  0.00  0.00    +0.000 A 
ATOM     12  C   UNL     1       1.902   3.600  19.281  0.00  0.00    +0.000 A 
ATOM     13 CL   UNL     1       0.610   3.803  20.420  0.00  0.00    +0.000 Cl
ATOM     14  C   UNL     1       2.907   4.573  19.080  0.00  0.00    +0.000 A 
ATOM     15 CL   UNL     1       2.705   6.105  19.893  0.00  0.00    +0.000 Cl
ENDBRANCH   5   8
ENDBRANCH   1   2
BRANCH   1  16
ATOM     16  C   UNL     1       7.528   8.919  17.741  0.00  0.00    +0.000 C 
BRANCH  16  20
ATOM     17  C   UNL     1       9.798  12.446  19.131  0.00  0.00    +0.000 C 
ATOM     18  C   UNL     1       9.210  12.408  17.725  0.00  0.00    +0.000 C 
ATOM     19  C   UNL     1       8.141  11.348  17.556  0.00  0.00    +0.000 C 
ATOM     20  C   UNL     1       8.650   9.958  17.931  0.00  0.00    +0.000 C 
ATOM     21  C   UNL     1       9.158   9.980  19.385  0.00  0.00    +0.000 C 
ATOM     22  C   UNL     1      10.244  11.044  19.592  0.00  0.00    +0.000 C 
BRANCH  17  23
ATOM     23  N   UNL     1      10.951  13.353  19.171  0.00  0.00    +0.000 NA
ATOM     24  H   UNL     1      11.813  13.054  19.631  0.00  0.00    +0.000 HD
BRANCH  23  26
ATOM     25  C   UNL     1      11.765  15.682  20.277  0.00  0.00    +0.000 C 
ATOM     26  S   UNL     1      10.844  15.002  18.915  0.00  0.00    +0.000 S 
ATOM     27  O   UNL     1       9.469  15.436  19.001  0.00  0.00    +0.000 OA
ATOM     28  O   UNL     1      11.622  15.239  17.708  0.00  0.00    +0.000 OA
ENDBRANCH  23  26
ENDBRANCH  17  23
ENDBRANCH  16  20
ENDBRANCH   1  16
TORSDOF 6
ENDMDL
MODEL 2
REMARK VINA RESULT:      -7.8      1.040      1.453
REMARK  Name = 
REMARK  7 active torsions:
REMARK  status: ('A' for Active; 'I' for Inactive)
REMARK    1  A    between atoms: C_1  and  S_2
REMARK    2  A    between atoms: S_2  and  N_5
REMARK    3  A    between atoms: N_5  and  C_6
REMARK    4  A    between atoms: C_9  and  C_10
REMARK    5  A    between atoms: C_10  and  C_11
REMARK    6  A    between atoms: C_11  and  N_12
REMARK    7  A    between atoms: N_15  and  C_16
REMARK                            x       y       z     vdW  Elec       q    Type
REMARK                         _______ _______ _______ _____ _____    ______ ____
ROOT
ATOM      1  C   UNL     1       7.438   7.949  17.389  0.00  0.00    +0.000 C 
ENDROOT
BRANCH   1   2
ATOM      2  N   UNL     1       7.573   6.539  16.995  0.00  0.00    +0.000 NA
ATOM      3  C   UNL     1       7.489   5.622  18.147  0.00  0.00    +0.000 C 
ATOM      4  C   UNL     1       6.105   5.566  18.820  0.00  0.00    +0.000 C 
ATOM      5  N   UNL     1       5.071   5.188  17.846  0.00  0.00    +0.000 N 
ATOM      6  C   UNL     1       5.092   5.943  16.571  0.00  0.00    +0.000 C 
ATOM      7  C   UNL     1       6.533   6.124  16.023  0.00  0.00    +0.000 C 
BRANCH   5   8
ATOM      8  C   UNL     1       4.056   4.286  18.163  0.00  0.00    +0.000 A 
ATOM      9  C   UNL     1       4.100   3.002  17.570  0.00  0.00    +0.000 A 
ATOM     10  C   UNL     1       3.179   1.994  17.860  0.00  0.00    +0.000 A 
ATOM     11  C   UNL     1       2.183   2.218  18.795  0.00  0.00    +0.000 A 
ATOM     12  C   UNL     1       2.093   3.467  19.414  0.00  0.00    +0.000 A 
ATOM     13 CL   UNL     1       0.831   3.646  20.590  0.00  0.00    +0.000 Cl
ATOM     14  C   UNL     1       2.993   4.507  19.092  0.00  0.00    +0.000 A 
ATOM     15 CL   UNL     1       2.678   6.077  19.789  0.00  0.00    +0.000 Cl
ENDBRANCH   5   8
ENDBRANCH   1   2
BRANCH   1  16
ATOM     16  C   UNL     1       8.516   8.415  18.399  0.00  0.00    +0.000 C 
BRANCH  16  20
ATOM     17  C   UNL     1       9.690  12.668  18.647  0.00  0.00    +0.000 C 
ATOM     18  C   UNL     1       9.750  11.774  19.881  0.00  0.00    +0.000 C 
ATOM     19  C   UNL     1       9.721  10.297  19.547  0.00  0.00    +0.000 C 
ATOM     20  C   UNL     1       8.499   9.925  18.710  0.00  0.00    +0.000 C 
ATOM     21  C   UNL     1       8.493  10.766  17.420  0.00  0.00    +0.000 C 
ATOM     22  C   UNL     1       8.522  12.270  17.722  0.00  0.00    +0.000 C 
BRANCH  17  23
ATOM     23  N   UNL     1       9.527  14.070  19.048  0.00  0.00    +0.000 NA
ATOM     24  H   UNL     1       8.704  14.349  19.586  0.00  0.00    +0.000 HD
BRANCH  23  26
ATOM     25  C   UNL     1      11.369  14.530  17.125  0.00  0.00    +0.000 C 
ATOM     26  S   UNL     1      10.346  15.341  18.333  0.00  0.00    +0.000 S 
ATOM     27  O   UNL     1      11.183  16.007  19.302  0.00  0.00    +0.000 OA
ATOM     28  O   UNL     1       9.322  16.077  17.606  0.00  0.00    +0.000 OA
ENDBRANCH  23  26
ENDBRANCH  17  23
ENDBRANCH  16  20
ENDBRANCH   1  16
TORSDOF 6
ENDMDL
MODEL 3
REMARK VINA RESULT:      -7.7      1.045      1.104
REMARK  Name = 
REMARK  7 active torsions:
REMARK  status: ('A' for Active; 'I' for Inactive)
REMARK    1  A    between atoms: C_1  and  S_2
REMARK    2  A    between atoms: S_2  and  N_5
REMARK    3  A    between atoms: N_5  and  C_6
REMARK    4  A    between atoms: C_9  and  C_10
REMARK    5  A    between atoms: C_10  and  C_11
REMARK    6  A    between atoms: C_11  and  N_12
REMARK    7  A    between atoms: N_15  and  C_16
REMARK                            x       y       z     vdW  Elec       q    Type
REMARK                         _______ _______ _______ _____ _____    ______ ____
ROOT
ATOM      1  C   UNL     1       7.473   7.936  17.369  0.00  0.00    +0.000 C 
ENDROOT
BRANCH   1   2
ATOM      2  N   UNL     1       7.607   6.519  17.001  0.00  0.00    +0.000 NA
ATOM      3  C   UNL     1       7.503   5.622  18.167  0.00  0.00    +0.000 C 
ATOM      4  C   UNL     1       6.108   5.584  18.820  0.00  0.00    +0.000 C 
ATOM      5  N   UNL     1       5.087   5.194  17.838  0.00  0.00    +0.000 N 
ATOM      6  C   UNL     1       5.130   5.927  16.550  0.00  0.00    +0.000 C 
ATOM      7  C   UNL     1       6.580   6.093  16.021  0.00  0.00    +0.000 C 
BRANCH   5   8
ATOM      8  C   UNL     1       4.063   4.302  18.154  0.00  0.00    +0.000 A 
ATOM      9  C   UNL     1       4.089   3.021  17.554  0.00  0.00    +0.000 A 
ATOM     10  C   UNL     1       3.158   2.022  17.842  0.00  0.00    +0.000 A 
ATOM     11  C   UNL     1       2.169   2.252  18.784  0.00  0.00    +0.000 A 
ATOM     12  C   UNL     1       2.097   3.498  19.411  0.00  0.00    +0.000 A 
ATOM     13 CL   UNL     1       0.843   3.684  20.595  0.00  0.00    +0.000 Cl
ATOM     14  C   UNL     1       3.008   4.529  19.090  0.00  0.00    +0.000 A 
ATOM     15 CL   UNL     1       2.715   6.099  19.799  0.00  0.00    +0.000 Cl
ENDBRANCH   5   8
ENDBRANCH   1   2
BRANCH   1  16
ATOM     16  C   UNL     1       8.406   8.364  18.530  0.00  0.00    +0.000 C 
BRANCH  16  20
ATOM     17  C   UNL     1       9.137  12.704  18.928  0.00  0.00    +0.000 C 
ATOM     18  C   UNL     1       8.550  12.132  17.643  0.00  0.00    +0.000 C 
ATOM     19  C   UNL     1       7.987  10.737  17.816  0.00  0.00    +0.000 C 
ATOM     20  C   UNL     1       9.026   9.767  18.374  0.00  0.00    +0.000 C 
ATOM     21  C   UNL     1       9.550  10.304  19.719  0.00  0.00    +0.000 C 
ATOM     22  C   UNL     1      10.128  11.719  19.580  0.00  0.00    +0.000 C 
BRANCH  17  23
ATOM     23  N   UNL     1       9.832  13.966  18.647  0.00  0.00    +0.000 NA
ATOM     24  H   UNL     1      10.657  13.964  18.044  0.00  0.00    +0.000 HD
BRANCH  23  26
ATOM     25  C   UNL     1      10.969  16.396  18.983  0.00  0.00    +0.000 C 
ATOM     26  S   UNL     1       9.659  15.347  19.574  0.00  0.00    +0.000 S 
ATOM     27  O   UNL     1       9.879  15.046  20.969  0.00  0.00    +0.000 OA
ATOM     28  O   UNL     1       8.403  15.934  19.131  0.00  0.00    +0.000 OA
ENDBRANCH  23  26
ENDBRANCH  17  23
ENDBRANCH  16  20
ENDBRANCH   1  16
TORSDOF 6
ENDMDL
MODEL 4
REMARK VINA RESULT:      -7.6      1.004      1.350
REMARK  Name = 
REMARK  7 active torsions:
REMARK  status: ('A' for Active; 'I' for Inactive)
REMARK    1  A    between atoms: C_1  and  S_2
REMARK    2  A    between atoms: S_2  and  N_5
REMARK    3  A    between atoms: N_5  and  C_6
REMARK    4  A    between atoms: C_9  and  C_10
REMARK    5  A    between atoms: C_10  and  C_11
REMARK    6  A    between atoms: C_11  and  N_12
REMARK    7  A    between atoms: N_15  and  C_16
REMARK                            x       y       z     vdW  Elec       q    Type
REMARK                         _______ _______ _______ _____ _____    ______ ____
ROOT
ATOM      1  C   UNL     1       7.456   7.929  17.634  0.00  0.00    +0.000 C 
ENDROOT
BRANCH   1   2
ATOM      2  N   UNL     1       7.627   6.520  17.252  0.00  0.00    +0.000 NA
ATOM      3  C   UNL     1       7.516   5.606  18.405  0.00  0.00    +0.000 C 
ATOM      4  C   UNL     1       6.108   5.531  19.025  0.00  0.00    +0.000 C 
ATOM      5  N   UNL     1       5.118   5.132  18.015  0.00  0.00    +0.000 N 
ATOM      6  C   UNL     1       5.174   5.882  16.738  0.00  0.00    +0.000 C 
ATOM      7  C   UNL     1       6.632   6.085  16.243  0.00  0.00    +0.000 C 
BRANCH   5   8
ATOM      8  C   UNL     1       4.106   4.215  18.297  0.00  0.00    +0.000 A 
ATOM      9  C   UNL     1       4.178   2.939  17.691  0.00  0.00    +0.000 A 
ATOM     10  C   UNL     1       3.262   1.917  17.948  0.00  0.00    +0.000 A 
ATOM     11  C   UNL     1       2.242   2.119  18.861  0.00  0.00    +0.000 A 
ATOM     12  C   UNL     1       2.123   3.360  19.492  0.00  0.00    +0.000 A 
ATOM     13 CL   UNL     1       0.832   3.511  20.640  0.00  0.00    +0.000 Cl
ATOM     14  C   UNL     1       3.019   4.413  19.203  0.00  0.00    +0.000 A 
ATOM     15 CL   UNL     1       2.669   5.972  19.910  0.00  0.00    +0.000 Cl
ENDBRANCH   5   8
ENDBRANCH   1   2
BRANCH   1  16
ATOM     16  C   UNL     1       8.612   8.480  18.505  0.00  0.00    +0.000 C 
BRANCH  16  20
ATOM     17  C   UNL     1       9.884  12.671  19.086  0.00  0.00    +0.000 C 
ATOM     18  C   UNL     1       9.365  11.849  20.260  0.00  0.00    +0.000 C 
ATOM     19  C   UNL     1       9.369  10.359  19.990  0.00  0.00    +0.000 C 
ATOM     20  C   UNL     1       8.578  10.004  18.733  0.00  0.00    +0.000 C 
ATOM     21  C   UNL     1       9.166  10.768  17.532  0.00  0.00    +0.000 C 
ATOM     22  C   UNL     1       9.177  12.283  17.772  0.00  0.00    +0.000 C 
BRANCH  17  23
ATOM     23  N   UNL     1       9.673  14.102  19.339  0.00  0.00    +0.000 NA
ATOM     24  H   UNL     1       8.913  14.592  18.862  0.00  0.00    +0.000 HD
BRANCH  23  26
ATOM     25  C   UNL     1      10.417  15.107  21.735  0.00  0.00    +0.000 C 
ATOM     26  S   UNL     1      10.831  15.108  20.005  0.00  0.00    +0.000 S 
ATOM     27  O   UNL     1      10.696  16.446  19.480  0.00  0.00    +0.000 OA
ATOM     28  O   UNL     1      12.082  14.377  19.861  0.00  0.00    +0.000 OA
ENDBRANCH  23  26
ENDBRANCH  17  23
ENDBRANCH  16  20
ENDBRANCH   1  16
TORSDOF 6
ENDMDL
MODEL 5
REMARK VINA RESULT:      -7.5      1.543      2.015
REMARK  Name = 
REMARK  7 active torsions:
REMARK  status: ('A' for Active; 'I' for Inactive)
REMARK    1  A    between atoms: C_1  and  S_2
REMARK    2  A    between atoms: S_2  and  N_5
REMARK    3  A    between atoms: N_5  and  C_6
REMARK    4  A    between atoms: C_9  and  C_10
REMARK    5  A    between atoms: C_10  and  C_11
REMARK    6  A    between atoms: C_11  and  N_12
REMARK    7  A    between atoms: N_15  and  C_16
REMARK                            x       y       z     vdW  Elec       q    Type
REMARK                         _______ _______ _______ _____ _____    ______ ____
ROOT
ATOM      1  C   UNL     1       7.922   7.477  18.221  0.00  0.00    +0.000 C 
ENDROOT
BRANCH   1   2
ATOM      2  N   UNL     1       7.373   6.319  17.501  0.00  0.00    +0.000 NA
ATOM      3  C   UNL     1       7.173   5.152  18.381  0.00  0.00    +0.000 C 
ATOM      4  C   UNL     1       6.073   5.335  19.443  0.00  0.00    +0.000 C 
ATOM      5  N   UNL     1       4.790   5.667  18.808  0.00  0.00    +0.000 N 
ATOM      6  C   UNL     1       4.840   6.752  17.799  0.00  0.00    +0.000 C 
ATOM      7  C   UNL     1       6.071   6.619  16.861  0.00  0.00    +0.000 C 
BRANCH   5   8
ATOM      8  C   UNL     1       3.589   5.099  19.233  0.00  0.00    +0.000 A 
ATOM      9  C   UNL     1       2.817   5.812  20.181  0.00  0.00    +0.000 A 
ATOM     10  C   UNL     1       1.569   5.379  20.631  0.00  0.00    +0.000 A 
ATOM     11  C   UNL     1       1.016   4.218  20.119  0.00  0.00    +0.000 A 
ATOM     12  C   UNL     1       1.732   3.475  19.179  0.00  0.00    +0.000 A 
ATOM     13 CL   UNL     1       0.947   2.051  18.574  0.00  0.00    +0.000 Cl
ATOM     14  C   UNL     1       3.015   3.882  18.752  0.00  0.00    +0.000 A 
ATOM     15 CL   UNL     1       3.894   2.787  17.713  0.00  0.00    +0.000 Cl
ENDBRANCH   5   8
ENDBRANCH   1   2
BRANCH   1  16
ATOM     16  C   UNL     1       7.873   8.793  17.405  0.00  0.00    +0.000 C 
BRANCH  16  20
ATOM     17  C   UNL     1       9.322  12.306  19.660  0.00  0.00    +0.000 C 
ATOM     18  C   UNL     1       8.993  12.420  18.176  0.00  0.00    +0.000 C 
ATOM     19  C   UNL     1       8.138  11.278  17.667  0.00  0.00    +0.000 C 
ATOM     20  C   UNL     1       8.779   9.919  17.942  0.00  0.00    +0.000 C 
ATOM     21  C   UNL     1       9.025   9.772  19.455  0.00  0.00    +0.000 C 
ATOM     22  C   UNL     1       9.889  10.915  20.004  0.00  0.00    +0.000 C 
BRANCH  17  23
ATOM     23  N   UNL     1      10.303  13.330  20.038  0.00  0.00    +0.000 NA
ATOM     24  H   UNL     1      11.233  13.046  20.353  0.00  0.00    +0.000 HD
BRANCH  23  26
ATOM     25  C   UNL     1       8.229  14.762  21.015  0.00  0.00    +0.000 C 
ATOM     26  S   UNL     1       9.899  14.908  20.419  0.00  0.00    +0.000 S 
ATOM     27  O   UNL     1       9.915  15.730  19.233  0.00  0.00    +0.000 OA
ATOM     28  O   UNL     1      10.737  15.238  21.563  0.00  0.00    +0.000 OA
ENDBRANCH  23  26
ENDBRANCH  17  23
ENDBRANCH  16  20
ENDBRANCH   1  16
TORSDOF 6
ENDMDL
MODEL 6
REMARK VINA RESULT:      -7.4      1.013      1.353
REMARK  Name = 
REMARK  7 active torsions:
REMARK  status: ('A' for Active; 'I' for Inactive)
REMARK    1  A    between atoms: C_1  and  S_2
REMARK    2  A    between atoms: S_2  and  N_5
REMARK    3  A    between atoms: N_5  and  C_6
REMARK    4  A    between atoms: C_9  and  C_10
REMARK    5  A    between atoms: C_10  and  C_11
REMARK    6  A    between atoms: C_11  and  N_12
REMARK    7  A    between atoms: N_15  and  C_16
REMARK                            x       y       z     vdW  Elec       q    Type
REMARK                         _______ _______ _______ _____ _____    ______ ____
ROOT
ATOM      1  C   UNL     1       7.324   8.289  17.751  0.00  0.00    +0.000 C 
ENDROOT
BRANCH   1   2
ATOM      2  N   UNL     1       7.378   7.001  17.044  0.00  0.00    +0.000 NA
ATOM      3  C   UNL     1       7.480   5.855  17.968  0.00  0.00    +0.000 C 
ATOM      4  C   UNL     1       6.227   5.619  18.832  0.00  0.00    +0.000 C 
ATOM      5  N   UNL     1       5.042   5.431  17.983  0.00  0.00    +0.000 N 
ATOM      6  C   UNL     1       4.856   6.442  16.916  0.00  0.00    +0.000 C 
ATOM      7  C   UNL     1       6.188   6.777  16.191  0.00  0.00    +0.000 C 
BRANCH   5   8
ATOM      8  C   UNL     1       4.085   4.454  18.259  0.00  0.00    +0.000 A 
ATOM      9  C   UNL     1       4.222   3.194  17.631  0.00  0.00    +0.000 A 
ATOM     10  C   UNL     1       3.367   2.119  17.879  0.00  0.00    +0.000 A 
ATOM     11  C   UNL     1       2.347   2.249  18.805  0.00  0.00    +0.000 A 
ATOM     12  C   UNL     1       2.166   3.470  19.458  0.00  0.00    +0.000 A 
ATOM     13 CL   UNL     1       0.880   3.530  20.620  0.00  0.00    +0.000 Cl
ATOM     14  C   UNL     1       2.998   4.576  19.178  0.00  0.00    +0.000 A 
ATOM     15 CL   UNL     1       2.570   6.101  19.915  0.00  0.00    +0.000 Cl
ENDBRANCH   5   8
ENDBRANCH   1   2
BRANCH   1  16
ATOM     16  C   UNL     1       8.672   8.698  18.397  0.00  0.00    +0.000 C 
BRANCH  16  20
ATOM     17  C   UNL     1      10.439  12.629  19.371  0.00  0.00    +0.000 C 
ATOM     18  C   UNL     1       9.505  11.934  20.356  0.00  0.00    +0.000 C 
ATOM     19  C   UNL     1       9.328  10.458  20.065  0.00  0.00    +0.000 C 
ATOM     20  C   UNL     1       8.837  10.211  18.640  0.00  0.00    +0.000 C 
ATOM     21  C   UNL     1       9.833  10.837  17.646  0.00  0.00    +0.000 C 
ATOM     22  C   UNL     1      10.037  12.334  17.912  0.00  0.00    +0.000 C 
BRANCH  17  23
ATOM     23  N   UNL     1      10.413  14.080  19.591  0.00  0.00    +0.000 NA
ATOM     24  H   UNL     1      10.979  14.488  20.337  0.00  0.00    +0.000 HD
BRANCH  23  26
ATOM     25  C   UNL     1       9.305  16.493  20.096  0.00  0.00    +0.000 C 
ATOM     26  S   UNL     1       9.207  15.085  19.014  0.00  0.00    +0.000 S 
ATOM     27  O   UNL     1       7.916  14.455  19.162  0.00  0.00    +0.000 OA
ATOM     28  O   UNL     1       9.677  15.513  17.705  0.00  0.00    +0.000 OA
ENDBRANCH  23  26
ENDBRANCH  17  23
ENDBRANCH  16  20
ENDBRANCH   1  16
TORSDOF 6
ENDMDL
MODEL 7
REMARK VINA RESULT:      -7.4      1.387      1.468
REMARK  Name = 
REMARK  7 active torsions:
REMARK  status: ('A' for Active; 'I' for Inactive)
REMARK    1  A    between atoms: C_1  and  S_2
REMARK    2  A    between atoms: S_2  and  N_5
REMARK    3  A    between atoms: N_5  and  C_6
REMARK    4  A    between atoms: C_9  and  C_10
REMARK    5  A    between atoms: C_10  and  C_11
REMARK    6  A    between atoms: C_11  and  N_12
REMARK    7  A    between atoms: N_15  and  C_16
REMARK                            x       y       z     vdW  Elec       q    Type
REMARK                         _______ _______ _______ _____ _____    ______ ____
ROOT
ATOM      1  C   UNL     1       7.397   8.411  17.554  0.00  0.00    +0.000 C 
ENDROOT
BRANCH   1   2
ATOM      2  N   UNL     1       7.403   7.047  17.008  0.00  0.00    +0.000 NA
ATOM      3  C   UNL     1       7.673   6.028  18.041  0.00  0.00    +0.000 C 
ATOM      4  C   UNL     1       6.558   5.875  19.092  0.00  0.00    +0.000 C 
ATOM      5  N   UNL     1       5.277   5.558  18.445  0.00  0.00    +0.000 N 
ATOM      6  C   UNL     1       4.910   6.424  17.300  0.00  0.00    +0.000 C 
ATOM      7  C   UNL     1       6.118   6.692  16.361  0.00  0.00    +0.000 C 
BRANCH   5   8
ATOM      8  C   UNL     1       4.404   4.604  18.968  0.00  0.00    +0.000 A 
ATOM      9  C   UNL     1       4.920   3.318  19.256  0.00  0.00    +0.000 A 
ATOM     10  C   UNL     1       4.162   2.303  19.842  0.00  0.00    +0.000 A 
ATOM     11  C   UNL     1       2.848   2.545  20.204  0.00  0.00    +0.000 A 
ATOM     12  C   UNL     1       2.286   3.798  19.945  0.00  0.00    +0.000 A 
ATOM     13 CL   UNL     1       0.644   4.016  20.458  0.00  0.00    +0.000 Cl
ATOM     14  C   UNL     1       3.033   4.815  19.311  0.00  0.00    +0.000 A 
ATOM     15 CL   UNL     1       2.180   6.275  18.875  0.00  0.00    +0.000 Cl
ENDBRANCH   5   8
ENDBRANCH   1   2
BRANCH   1  16
ATOM     16  C   UNL     1       8.607   8.718  18.471  0.00  0.00    +0.000 C 
BRANCH  16  20
ATOM     17  C   UNL     1       9.211  13.076  18.876  0.00  0.00    +0.000 C 
ATOM     18  C   UNL     1       8.648  12.488  17.587  0.00  0.00    +0.000 C 
ATOM     19  C   UNL     1       8.125  11.077  17.756  0.00  0.00    +0.000 C 
ATOM     20  C   UNL     1       9.188  10.137  18.320  0.00  0.00    +0.000 C 
ATOM     21  C   UNL     1       9.688  10.689  19.668  0.00  0.00    +0.000 C 
ATOM     22  C   UNL     1      10.225  12.119  19.533  0.00  0.00    +0.000 C 
BRANCH  17  23
ATOM     23  N   UNL     1       9.871  14.358  18.599  0.00  0.00    +0.000 NA
ATOM     24  H   UNL     1       9.343  15.227  18.690  0.00  0.00    +0.000 HD
BRANCH  23  26
ATOM     25  C   UNL     1      11.122  16.090  16.943  0.00  0.00    +0.000 C 
ATOM     26  S   UNL     1      11.290  14.501  17.726  0.00  0.00    +0.000 S 
ATOM     27  O   UNL     1      11.363  13.473  16.715  0.00  0.00    +0.000 OA
ATOM     28  O   UNL     1      12.333  14.626  18.734  0.00  0.00    +0.000 OA
ENDBRANCH  23  26
ENDBRANCH  17  23
ENDBRANCH  16  20
ENDBRANCH   1  16
TORSDOF 6
ENDMDL
MODEL 8
REMARK VINA RESULT:      -7.3      1.649      2.073
REMARK  Name = 
REMARK  7 active torsions:
REMARK  status: ('A' for Active; 'I' for Inactive)
REMARK    1  A    between atoms: C_1  and  S_2
REMARK    2  A    between atoms: S_2  and  N_5
REMARK    3  A    between atoms: N_5  and  C_6
REMARK    4  A    between atoms: C_9  and  C_10
REMARK    5  A    between atoms: C_10  and  C_11
REMARK    6  A    between atoms: C_11  and  N_12
REMARK    7  A    between atoms: N_15  and  C_16
REMARK                            x       y       z     vdW  Elec       q    Type
REMARK                         _______ _______ _______ _____ _____    ______ ____
ROOT
ATOM      1  C   UNL     1       7.162   8.180  17.416  0.00  0.00    +0.000 C 
ENDROOT
BRANCH   1   2
ATOM      2  N   UNL     1       6.900   6.801  16.979  0.00  0.00    +0.000 NA
ATOM      3  C   UNL     1       6.935   5.839  18.097  0.00  0.00    +0.000 C 
ATOM      4  C   UNL     1       5.792   6.004  19.116  0.00  0.00    +0.000 C 
ATOM      5  N   UNL     1       4.486   5.899  18.450  0.00  0.00    +0.000 N 
ATOM      6  C   UNL     1       4.327   6.722  17.228  0.00  0.00    +0.000 C 
ATOM      7  C   UNL     1       5.582   6.661  16.316  0.00  0.00    +0.000 C 
BRANCH   5   8
ATOM      8  C   UNL     1       3.426   5.189  19.014  0.00  0.00    +0.000 A 
ATOM      9  C   UNL     1       2.701   5.801  20.064  0.00  0.00    +0.000 A 
ATOM     10  C   UNL     1       1.582   5.219  20.661  0.00  0.00    +0.000 A 
ATOM     11  C   UNL     1       1.113   4.000  20.204  0.00  0.00    +0.000 A 
ATOM     12  C   UNL     1       1.788   3.351  19.168  0.00  0.00    +0.000 A 
ATOM     13 CL   UNL     1       1.111   1.842  18.644  0.00  0.00    +0.000 Cl
ATOM     14  C   UNL     1       2.948   3.912  18.590  0.00  0.00    +0.000 A 
ATOM     15 CL   UNL     1       3.813   2.933  17.430  0.00  0.00    +0.000 Cl
ENDBRANCH   5   8
ENDBRANCH   1   2
BRANCH   1  16
ATOM     16  C   UNL     1       8.400   8.312  18.338  0.00  0.00    +0.000 C 
BRANCH  16  20
ATOM     17  C   UNL     1       9.130  12.606  19.082  0.00  0.00    +0.000 C 
ATOM     18  C   UNL     1       8.702  12.121  17.702  0.00  0.00    +0.000 C 
ATOM     19  C   UNL     1       8.105  10.729  17.720  0.00  0.00    +0.000 C 
ATOM     20  C   UNL     1       9.053   9.708  18.346  0.00  0.00    +0.000 C 
ATOM     21  C   UNL     1       9.409  10.157  19.775  0.00  0.00    +0.000 C 
ATOM     22  C   UNL     1      10.018  11.565  19.793  0.00  0.00    +0.000 C 
BRANCH  17  23
ATOM     23  N   UNL     1       9.871  13.868  18.966  0.00  0.00    +0.000 NA
ATOM     24  H   UNL     1      10.892  13.853  18.935  0.00  0.00    +0.000 HD
BRANCH  23  26
ATOM     25  C   UNL     1       9.495  16.289  17.825  0.00  0.00    +0.000 C 
ATOM     26  S   UNL     1       9.214  15.365  19.318  0.00  0.00    +0.000 S 
ATOM     27  O   UNL     1       9.932  15.984  20.408  0.00  0.00    +0.000 OA
ATOM     28  O   UNL     1       7.782  15.127  19.415  0.00  0.00    +0.000 OA
ENDBRANCH  23  26
ENDBRANCH  17  23
ENDBRANCH  16  20
ENDBRANCH   1  16
TORSDOF 6
ENDMDL
MODEL 9
REMARK VINA RESULT:      -7.3      1.155      1.624
REMARK  Name = 
REMARK  7 active torsions:
REMARK  status: ('A' for Active; 'I' for Inactive)
REMARK    1  A    between atoms: C_1  and  S_2
REMARK    2  A    between atoms: S_2  and  N_5
REMARK    3  A    between atoms: N_5  and  C_6
REMARK    4  A    between atoms: C_9  and  C_10
REMARK    5  A    between atoms: C_10  and  C_11
REMARK    6  A    between atoms: C_11  and  N_12
REMARK    7  A    between atoms: N_15  and  C_16
REMARK                            x       y       z     vdW  Elec       q    Type
REMARK                         _______ _______ _______ _____ _____    ______ ____
ROOT
ATOM      1  C   UNL     1       7.579   7.823  17.994  0.00  0.00    +0.000 C 
ENDROOT
BRANCH   1   2
ATOM      2  N   UNL     1       7.207   6.870  16.940  0.00  0.00    +0.000 NA
ATOM      3  C   UNL     1       7.371   5.467  17.365  0.00  0.00    +0.000 C 
ATOM      4  C   UNL     1       6.397   5.017  18.470  0.00  0.00    +0.000 C 
ATOM      5  N   UNL     1       5.004   5.215  18.044  0.00  0.00    +0.000 N 
ATOM      6  C   UNL     1       4.697   6.550  17.476  0.00  0.00    +0.000 C 
ATOM      7  C   UNL     1       5.801   7.037  16.499  0.00  0.00    +0.000 C 
BRANCH   5   8
ATOM      8  C   UNL     1       4.014   4.265  18.295  0.00  0.00    +0.000 A 
ATOM      9  C   UNL     1       4.034   3.070  17.537  0.00  0.00    +0.000 A 
ATOM     10  C   UNL     1       3.138   2.020  17.743  0.00  0.00    +0.000 A 
ATOM     11  C   UNL     1       2.194   2.106  18.751  0.00  0.00    +0.000 A 
ATOM     12  C   UNL     1       2.130   3.262  19.532  0.00  0.00    +0.000 A 
ATOM     13 CL   UNL     1       0.934   3.269  20.788  0.00  0.00    +0.000 Cl
ATOM     14  C   UNL     1       3.004   4.348  19.300  0.00  0.00    +0.000 A 
ATOM     15 CL   UNL     1       2.717   5.810  20.213  0.00  0.00    +0.000 Cl
ENDBRANCH   5   8
ENDBRANCH   1   2
BRANCH   1  16
ATOM     16  C   UNL     1       8.411   9.024  17.478  0.00  0.00    +0.000 C 
BRANCH  16  20
ATOM     17  C   UNL     1       9.803  12.503  19.821  0.00  0.00    +0.000 C 
ATOM     18  C   UNL     1       9.470  11.186  20.513  0.00  0.00    +0.000 C 
ATOM     19  C   UNL     1       9.415  10.011  19.559  0.00  0.00    +0.000 C 
ATOM     20  C   UNL     1       8.430  10.247  18.417  0.00  0.00    +0.000 C 
ATOM     21  C   UNL     1       8.825  11.530  17.664  0.00  0.00    +0.000 C 
ATOM     22  C   UNL     1       8.890  12.743  18.602  0.00  0.00    +0.000 C 
BRANCH  17  23
ATOM     23  N   UNL     1       9.649  13.619  20.761  0.00  0.00    +0.000 NA
ATOM     24  H   UNL     1       8.808  13.682  21.338  0.00  0.00    +0.000 HD
BRANCH  23  26
ATOM     25  C   UNL     1       9.387  16.163  19.886  0.00  0.00    +0.000 C 
ATOM     26  S   UNL     1      10.525  15.041  20.665  0.00  0.00    +0.000 S 
ATOM     27  O   UNL     1      11.680  14.862  19.817  0.00  0.00    +0.000 OA
ATOM     28  O   UNL     1      10.680  15.473  22.047  0.00  0.00    +0.000 OA
ENDBRANCH  23  26
ENDBRANCH  17  23
ENDBRANCH  16  20
ENDBRANCH   1  16
TORSDOF 6
ENDMDL
