MODEL 1
REMARK VINA RESULT:      -7.8      0.000      0.000
REMARK  Name = 
REMARK  6 active torsions:
REMARK  status: ('A' for Active; 'I' for Inactive)
REMARK    1  A    between atoms: C_1  and  N_2
REMARK    2  A    between atoms: N_2  and  C_3
REMARK    3  A    between atoms: N_2  and  S_7
REMARK    4  A    between atoms: C_3  and  C_4
REMARK    5  A    between atoms: C_4  and  C_5
REMARK    6  A    between atoms: S_7  and  C_10
REMARK                            x       y       z     vdW  Elec       q    Type
REMARK                         _______ _______ _______ _____ _____    ______ ____
ROOT
ATOM      1  C   UNL     1       5.465   4.843  16.926  0.00  0.00    +0.000 A 
ATOM      2  C   UNL     1       4.749   5.851  17.615  0.00  0.00    +0.000 A 
ATOM      3  C   UNL     1       3.648   5.507  18.388  0.00  0.00    +0.000 A 
ATOM      4  C   UNL     1       3.303   4.172  18.414  0.00  0.00    +0.000 A 
ATOM      5  C   UNL     1       3.967   3.172  17.723  0.00  0.00    +0.000 A 
ATOM      6  C   UNL     1       5.087   3.490  16.980  0.00  0.00    +0.000 A 
ATOM      7  C   UNL     1       3.302   1.849  17.967  0.00  0.00    +0.000 C 
ATOM      8  C   UNL     1       2.086   2.244  18.842  0.00  0.00    +0.000 C 
ATOM      9  N   UNL     1       2.231   3.671  19.127  0.00  0.00    +0.000 N 
ATOM     10  C   UNL     1       1.461   4.438  19.963  0.00  0.00    +0.000 C 
ATOM     11  O   UNL     1       0.442   4.024  20.510  0.00  0.00    +0.000 OA
ATOM     12  C   UNL     1       2.053   5.808  20.289  0.00  0.00    +0.000 C 
ATOM     13  C   UNL     1       2.773   6.478  19.114  0.00  0.00    +0.000 C 
ENDROOT
BRANCH   1  14
ATOM     14  S   UNL     1       6.941   5.379  16.093  0.00  0.00    +0.000 S 
ATOM     15  O   UNL     1       7.933   4.397  16.439  0.00  0.00    +0.000 OA
ATOM     16  O   UNL     1       7.125   6.780  16.405  0.00  0.00    +0.000 OA
BRANCH  14  18
ATOM     17  C   UNL     1       7.754   5.316  13.547  0.00  0.00    +0.000 C 
ATOM     18  N   UNL     1       6.546   5.264  14.422  0.00  0.00    +0.000 NA
BRANCH  18  19
ATOM     19  C   UNL     1       5.624   4.165  14.000  0.00  0.00    +0.000 C 
BRANCH  19  20
ATOM     20  C   UNL     1       6.053   3.467  12.718  0.00  0.00    +0.000 C 
BRANCH  20  21
ATOM     21  C   UNL     1       4.854   3.258  11.807  0.00  0.00    +0.000 C 
ATOM     22  N   UNL     1       3.860   3.084  11.050  0.00  0.00    +0.000 NA
ENDBRANCH  20  21
ENDBRANCH  19  20
ENDBRANCH  18  19
ENDBRANCH  14  18
ENDBRANCH   1  14
TORSDOF 5
ENDMDL
MODEL 2
REMARK VINA RESULT:      -7.7      2.876      4.417
REMARK  Name = 
REMARK  6 active torsions:
REMARK  status: ('A' for Active; 'I' for Inactive)
REMARK    1  A    between atoms: C_1  and  N_2
REMARK    2  A    between atoms: N_2  and  C_3
REMARK    3  A    between atoms: N_2  and  S_7
REMARK    4  A    between atoms: C_3  and  C_4
REMARK    5  A    between atoms: C_4  and  C_5
REMARK    6  A    between atoms: S_7  and  C_10
REMARK                            x       y       z     vdW  Elec       q    Type
REMARK                         _______ _______ _______ _____ _____    ______ ____
ROOT
ATOM      1  C   UNL     1       5.063   5.193  17.361  0.00  0.00    +0.000 A 
ATOM      2  C   UNL     1       4.262   5.916  18.277  0.00  0.00    +0.000 A 
ATOM      3  C   UNL     1       3.316   5.247  19.042  0.00  0.00    +0.000 A 
ATOM      4  C   UNL     1       3.202   3.889  18.837  0.00  0.00    +0.000 A 
ATOM      5  C   UNL     1       3.951   3.164  17.924  0.00  0.00    +0.000 A 
ATOM      6  C   UNL     1       4.922   3.806  17.182  0.00  0.00    +0.000 A 
ATOM      7  C   UNL     1       3.542   1.720  17.955  0.00  0.00    +0.000 C 
ATOM      8  C   UNL     1       2.371   1.727  18.970  0.00  0.00    +0.000 C 
ATOM      9  N   UNL     1       2.306   3.083  19.512  0.00  0.00    +0.000 N 
ATOM     10  C   UNL     1       1.506   3.538  20.529  0.00  0.00    +0.000 C 
ATOM     11  O   UNL     1       0.630   2.856  21.054  0.00  0.00    +0.000 OA
ATOM     12  C   UNL     1       1.892   4.913  21.070  0.00  0.00    +0.000 C 
ATOM     13  C   UNL     1       2.369   5.899  19.999  0.00  0.00    +0.000 C 
ENDROOT
BRANCH   1  14
ATOM     14  S   UNL     1       6.338   6.127  16.548  0.00  0.00    +0.000 S 
ATOM     15  O   UNL     1       5.634   6.992  15.639  0.00  0.00    +0.000 OA
ATOM     16  O   UNL     1       7.327   5.183  16.077  0.00  0.00    +0.000 OA
BRANCH  14  18
ATOM     17  C   UNL     1       7.865   6.206  18.741  0.00  0.00    +0.000 C 
ATOM     18  N   UNL     1       7.055   7.048  17.812  0.00  0.00    +0.000 NA
BRANCH  18  19
ATOM     19  C   UNL     1       7.794   8.292  17.431  0.00  0.00    +0.000 C 
BRANCH  19  20
ATOM     20  C   UNL     1       8.588   8.904  18.575  0.00  0.00    +0.000 C 
BRANCH  20  21
ATOM     21  C   UNL     1       8.917  10.356  18.270  0.00  0.00    +0.000 C 
ATOM     22  N   UNL     1       9.190  11.562  18.018  0.00  0.00    +0.000 NA
ENDBRANCH  20  21
ENDBRANCH  19  20
ENDBRANCH  18  19
ENDBRANCH  14  18
ENDBRANCH   1  14
TORSDOF 5
ENDMDL
MODEL 3
REMARK VINA RESULT:      -7.5      0.530      2.194
REMARK  Name = 
REMARK  6 active torsions:
REMARK  status: ('A' for Active; 'I' for Inactive)
REMARK    1  A    between atoms: C_1  and  N_2
REMARK    2  A    between atoms: N_2  and  C_3
REMARK    3  A    between atoms: N_2  and  S_7
REMARK    4  A    between atoms: C_3  and  C_4
REMARK    5  A    between atoms: C_4  and  C_5
REMARK    6  A    between atoms: S_7  and  C_10
REMARK                            x       y       z     vdW  Elec       q    Type
REMARK                         _______ _______ _______ _____ _____    ______ ____
ROOT
ATOM      1  C   UNL     1       5.693   5.126  17.148  0.00  0.00    +0.000 A 
ATOM      2  C   UNL     1       5.225   3.793  17.229  0.00  0.00    +0.000 A 
ATOM      3  C   UNL     1       4.027   3.522  17.874  0.00  0.00    +0.000 A 
ATOM      4  C   UNL     1       3.365   4.597  18.428  0.00  0.00    +0.000 A 
ATOM      5  C   UNL     1       3.817   5.905  18.391  0.00  0.00    +0.000 A 
ATOM      6  C   UNL     1       4.988   6.199  17.720  0.00  0.00    +0.000 A 
ATOM      7  C   UNL     1       2.855   6.802  19.113  0.00  0.00    +0.000 C 
ATOM      8  C   UNL     1       1.808   5.799  19.659  0.00  0.00    +0.000 C 
ATOM      9  N   UNL     1       2.167   4.493  19.109  0.00  0.00    +0.000 N 
ATOM     10  C   UNL     1       1.464   3.319  19.216  0.00  0.00    +0.000 C 
ATOM     11  O   UNL     1       0.460   3.197  19.913  0.00  0.00    +0.000 OA
ATOM     12  C   UNL     1       1.936   2.212  18.276  0.00  0.00    +0.000 C 
ATOM     13  C   UNL     1       3.454   2.155  18.082  0.00  0.00    +0.000 C 
ENDROOT
BRANCH   1  14
ATOM     14  S   UNL     1       7.158   5.372  16.171  0.00  0.00    +0.000 S 
ATOM     15  O   UNL     1       7.977   4.221  16.446  0.00  0.00    +0.000 OA
ATOM     16  O   UNL     1       7.629   6.714  16.434  0.00  0.00    +0.000 OA
BRANCH  14  18
ATOM     17  C   UNL     1       7.702   5.434  13.554  0.00  0.00    +0.000 C 
ATOM     18  N   UNL     1       6.592   5.325  14.547  0.00  0.00    +0.000 NA
BRANCH  18  19
ATOM     19  C   UNL     1       5.642   4.233  14.173  0.00  0.00    +0.000 C 
BRANCH  19  20
ATOM     20  C   UNL     1       6.074   3.440  12.949  0.00  0.00    +0.000 C 
BRANCH  20  21
ATOM     21  C   UNL     1       4.914   3.295  11.978  0.00  0.00    +0.000 C 
ATOM     22  N   UNL     1       3.951   3.175  11.172  0.00  0.00    +0.000 NA
ENDBRANCH  20  21
ENDBRANCH  19  20
ENDBRANCH  18  19
ENDBRANCH  14  18
ENDBRANCH   1  14
TORSDOF 5
ENDMDL
MODEL 4
REMARK VINA RESULT:      -7.2      2.585      4.049
REMARK  Name = 
REMARK  6 active torsions:
REMARK  status: ('A' for Active; 'I' for Inactive)
REMARK    1  A    between atoms: C_1  and  N_2
REMARK    2  A    between atoms: N_2  and  C_3
REMARK    3  A    between atoms: N_2  and  S_7
REMARK    4  A    between atoms: C_3  and  C_4
REMARK    5  A    between atoms: C_4  and  C_5
REMARK    6  A    between atoms: S_7  and  C_10
REMARK                            x       y       z     vdW  Elec       q    Type
REMARK                         _______ _______ _______ _____ _____    ______ ____
ROOT
ATOM      1  C   UNL     1       4.481   5.341  16.788  0.00  0.00    +0.000 A 
ATOM      2  C   UNL     1       4.132   3.975  16.906  0.00  0.00    +0.000 A 
ATOM      3  C   UNL     1       3.239   3.575  17.890  0.00  0.00    +0.000 A 
ATOM      4  C   UNL     1       2.754   4.561  18.724  0.00  0.00    +0.000 A 
ATOM      5  C   UNL     1       3.104   5.899  18.650  0.00  0.00    +0.000 A 
ATOM      6  C   UNL     1       3.962   6.321  17.653  0.00  0.00    +0.000 A 
ATOM      7  C   UNL     1       2.404   6.674  19.727  0.00  0.00    +0.000 C 
ATOM      8  C   UNL     1       1.654   5.563  20.503  0.00  0.00    +0.000 C 
ATOM      9  N   UNL     1       1.865   4.325  19.755  0.00  0.00    +0.000 N 
ATOM     10  C   UNL     1       1.297   3.099  19.990  0.00  0.00    +0.000 C 
ATOM     11  O   UNL     1       0.596   2.858  20.970  0.00  0.00    +0.000 OA
ATOM     12  C   UNL     1       1.472   2.092  18.855  0.00  0.00    +0.000 C 
ATOM     13  C   UNL     1       2.835   2.160  18.159  0.00  0.00    +0.000 C 
ENDROOT
BRANCH   1  14
ATOM     14  S   UNL     1       5.513   5.757  15.401  0.00  0.00    +0.000 S 
ATOM     15  O   UNL     1       5.065   7.061  14.990  0.00  0.00    +0.000 OA
ATOM     16  O   UNL     1       5.487   4.630  14.495  0.00  0.00    +0.000 OA
BRANCH  14  18
ATOM     17  C   UNL     1       7.356   7.168  16.727  0.00  0.00    +0.000 C 
ATOM     18  N   UNL     1       7.096   5.854  16.069  0.00  0.00    +0.000 NA
BRANCH  18  19
ATOM     19  C   UNL     1       7.557   4.722  16.930  0.00  0.00    +0.000 C 
BRANCH  19  20
ATOM     20  C   UNL     1       7.950   5.145  18.338  0.00  0.00    +0.000 C 
BRANCH  20  21
ATOM     21  C   UNL     1       6.833   4.819  19.317  0.00  0.00    +0.000 C 
ATOM     22  N   UNL     1       5.907   4.550  20.130  0.00  0.00    +0.000 NA
ENDBRANCH  20  21
ENDBRANCH  19  20
ENDBRANCH  18  19
ENDBRANCH  14  18
ENDBRANCH   1  14
TORSDOF 5
ENDMDL
MODEL 5
REMARK VINA RESULT:      -7.2      1.266      1.570
REMARK  Name = 
REMARK  6 active torsions:
REMARK  status: ('A' for Active; 'I' for Inactive)
REMARK    1  A    between atoms: C_1  and  N_2
REMARK    2  A    between atoms: N_2  and  C_3
REMARK    3  A    between atoms: N_2  and  S_7
REMARK    4  A    between atoms: C_3  and  C_4
REMARK    5  A    between atoms: C_4  and  C_5
REMARK    6  A    between atoms: S_7  and  C_10
REMARK                            x       y       z     vdW  Elec       q    Type
REMARK                         _______ _______ _______ _____ _____    ______ ____
ROOT
ATOM      1  C   UNL     1       4.597   5.401  17.061  0.00  0.00    +0.000 A 
ATOM      2  C   UNL     1       3.971   6.075  18.137  0.00  0.00    +0.000 A 
ATOM      3  C   UNL     1       3.142   5.373  19.001  0.00  0.00    +0.000 A 
ATOM      4  C   UNL     1       2.961   4.033  18.732  0.00  0.00    +0.000 A 
ATOM      5  C   UNL     1       3.535   3.357  17.668  0.00  0.00    +0.000 A 
ATOM      6  C   UNL     1       4.394   4.031  16.821  0.00  0.00    +0.000 A 
ATOM      7  C   UNL     1       3.099   1.921  17.674  0.00  0.00    +0.000 C 
ATOM      8  C   UNL     1       2.104   1.880  18.862  0.00  0.00    +0.000 C 
ATOM      9  N   UNL     1       2.162   3.199  19.490  0.00  0.00    +0.000 N 
ATOM     10  C   UNL     1       1.546   3.600  20.649  0.00  0.00    +0.000 C 
ATOM     11  O   UNL     1       0.747   2.899  21.264  0.00  0.00    +0.000 OA
ATOM     12  C   UNL     1       2.049   4.930  21.205  0.00  0.00    +0.000 C 
ATOM     13  C   UNL     1       2.376   5.976  20.135  0.00  0.00    +0.000 C 
ENDROOT
BRANCH   1  14
ATOM     14  S   UNL     1       5.752   6.365  16.114  0.00  0.00    +0.000 S 
ATOM     15  O   UNL     1       6.251   7.349  17.038  0.00  0.00    +0.000 OA
ATOM     16  O   UNL     1       5.086   6.750  14.889  0.00  0.00    +0.000 OA
BRANCH  14  18
ATOM     17  C   UNL     1       7.727   4.745  16.904  0.00  0.00    +0.000 C 
ATOM     18  N   UNL     1       6.995   5.249  15.704  0.00  0.00    +0.000 NA
BRANCH  18  19
ATOM     19  C   UNL     1       6.644   4.127  14.779  0.00  0.00    +0.000 C 
BRANCH  19  20
ATOM     20  C   UNL     1       6.873   4.452  13.311  0.00  0.00    +0.000 C 
BRANCH  20  21
ATOM     21  C   UNL     1       6.157   3.441  12.430  0.00  0.00    +0.000 C 
ATOM     22  N   UNL     1       5.563   2.602  11.700  0.00  0.00    +0.000 NA
ENDBRANCH  20  21
ENDBRANCH  19  20
ENDBRANCH  18  19
ENDBRANCH  14  18
ENDBRANCH   1  14
TORSDOF 5
ENDMDL
MODEL 6
REMARK VINA RESULT:      -7.1      2.530      6.723
REMARK  Name = 
REMARK  6 active torsions:
REMARK  status: ('A' for Active; 'I' for Inactive)
REMARK    1  A    between atoms: C_1  and  N_2
REMARK    2  A    between atoms: N_2  and  C_3
REMARK    3  A    between atoms: N_2  and  S_7
REMARK    4  A    between atoms: C_3  and  C_4
REMARK    5  A    between atoms: C_4  and  C_5
REMARK    6  A    between atoms: S_7  and  C_10
REMARK                            x       y       z     vdW  Elec       q    Type
REMARK                         _______ _______ _______ _____ _____    ______ ____
ROOT
ATOM      1  C   UNL     1       4.243   3.580  18.579  0.00  0.00    +0.000 A 
ATOM      2  C   UNL     1       4.155   3.304  17.193  0.00  0.00    +0.000 A 
ATOM      3  C   UNL     1       5.077   3.864  16.320  0.00  0.00    +0.000 A 
ATOM      4  C   UNL     1       6.030   4.693  16.873  0.00  0.00    +0.000 A 
ATOM      5  C   UNL     1       6.118   5.004  18.219  0.00  0.00    +0.000 A 
ATOM      6  C   UNL     1       5.233   4.426  19.109  0.00  0.00    +0.000 A 
ATOM      7  C   UNL     1       7.259   5.950  18.455  0.00  0.00    +0.000 C 
ATOM      8  C   UNL     1       7.774   6.215  17.018  0.00  0.00    +0.000 C 
ATOM      9  N   UNL     1       7.011   5.331  16.139  0.00  0.00    +0.000 N 
ATOM     10  C   UNL     1       7.196   5.126  14.795  0.00  0.00    +0.000 C 
ATOM     11  O   UNL     1       7.990   5.773  14.119  0.00  0.00    +0.000 OA
ATOM     12  C   UNL     1       6.450   3.918  14.232  0.00  0.00    +0.000 C 
ATOM     13  C   UNL     1       5.058   3.702  14.833  0.00  0.00    +0.000 C 
ENDROOT
BRANCH   1  14
ATOM     14  S   UNL     1       3.105   2.691  19.616  0.00  0.00    +0.000 S 
ATOM     15  O   UNL     1       3.848   2.410  20.816  0.00  0.00    +0.000 OA
ATOM     16  O   UNL     1       2.535   1.629  18.816  0.00  0.00    +0.000 OA
BRANCH  14  18
ATOM     17  C   UNL     1       0.511   3.188  20.032  0.00  0.00    +0.000 C 
ATOM     18  N   UNL     1       1.856   3.829  19.942  0.00  0.00    +0.000 NA
BRANCH  18  19
ATOM     19  C   UNL     1       2.070   4.791  21.066  0.00  0.00    +0.000 C 
BRANCH  19  20
ATOM     20  C   UNL     1       1.707   6.227  20.718  0.00  0.00    +0.000 C 
BRANCH  20  21
ATOM     21  C   UNL     1       2.333   6.621  19.391  0.00  0.00    +0.000 C 
ATOM     22  N   UNL     1       2.852   6.949  18.289  0.00  0.00    +0.000 NA
ENDBRANCH  20  21
ENDBRANCH  19  20
ENDBRANCH  18  19
ENDBRANCH  14  18
ENDBRANCH   1  14
TORSDOF 5
ENDMDL
MODEL 7
REMARK VINA RESULT:      -7.1      1.685      2.080
REMARK  Name = 
REMARK  6 active torsions:
REMARK  status: ('A' for Active; 'I' for Inactive)
REMARK    1  A    between atoms: C_1  and  N_2
REMARK    2  A    between atoms: N_2  and  C_3
REMARK    3  A    between atoms: N_2  and  S_7
REMARK    4  A    between atoms: C_3  and  C_4
REMARK    5  A    between atoms: C_4  and  C_5
REMARK    6  A    between atoms: S_7  and  C_10
REMARK                            x       y       z     vdW  Elec       q    Type
REMARK                         _______ _______ _______ _____ _____    ______ ____
ROOT
ATOM      1  C   UNL     1       4.547   5.410  17.020  0.00  0.00    +0.000 A 
ATOM      2  C   UNL     1       3.862   6.107  18.045  0.00  0.00    +0.000 A 
ATOM      3  C   UNL     1       3.067   5.406  18.940  0.00  0.00    +0.000 A 
ATOM      4  C   UNL     1       2.977   4.043  18.753  0.00  0.00    +0.000 A 
ATOM      5  C   UNL     1       3.610   3.342  17.740  0.00  0.00    +0.000 A 
ATOM      6  C   UNL     1       4.437   4.018  16.863  0.00  0.00    +0.000 A 
ATOM      7  C   UNL     1       3.268   1.884  17.831  0.00  0.00    +0.000 C 
ATOM      8  C   UNL     1       2.259   1.851  19.007  0.00  0.00    +0.000 C 
ATOM      9  N   UNL     1       2.221   3.207  19.553  0.00  0.00    +0.000 N 
ATOM     10  C   UNL     1       1.563   3.637  20.677  0.00  0.00    +0.000 C 
ATOM     11  O   UNL     1       0.801   2.924  21.325  0.00  0.00    +0.000 OA
ATOM     12  C   UNL     1       1.970   5.029  21.155  0.00  0.00    +0.000 C 
ATOM     13  C   UNL     1       2.246   6.026  20.026  0.00  0.00    +0.000 C 
ENDROOT
BRANCH   1  14
ATOM     14  S   UNL     1       5.652   6.388  16.029  0.00  0.00    +0.000 S 
ATOM     15  O   UNL     1       6.387   7.183  16.976  0.00  0.00    +0.000 OA
ATOM     16  O   UNL     1       4.862   7.001  14.984  0.00  0.00    +0.000 OA
BRANCH  14  18
ATOM     17  C   UNL     1       7.508   4.482  16.287  0.00  0.00    +0.000 C 
ATOM     18  N   UNL     1       6.689   5.232  15.290  0.00  0.00    +0.000 NA
BRANCH  18  19
ATOM     19  C   UNL     1       6.089   4.304  14.281  0.00  0.00    +0.000 C 
BRANCH  19  20
ATOM     20  C   UNL     1       6.847   4.263  12.963  0.00  0.00    +0.000 C 
BRANCH  20  21
ATOM     21  C   UNL     1       7.981   5.275  12.975  0.00  0.00    +0.000 C 
ATOM     22  N   UNL     1       8.922   6.116  12.986  0.00  0.00    +0.000 NA
ENDBRANCH  20  21
ENDBRANCH  19  20
ENDBRANCH  18  19
ENDBRANCH  14  18
ENDBRANCH   1  14
TORSDOF 5
ENDMDL
MODEL 8
REMARK VINA RESULT:      -7.0      1.881      3.199
REMARK  Name = 
REMARK  6 active torsions:
REMARK  status: ('A' for Active; 'I' for Inactive)
REMARK    1  A    between atoms: C_1  and  N_2
REMARK    2  A    between atoms: N_2  and  C_3
REMARK    3  A    between atoms: N_2  and  S_7
REMARK    4  A    between atoms: C_3  and  C_4
REMARK    5  A    between atoms: C_4  and  C_5
REMARK    6  A    between atoms: S_7  and  C_10
REMARK                            x       y       z     vdW  Elec       q    Type
REMARK                         _______ _______ _______ _____ _____    ______ ____
ROOT
ATOM      1  C   UNL     1       5.556   4.878  18.944  0.00  0.00    +0.000 A 
ATOM      2  C   UNL     1       5.232   3.599  18.429  0.00  0.00    +0.000 A 
ATOM      3  C   UNL     1       3.935   3.118  18.549  0.00  0.00    +0.000 A 
ATOM      4  C   UNL     1       3.031   3.930  19.200  0.00  0.00    +0.000 A 
ATOM      5  C   UNL     1       3.331   5.170  19.740  0.00  0.00    +0.000 A 
ATOM      6  C   UNL     1       4.605   5.682  19.597  0.00  0.00    +0.000 A 
ATOM      7  C   UNL     1       2.112   5.756  20.390  0.00  0.00    +0.000 C 
ATOM      8  C   UNL     1       1.067   4.623  20.223  0.00  0.00    +0.000 C 
ATOM      9  N   UNL     1       1.707   3.593  19.406  0.00  0.00    +0.000 N 
ATOM     10  C   UNL     1       1.134   2.456  18.897  0.00  0.00    +0.000 C 
ATOM     11  O   UNL     1      -0.008   2.096  19.171  0.00  0.00    +0.000 OA
ATOM     12  C   UNL     1       1.971   1.748  17.833  0.00  0.00    +0.000 C 
ATOM     13  C   UNL     1       3.478   1.765  18.104  0.00  0.00    +0.000 C 
ENDROOT
BRANCH   1  14
ATOM     14  S   UNL     1       7.203   5.451  18.601  0.00  0.00    +0.000 S 
ATOM     15  O   UNL     1       7.879   4.311  18.042  0.00  0.00    +0.000 OA
ATOM     16  O   UNL     1       7.688   6.103  19.798  0.00  0.00    +0.000 OA
BRANCH  14  18
ATOM     17  C   UNL     1       7.857   7.852  17.624  0.00  0.00    +0.000 C 
ATOM     18  N   UNL     1       6.985   6.662  17.399  0.00  0.00    +0.000 NA
BRANCH  18  19
ATOM     19  C   UNL     1       7.020   6.233  15.966  0.00  0.00    +0.000 C 
BRANCH  19  20
ATOM     20  C   UNL     1       5.702   5.661  15.468  0.00  0.00    +0.000 C 
BRANCH  20  21
ATOM     21  C   UNL     1       5.955   4.594  14.415  0.00  0.00    +0.000 C 
ATOM     22  N   UNL     1       6.164   3.708  13.542  0.00  0.00    +0.000 NA
ENDBRANCH  20  21
ENDBRANCH  19  20
ENDBRANCH  18  19
ENDBRANCH  14  18
ENDBRANCH   1  14
TORSDOF 5
ENDMDL
MODEL 9
REMARK VINA RESULT:      -7.0      2.568      3.886
REMARK  Name = 
REMARK  6 active torsions:
REMARK  status: ('A' for Active; 'I' for Inactive)
REMARK    1  A    between atoms: C_1  and  N_2
REMARK    2  A    between atoms: N_2  and  C_3
REMARK    3  A    between atoms: N_2  and  S_7
REMARK    4  A    between atoms: C_3  and  C_4
REMARK    5  A    between atoms: C_4  and  C_5
REMARK    6  A    between atoms: S_7  and  C_10
REMARK                            x       y       z     vdW  Elec       q    Type
REMARK                         _______ _______ _______ _____ _____    ______ ____
ROOT
ATOM      1  C   UNL     1       4.728   5.006  16.676  0.00  0.00    +0.000 A 
ATOM      2  C   UNL     1       3.990   5.846  17.545  0.00  0.00    +0.000 A 
ATOM      3  C   UNL     1       3.173   5.284  18.516  0.00  0.00    +0.000 A 
ATOM      4  C   UNL     1       3.116   3.907  18.556  0.00  0.00    +0.000 A 
ATOM      5  C   UNL     1       3.803   3.064  17.697  0.00  0.00    +0.000 A 
ATOM      6  C   UNL     1       4.650   3.605  16.750  0.00  0.00    +0.000 A 
ATOM      7  C   UNL     1       3.485   1.633  18.018  0.00  0.00    +0.000 C 
ATOM      8  C   UNL     1       2.431   1.770  19.146  0.00  0.00    +0.000 C 
ATOM      9  N   UNL     1       2.346   3.196  19.456  0.00  0.00    +0.000 N 
ATOM     10  C   UNL     1       1.635   3.790  20.468  0.00  0.00    +0.000 C 
ATOM     11  O   UNL     1       0.862   3.175  21.198  0.00  0.00    +0.000 OA
ATOM     12  C   UNL     1       1.997   5.252  20.721  0.00  0.00    +0.000 C 
ATOM     13  C   UNL     1       2.298   6.055  19.452  0.00  0.00    +0.000 C 
ENDROOT
BRANCH   1  14
ATOM     14  S   UNL     1       5.853   5.834  15.576  0.00  0.00    +0.000 S 
ATOM     15  O   UNL     1       5.172   7.044  15.200  0.00  0.00    +0.000 OA
ATOM     16  O   UNL     1       6.273   4.867  14.586  0.00  0.00    +0.000 OA
BRANCH  14  18
ATOM     17  C   UNL     1       7.200   7.607  17.055  0.00  0.00    +0.000 C 
ATOM     18  N   UNL     1       7.215   6.198  16.562  0.00  0.00    +0.000 NA
BRANCH  18  19
ATOM     19  C   UNL     1       7.548   5.246  17.666  0.00  0.00    +0.000 C 
BRANCH  19  20
ATOM     20  C   UNL     1       7.296   5.811  19.056  0.00  0.00    +0.000 C 
BRANCH  20  21
ATOM     21  C   UNL     1       8.335   5.286  20.034  0.00  0.00    +0.000 C 
ATOM     22  N   UNL     1       9.198   4.852  20.844  0.00  0.00    +0.000 NA
ENDBRANCH  20  21
ENDBRANCH  19  20
ENDBRANCH  18  19
ENDBRANCH  14  18
ENDBRANCH   1  14
TORSDOF 5
ENDMDL
