MODEL 1
REMARK VINA RESULT:      -8.4      0.000      0.000
REMARK  Name = 
REMARK  9 active torsions:
REMARK  status: ('A' for Active; 'I' for Inactive)
REMARK    1  A    between atoms: C_1  and  O_2
REMARK    2  A    between atoms: O_2  and  C_3
REMARK    3  A    between atoms: C_5  and  C_6
REMARK    4  A    between atoms: C_6  and  C_8
REMARK    5  A    between atoms: C_12  and  C_13
REMARK    6  A    between atoms: C_25  and  O_26
REMARK    7  A    between atoms: O_26  and  C_27
REMARK    8  A    between atoms: C_28  and  O_29
REMARK    9  A    between atoms: O_29  and  C_30
REMARK                            x       y       z     vdW  Elec       q    Type
REMARK                         _______ _______ _______ _____ _____    ______ ____
ROOT
ATOM      1  C   UNL     1       0.500   9.993  19.811  0.00  0.00    +0.000 A 
ATOM      2  C   UNL     1       0.379  10.106  21.208  0.00  0.00    +0.000 A 
ATOM      3  C   UNL     1       0.939   9.141  22.041  0.00  0.00    +0.000 A 
ATOM      4  C   UNL     1       1.631   8.069  21.488  0.00  0.00    +0.000 A 
ATOM      5  C   UNL     1       1.788   7.983  20.100  0.00  0.00    +0.000 A 
ATOM      6  N   UNL     1       1.198   8.939  19.253  0.00  0.00    +0.000 NA
ENDROOT
BRANCH   5   7
ATOM      7  C   UNL     1       2.397   6.733  19.486  0.00  0.00    +0.000 A 
ATOM      8  C   UNL     1       3.430   6.890  18.569  0.00  0.00    +0.000 A 
ATOM      9  N   UNL     1       3.869   5.934  17.714  0.00  0.00    +0.000 NA
ATOM     10  C   UNL     1       3.111   4.826  17.617  0.00  0.00    +0.000 A 
ATOM     11  C   UNL     1       2.030   4.551  18.426  0.00  0.00    +0.000 A 
ATOM     12  C   UNL     1       1.337   3.350  18.234  0.00  0.00    +0.000 A 
ATOM     13  C   UNL     1       0.957   2.633  19.362  0.00  0.00    +0.000 A 
ATOM     14  C   UNL     1       1.206   3.204  20.594  0.00  0.00    +0.000 A 
ATOM     15  C   UNL     1       1.556   4.578  20.705  0.00  0.00    +0.000 A 
ATOM     16  C   UNL     1       1.902   5.361  19.566  0.00  0.00    +0.000 A 
ENDBRANCH   5   7
BRANCH   1  17
ATOM     17  C   UNL     1      -0.175  11.120  19.043  0.00  0.00    +0.000 C 
ATOM     18  O   UNL     1       0.581  12.003  18.586  0.00  0.00    +0.000 OA
BRANCH  17  21
ATOM     19  C   UNL     1      -3.873  12.219  19.458  0.00  0.00    +0.000 A 
ATOM     20  C   UNL     1      -2.492  11.970  19.691  0.00  0.00    +0.000 A 
ATOM     21  C   UNL     1      -1.645  11.361  18.727  0.00  0.00    +0.000 A 
ATOM     22  C   UNL     1      -2.226  10.959  17.538  0.00  0.00    +0.000 A 
ATOM     23  C   UNL     1      -3.609  11.166  17.296  0.00  0.00    +0.000 A 
ATOM     24  C   UNL     1      -4.451  11.789  18.253  0.00  0.00    +0.000 A 
BRANCH  19  26
ATOM     25  C   UNL     1      -4.560  14.216  20.592  0.00  0.00    +0.000 C 
ATOM     26  O   UNL     1      -4.688  12.810  20.392  0.00  0.00    +0.000 OA
ENDBRANCH  19  26
BRANCH  23  27
ATOM     27  O   UNL     1      -3.963  10.675  16.061  0.00  0.00    +0.000 OA
ATOM     28  C   UNL     1      -2.985  10.605  15.034  0.00  0.00    +0.000 C 
ENDBRANCH  23  27
BRANCH  24  29
ATOM     29  O   UNL     1      -5.774  11.874  17.911  0.00  0.00    +0.000 OA
ATOM     30  C   UNL     1      -6.355  12.977  17.235  0.00  0.00    +0.000 C 
ENDBRANCH  24  29
ENDBRANCH  17  21
ENDBRANCH   1  17
TORSDOF 6
ENDMDL
MODEL 2
REMARK VINA RESULT:      -8.2      1.711      3.623
REMARK  Name = 
REMARK  9 active torsions:
REMARK  status: ('A' for Active; 'I' for Inactive)
REMARK    1  A    between atoms: C_1  and  O_2
REMARK    2  A    between atoms: O_2  and  C_3
REMARK    3  A    between atoms: C_5  and  C_6
REMARK    4  A    between atoms: C_6  and  C_8
REMARK    5  A    between atoms: C_12  and  C_13
REMARK    6  A    between atoms: C_25  and  O_26
REMARK    7  A    between atoms: O_26  and  C_27
REMARK    8  A    between atoms: C_28  and  O_29
REMARK    9  A    between atoms: O_29  and  C_30
REMARK                            x       y       z     vdW  Elec       q    Type
REMARK                         _______ _______ _______ _____ _____    ______ ____
ROOT
ATOM      1  C   UNL     1       1.110   9.106  19.241  0.00  0.00    +0.000 A 
ATOM      2  C   UNL     1       0.872   8.839  20.601  0.00  0.00    +0.000 A 
ATOM      3  C   UNL     1       1.387   7.687  21.191  0.00  0.00    +0.000 A 
ATOM      4  C   UNL     1       2.151   6.807  20.434  0.00  0.00    +0.000 A 
ATOM      5  C   UNL     1       2.424   7.098  19.092  0.00  0.00    +0.000 A 
ATOM      6  N   UNL     1       1.880   8.243  18.484  0.00  0.00    +0.000 NA
ENDROOT
BRANCH   5   7
ATOM      7  C   UNL     1       3.115   6.061  18.221  0.00  0.00    +0.000 A 
ATOM      8  C   UNL     1       2.383   4.948  17.822  0.00  0.00    +0.000 A 
ATOM      9  N   UNL     1       2.910   3.805  17.319  0.00  0.00    +0.000 NA
ATOM     10  C   UNL     1       4.247   3.675  17.405  0.00  0.00    +0.000 A 
ATOM     11  C   UNL     1       5.099   4.674  17.822  0.00  0.00    +0.000 A 
ATOM     12  C   UNL     1       6.475   4.416  17.846  0.00  0.00    +0.000 A 
ATOM     13  C   UNL     1       7.329   5.406  17.375  0.00  0.00    +0.000 A 
ATOM     14  C   UNL     1       6.765   6.611  17.008  0.00  0.00    +0.000 A 
ATOM     15  C   UNL     1       5.429   6.934  17.370  0.00  0.00    +0.000 A 
ATOM     16  C   UNL     1       4.536   5.958  17.903  0.00  0.00    +0.000 A 
ENDBRANCH   5   7
BRANCH   1  17
ATOM     17  C   UNL     1       0.470  10.395  18.747  0.00  0.00    +0.000 C 
ATOM     18  O   UNL     1       1.252  11.341  18.511  0.00  0.00    +0.000 OA
BRANCH  17  21
ATOM     19  C   UNL     1      -3.008  10.499  17.033  0.00  0.00    +0.000 A 
ATOM     20  C   UNL     1      -1.648  10.214  17.337  0.00  0.00    +0.000 A 
ATOM     21  C   UNL     1      -0.989  10.738  18.482  0.00  0.00    +0.000 A 
ATOM     22  C   UNL     1      -1.711  11.595  19.291  0.00  0.00    +0.000 A 
ATOM     23  C   UNL     1      -3.059  11.920  18.989  0.00  0.00    +0.000 A 
ATOM     24  C   UNL     1      -3.722  11.386  17.854  0.00  0.00    +0.000 A 
BRANCH  19  26
ATOM     25  C   UNL     1      -3.084  10.284  14.647  0.00  0.00    +0.000 C 
ATOM     26  O   UNL     1      -3.642   9.990  15.925  0.00  0.00    +0.000 OA
ENDBRANCH  19  26
BRANCH  23  27
ATOM     27  O   UNL     1      -3.566  12.797  19.920  0.00  0.00    +0.000 OA
ATOM     28  C   UNL     1      -2.673  13.599  20.678  0.00  0.00    +0.000 C 
ENDBRANCH  23  27
BRANCH  24  29
ATOM     29  O   UNL     1      -5.002  11.828  17.653  0.00  0.00    +0.000 OA
ATOM     30  C   UNL     1      -6.163  11.114  18.041  0.00  0.00    +0.000 C 
ENDBRANCH  24  29
ENDBRANCH  17  21
ENDBRANCH   1  17
TORSDOF 6
ENDMDL
MODEL 3
REMARK VINA RESULT:      -8.2      1.738      2.852
REMARK  Name = 
REMARK  9 active torsions:
REMARK  status: ('A' for Active; 'I' for Inactive)
REMARK    1  A    between atoms: C_1  and  O_2
REMARK    2  A    between atoms: O_2  and  C_3
REMARK    3  A    between atoms: C_5  and  C_6
REMARK    4  A    between atoms: C_6  and  C_8
REMARK    5  A    between atoms: C_12  and  C_13
REMARK    6  A    between atoms: C_25  and  O_26
REMARK    7  A    between atoms: O_26  and  C_27
REMARK    8  A    between atoms: C_28  and  O_29
REMARK    9  A    between atoms: O_29  and  C_30
REMARK                            x       y       z     vdW  Elec       q    Type
REMARK                         _______ _______ _______ _____ _____    ______ ____
ROOT
ATOM      1  C   UNL     1       1.225   9.036  19.296  0.00  0.00    +0.000 A 
ATOM      2  C   UNL     1       0.934   8.718  20.636  0.00  0.00    +0.000 A 
ATOM      3  C   UNL     1       1.393   7.524  21.189  0.00  0.00    +0.000 A 
ATOM      4  C   UNL     1       2.151   6.652  20.416  0.00  0.00    +0.000 A 
ATOM      5  C   UNL     1       2.476   6.992  19.098  0.00  0.00    +0.000 A 
ATOM      6  N   UNL     1       1.989   8.181  18.525  0.00  0.00    +0.000 NA
ENDROOT
BRANCH   5   7
ATOM      7  C   UNL     1       3.160   5.971  18.202  0.00  0.00    +0.000 A 
ATOM      8  C   UNL     1       2.432   4.854  17.808  0.00  0.00    +0.000 A 
ATOM      9  N   UNL     1       2.960   3.721  17.284  0.00  0.00    +0.000 NA
ATOM     10  C   UNL     1       4.300   3.606  17.340  0.00  0.00    +0.000 A 
ATOM     11  C   UNL     1       5.150   4.611  17.749  0.00  0.00    +0.000 A 
ATOM     12  C   UNL     1       6.529   4.367  17.741  0.00  0.00    +0.000 A 
ATOM     13  C   UNL     1       7.361   5.372  17.262  0.00  0.00    +0.000 A 
ATOM     14  C   UNL     1       6.777   6.574  16.918  0.00  0.00    +0.000 A 
ATOM     15  C   UNL     1       5.445   6.878  17.311  0.00  0.00    +0.000 A 
ATOM     16  C   UNL     1       4.575   5.887  17.854  0.00  0.00    +0.000 A 
ENDBRANCH   5   7
BRANCH   1  17
ATOM     17  C   UNL     1       0.643  10.366  18.841  0.00  0.00    +0.000 C 
ATOM     18  O   UNL     1       1.463  11.293  18.668  0.00  0.00    +0.000 OA
BRANCH  17  21
ATOM     19  C   UNL     1      -2.801  12.119  19.179  0.00  0.00    +0.000 A 
ATOM     20  C   UNL     1      -1.458  11.704  19.395  0.00  0.00    +0.000 A 
ATOM     21  C   UNL     1      -0.796  10.770  18.552  0.00  0.00    +0.000 A 
ATOM     22  C   UNL     1      -1.528  10.223  17.515  0.00  0.00    +0.000 A 
ATOM     23  C   UNL     1      -2.881  10.597  17.301  0.00  0.00    +0.000 A 
ATOM     24  C   UNL     1      -3.537  11.541  18.134  0.00  0.00    +0.000 A 
BRANCH  19  26
ATOM     25  C   UNL     1      -3.849  12.577  21.286  0.00  0.00    +0.000 C 
ATOM     26  O   UNL     1      -3.437  13.023  19.996  0.00  0.00    +0.000 OA
ENDBRANCH  19  26
BRANCH  23  27
ATOM     27  O   UNL     1      -3.407   9.917  16.228  0.00  0.00    +0.000 OA
ATOM     28  C   UNL     1      -3.146  10.383  14.913  0.00  0.00    +0.000 C 
ENDBRANCH  23  27
BRANCH  24  29
ATOM     29  O   UNL     1      -4.857  11.766  17.847  0.00  0.00    +0.000 OA
ATOM     30  C   UNL     1      -5.932  11.032  18.409  0.00  0.00    +0.000 C 
ENDBRANCH  24  29
ENDBRANCH  17  21
ENDBRANCH   1  17
TORSDOF 6
ENDMDL
MODEL 4
REMARK VINA RESULT:      -8.0      1.353      1.463
REMARK  Name = 
REMARK  9 active torsions:
REMARK  status: ('A' for Active; 'I' for Inactive)
REMARK    1  A    between atoms: C_1  and  O_2
REMARK    2  A    between atoms: O_2  and  C_3
REMARK    3  A    between atoms: C_5  and  C_6
REMARK    4  A    between atoms: C_6  and  C_8
REMARK    5  A    between atoms: C_12  and  C_13
REMARK    6  A    between atoms: C_25  and  O_26
REMARK    7  A    between atoms: O_26  and  C_27
REMARK    8  A    between atoms: C_28  and  O_29
REMARK    9  A    between atoms: O_29  and  C_30
REMARK                            x       y       z     vdW  Elec       q    Type
REMARK                         _______ _______ _______ _____ _____    ______ ____
ROOT
ATOM      1  C   UNL     1       1.085   9.167  19.362  0.00  0.00    +0.000 A 
ATOM      2  C   UNL     1       0.644   8.875  20.666  0.00  0.00    +0.000 A 
ATOM      3  C   UNL     1       1.101   7.736  21.323  0.00  0.00    +0.000 A 
ATOM      4  C   UNL     1       2.007   6.891  20.691  0.00  0.00    +0.000 A 
ATOM      5  C   UNL     1       2.477   7.207  19.411  0.00  0.00    +0.000 A 
ATOM      6  N   UNL     1       1.995   8.340  18.731  0.00  0.00    +0.000 NA
ENDROOT
BRANCH   5   7
ATOM      7  C   UNL     1       3.334   6.205  18.654  0.00  0.00    +0.000 A 
ATOM      8  C   UNL     1       4.134   6.676  17.619  0.00  0.00    +0.000 A 
ATOM      9  N   UNL     1       4.709   5.908  16.662  0.00  0.00    +0.000 NA
ATOM     10  C   UNL     1       4.305   4.625  16.605  0.00  0.00    +0.000 A 
ATOM     11  C   UNL     1       3.480   4.028  17.533  0.00  0.00    +0.000 A 
ATOM     12  C   UNL     1       3.152   2.676  17.367  0.00  0.00    +0.000 A 
ATOM     13  C   UNL     1       3.165   1.864  18.494  0.00  0.00    +0.000 A 
ATOM     14  C   UNL     1       3.407   2.467  19.712  0.00  0.00    +0.000 A 
ATOM     15  C   UNL     1       3.348   3.880  19.852  0.00  0.00    +0.000 A 
ATOM     16  C   UNL     1       3.283   4.747  18.722  0.00  0.00    +0.000 A 
ENDBRANCH   5   7
BRANCH   1  17
ATOM     17  C   UNL     1       0.484  10.439  18.781  0.00  0.00    +0.000 C 
ATOM     18  O   UNL     1       1.293  11.346  18.494  0.00  0.00    +0.000 OA
BRANCH  17  21
ATOM     19  C   UNL     1      -3.023  12.062  19.114  0.00  0.00    +0.000 A 
ATOM     20  C   UNL     1      -1.670  11.686  19.339  0.00  0.00    +0.000 A 
ATOM     21  C   UNL     1      -0.963  10.802  18.480  0.00  0.00    +0.000 A 
ATOM     22  C   UNL     1      -1.660  10.262  17.415  0.00  0.00    +0.000 A 
ATOM     23  C   UNL     1      -3.021  10.596  17.190  0.00  0.00    +0.000 A 
ATOM     24  C   UNL     1      -3.722  11.491  18.039  0.00  0.00    +0.000 A 
BRANCH  19  26
ATOM     25  C   UNL     1      -3.506  12.775  21.351  0.00  0.00    +0.000 C 
ATOM     26  O   UNL     1      -3.703  12.918  19.946  0.00  0.00    +0.000 OA
ENDBRANCH  19  26
BRANCH  23  27
ATOM     27  O   UNL     1      -3.506   9.931  16.088  0.00  0.00    +0.000 OA
ATOM     28  C   UNL     1      -3.218  10.431  14.791  0.00  0.00    +0.000 C 
ENDBRANCH  23  27
BRANCH  24  29
ATOM     29  O   UNL     1      -5.045  11.679  17.737  0.00  0.00    +0.000 OA
ATOM     30  C   UNL     1      -6.107  10.935  18.308  0.00  0.00    +0.000 C 
ENDBRANCH  24  29
ENDBRANCH  17  21
ENDBRANCH   1  17
TORSDOF 6
ENDMDL
MODEL 5
REMARK VINA RESULT:      -8.0      3.601      9.050
REMARK  Name = 
REMARK  9 active torsions:
REMARK  status: ('A' for Active; 'I' for Inactive)
REMARK    1  A    between atoms: C_1  and  O_2
REMARK    2  A    between atoms: O_2  and  C_3
REMARK    3  A    between atoms: C_5  and  C_6
REMARK    4  A    between atoms: C_6  and  C_8
REMARK    5  A    between atoms: C_12  and  C_13
REMARK    6  A    between atoms: C_25  and  O_26
REMARK    7  A    between atoms: O_26  and  C_27
REMARK    8  A    between atoms: C_28  and  O_29
REMARK    9  A    between atoms: O_29  and  C_30
REMARK                            x       y       z     vdW  Elec       q    Type
REMARK                         _______ _______ _______ _____ _____    ______ ____
ROOT
ATOM      1  C   UNL     1       1.419   8.472  19.934  0.00  0.00    +0.000 A 
ATOM      2  C   UNL     1       1.592   8.294  21.319  0.00  0.00    +0.000 A 
ATOM      3  C   UNL     1       0.810   9.012  22.221  0.00  0.00    +0.000 A 
ATOM      4  C   UNL     1      -0.153   9.897  21.749  0.00  0.00    +0.000 A 
ATOM      5  C   UNL     1      -0.352  10.039  20.370  0.00  0.00    +0.000 A 
ATOM      6  N   UNL     1       0.456   9.340  19.455  0.00  0.00    +0.000 NA
ENDROOT
BRANCH   5   7
ATOM      7  C   UNL     1      -1.283  11.123  19.851  0.00  0.00    +0.000 A 
ATOM      8  C   UNL     1      -1.531  12.220  20.668  0.00  0.00    +0.000 A 
ATOM      9  N   UNL     1      -2.547  13.103  20.504  0.00  0.00    +0.000 NA
ATOM     10  C   UNL     1      -3.489  12.769  19.603  0.00  0.00    +0.000 A 
ATOM     11  C   UNL     1      -3.403  11.687  18.754  0.00  0.00    +0.000 A 
ATOM     12  C   UNL     1      -4.446  11.462  17.847  0.00  0.00    +0.000 A 
ATOM     13  C   UNL     1      -4.109  11.103  16.548  0.00  0.00    +0.000 A 
ATOM     14  C   UNL     1      -2.772  10.901  16.269  0.00  0.00    +0.000 A 
ATOM     15  C   UNL     1      -1.819  10.770  17.315  0.00  0.00    +0.000 A 
ATOM     16  C   UNL     1      -2.140  11.079  18.670  0.00  0.00    +0.000 A 
ENDBRANCH   5   7
BRANCH   1  17
ATOM     17  C   UNL     1       2.357   7.626  19.085  0.00  0.00    +0.000 C 
ATOM     18  O   UNL     1       2.842   8.185  18.079  0.00  0.00    +0.000 OA
BRANCH  17  21
ATOM     19  C   UNL     1       4.673   4.515  19.194  0.00  0.00    +0.000 A 
ATOM     20  C   UNL     1       4.181   5.843  19.053  0.00  0.00    +0.000 A 
ATOM     21  C   UNL     1       2.817   6.185  19.256  0.00  0.00    +0.000 A 
ATOM     22  C   UNL     1       1.944   5.155  19.554  0.00  0.00    +0.000 A 
ATOM     23  C   UNL     1       2.405   3.818  19.667  0.00  0.00    +0.000 A 
ATOM     24  C   UNL     1       3.771   3.479  19.480  0.00  0.00    +0.000 A 
BRANCH  19  26
ATOM     25  C   UNL     1       6.621   4.651  17.805  0.00  0.00    +0.000 C 
ATOM     26  O   UNL     1       5.993   4.189  18.999  0.00  0.00    +0.000 OA
ENDBRANCH  19  26
BRANCH  23  27
ATOM     27  O   UNL     1       1.362   2.969  19.955  0.00  0.00    +0.000 OA
ATOM     28  C   UNL     1       0.595   2.425  18.891  0.00  0.00    +0.000 C 
ENDBRANCH  23  27
BRANCH  24  29
ATOM     29  O   UNL     1       4.066   2.144  19.563  0.00  0.00    +0.000 OA
ATOM     30  C   UNL     1       3.953   1.233  18.483  0.00  0.00    +0.000 C 
ENDBRANCH  24  29
ENDBRANCH  17  21
ENDBRANCH   1  17
TORSDOF 6
ENDMDL
MODEL 6
REMARK VINA RESULT:      -8.0      1.366      2.748
REMARK  Name = 
REMARK  9 active torsions:
REMARK  status: ('A' for Active; 'I' for Inactive)
REMARK    1  A    between atoms: C_1  and  O_2
REMARK    2  A    between atoms: O_2  and  C_3
REMARK    3  A    between atoms: C_5  and  C_6
REMARK    4  A    between atoms: C_6  and  C_8
REMARK    5  A    between atoms: C_12  and  C_13
REMARK    6  A    between atoms: C_25  and  O_26
REMARK    7  A    between atoms: O_26  and  C_27
REMARK    8  A    between atoms: C_28  and  O_29
REMARK    9  A    between atoms: O_29  and  C_30
REMARK                            x       y       z     vdW  Elec       q    Type
REMARK                         _______ _______ _______ _____ _____    ______ ____
ROOT
ATOM      1  C   UNL     1       1.072   9.144  19.356  0.00  0.00    +0.000 A 
ATOM      2  C   UNL     1       0.652   8.853  20.667  0.00  0.00    +0.000 A 
ATOM      3  C   UNL     1       1.131   7.721  21.322  0.00  0.00    +0.000 A 
ATOM      4  C   UNL     1       2.039   6.885  20.681  0.00  0.00    +0.000 A 
ATOM      5  C   UNL     1       2.489   7.201  19.394  0.00  0.00    +0.000 A 
ATOM      6  N   UNL     1       1.984   8.326  18.716  0.00  0.00    +0.000 NA
ENDROOT
BRANCH   5   7
ATOM      7  C   UNL     1       3.348   6.207  18.630  0.00  0.00    +0.000 A 
ATOM      8  C   UNL     1       4.122   6.683  17.578  0.00  0.00    +0.000 A 
ATOM      9  N   UNL     1       4.692   5.915  16.617  0.00  0.00    +0.000 NA
ATOM     10  C   UNL     1       4.308   4.626  16.576  0.00  0.00    +0.000 A 
ATOM     11  C   UNL     1       3.508   4.024  17.523  0.00  0.00    +0.000 A 
ATOM     12  C   UNL     1       3.199   2.666  17.374  0.00  0.00    +0.000 A 
ATOM     13  C   UNL     1       3.244   1.863  18.507  0.00  0.00    +0.000 A 
ATOM     14  C   UNL     1       3.498   2.479  19.715  0.00  0.00    +0.000 A 
ATOM     15  C   UNL     1       3.420   3.892  19.846  0.00  0.00    +0.000 A 
ATOM     16  C   UNL     1       3.321   4.749  18.710  0.00  0.00    +0.000 A 
ENDBRANCH   5   7
BRANCH   1  17
ATOM     17  C   UNL     1       0.449  10.406  18.778  0.00  0.00    +0.000 C 
ATOM     18  O   UNL     1       1.242  11.326  18.486  0.00  0.00    +0.000 OA
BRANCH  17  21
ATOM     19  C   UNL     1      -3.000  10.496  17.004  0.00  0.00    +0.000 A 
ATOM     20  C   UNL     1      -1.646  10.214  17.334  0.00  0.00    +0.000 A 
ATOM     21  C   UNL     1      -1.006  10.747  18.485  0.00  0.00    +0.000 A 
ATOM     22  C   UNL     1      -1.740  11.613  19.273  0.00  0.00    +0.000 A 
ATOM     23  C   UNL     1      -3.083  11.936  18.945  0.00  0.00    +0.000 A 
ATOM     24  C   UNL     1      -3.727  11.391  17.804  0.00  0.00    +0.000 A 
BRANCH  19  26
ATOM     25  C   UNL     1      -2.998  10.201  14.625  0.00  0.00    +0.000 C 
ATOM     26  O   UNL     1      -3.616   9.977  15.890  0.00  0.00    +0.000 OA
ENDBRANCH  19  26
BRANCH  23  27
ATOM     27  O   UNL     1      -3.604  12.822  19.859  0.00  0.00    +0.000 OA
ATOM     28  C   UNL     1      -2.760  13.362  20.865  0.00  0.00    +0.000 C 
ENDBRANCH  23  27
BRANCH  24  29
ATOM     29  O   UNL     1      -5.003  11.833  17.577  0.00  0.00    +0.000 OA
ATOM     30  C   UNL     1      -6.169  11.176  18.042  0.00  0.00    +0.000 C 
ENDBRANCH  24  29
ENDBRANCH  17  21
ENDBRANCH   1  17
TORSDOF 6
ENDMDL
MODEL 7
REMARK VINA RESULT:      -8.0      3.612      8.991
REMARK  Name = 
REMARK  9 active torsions:
REMARK  status: ('A' for Active; 'I' for Inactive)
REMARK    1  A    between atoms: C_1  and  O_2
REMARK    2  A    between atoms: O_2  and  C_3
REMARK    3  A    between atoms: C_5  and  C_6
REMARK    4  A    between atoms: C_6  and  C_8
REMARK    5  A    between atoms: C_12  and  C_13
REMARK    6  A    between atoms: C_25  and  O_26
REMARK    7  A    between atoms: O_26  and  C_27
REMARK    8  A    between atoms: C_28  and  O_29
REMARK    9  A    between atoms: O_29  and  C_30
REMARK                            x       y       z     vdW  Elec       q    Type
REMARK                         _______ _______ _______ _____ _____    ______ ____
ROOT
ATOM      1  C   UNL     1       1.499   8.412  19.774  0.00  0.00    +0.000 A 
ATOM      2  C   UNL     1       1.653   8.214  21.159  0.00  0.00    +0.000 A 
ATOM      3  C   UNL     1       0.853   8.911  22.061  0.00  0.00    +0.000 A 
ATOM      4  C   UNL     1      -0.110   9.795  21.589  0.00  0.00    +0.000 A 
ATOM      5  C   UNL     1      -0.291   9.958  20.211  0.00  0.00    +0.000 A 
ATOM      6  N   UNL     1       0.535   9.280  19.296  0.00  0.00    +0.000 NA
ENDROOT
BRANCH   5   7
ATOM      7  C   UNL     1      -1.224  11.042  19.695  0.00  0.00    +0.000 A 
ATOM      8  C   UNL     1      -1.458  12.145  20.509  0.00  0.00    +0.000 A 
ATOM      9  N   UNL     1      -2.472  13.031  20.351  0.00  0.00    +0.000 NA
ATOM     10  C   UNL     1      -3.425  12.696  19.463  0.00  0.00    +0.000 A 
ATOM     11  C   UNL     1      -3.353  11.609  18.619  0.00  0.00    +0.000 A 
ATOM     12  C   UNL     1      -4.407  11.383  17.724  0.00  0.00    +0.000 A 
ATOM     13  C   UNL     1      -4.086  11.016  16.424  0.00  0.00    +0.000 A 
ATOM     14  C   UNL     1      -2.753  10.806  16.131  0.00  0.00    +0.000 A 
ATOM     15  C   UNL     1      -1.789  10.678  17.168  0.00  0.00    +0.000 A 
ATOM     16  C   UNL     1      -2.094  10.996  18.524  0.00  0.00    +0.000 A 
ENDBRANCH   5   7
BRANCH   1  17
ATOM     17  C   UNL     1       2.454   7.587  18.926  0.00  0.00    +0.000 C 
ATOM     18  O   UNL     1       2.961   8.171  17.945  0.00  0.00    +0.000 OA
BRANCH  17  21
ATOM     19  C   UNL     1       2.375   3.787  19.706  0.00  0.00    +0.000 A 
ATOM     20  C   UNL     1       2.009   5.152  19.546  0.00  0.00    +0.000 A 
ATOM     21  C   UNL     1       2.912   6.142  19.071  0.00  0.00    +0.000 A 
ATOM     22  C   UNL     1       4.208   5.742  18.809  0.00  0.00    +0.000 A 
ATOM     23  C   UNL     1       4.606   4.392  18.994  0.00  0.00    +0.000 A 
ATOM     24  C   UNL     1       3.701   3.401  19.453  0.00  0.00    +0.000 A 
BRANCH  19  26
ATOM     25  C   UNL     1       1.459   2.588  21.568  0.00  0.00    +0.000 C 
ATOM     26  O   UNL     1       1.499   2.833  20.164  0.00  0.00    +0.000 OA
ENDBRANCH  19  26
BRANCH  23  27
ATOM     27  O   UNL     1       5.937   4.233  18.685  0.00  0.00    +0.000 OA
ATOM     28  C   UNL     1       6.455   4.835  17.508  0.00  0.00    +0.000 C 
ENDBRANCH  23  27
BRANCH  24  29
ATOM     29  O   UNL     1       4.234   2.153  19.639  0.00  0.00    +0.000 OA
ATOM     30  C   UNL     1       4.045   1.064  18.752  0.00  0.00    +0.000 C 
ENDBRANCH  24  29
ENDBRANCH  17  21
ENDBRANCH   1  17
TORSDOF 6
ENDMDL
MODEL 8
REMARK VINA RESULT:      -8.0      2.613      4.781
REMARK  Name = 
REMARK  9 active torsions:
REMARK  status: ('A' for Active; 'I' for Inactive)
REMARK    1  A    between atoms: C_1  and  O_2
REMARK    2  A    between atoms: O_2  and  C_3
REMARK    3  A    between atoms: C_5  and  C_6
REMARK    4  A    between atoms: C_6  and  C_8
REMARK    5  A    between atoms: C_12  and  C_13
REMARK    6  A    between atoms: C_25  and  O_26
REMARK    7  A    between atoms: O_26  and  C_27
REMARK    8  A    between atoms: C_28  and  O_29
REMARK    9  A    between atoms: O_29  and  C_30
REMARK                            x       y       z     vdW  Elec       q    Type
REMARK                         _______ _______ _______ _____ _____    ______ ____
ROOT
ATOM      1  C   UNL     1       2.340   7.584  18.923  0.00  0.00    +0.000 A 
ATOM      2  C   UNL     1       1.547   6.899  19.862  0.00  0.00    +0.000 A 
ATOM      3  C   UNL     1       1.957   5.664  20.360  0.00  0.00    +0.000 A 
ATOM      4  C   UNL     1       3.162   5.115  19.936  0.00  0.00    +0.000 A 
ATOM      5  C   UNL     1       3.970   5.819  19.035  0.00  0.00    +0.000 A 
ATOM      6  N   UNL     1       3.545   7.051  18.506  0.00  0.00    +0.000 NA
ENDROOT
BRANCH   5   7
ATOM      7  C   UNL     1       5.201   5.150  18.445  0.00  0.00    +0.000 A 
ATOM      8  C   UNL     1       6.319   5.003  19.257  0.00  0.00    +0.000 A 
ATOM      9  N   UNL     1       7.571   4.721  18.820  0.00  0.00    +0.000 NA
ATOM     10  C   UNL     1       7.769   4.789  17.491  0.00  0.00    +0.000 A 
ATOM     11  C   UNL     1       6.766   4.973  16.564  0.00  0.00    +0.000 A 
ATOM     12  C   UNL     1       7.105   5.005  15.206  0.00  0.00    +0.000 A 
ATOM     13  C   UNL     1       6.284   4.321  14.317  0.00  0.00    +0.000 A 
ATOM     14  C   UNL     1       5.140   3.740  14.824  0.00  0.00    +0.000 A 
ATOM     15  C   UNL     1       4.666   4.071  16.123  0.00  0.00    +0.000 A 
ATOM     16  C   UNL     1       5.457   4.815  17.047  0.00  0.00    +0.000 A 
ENDBRANCH   5   7
BRANCH   1  17
ATOM     17  C   UNL     1       1.747   8.910  18.470  0.00  0.00    +0.000 C 
ATOM     18  O   UNL     1       2.198   9.376  17.402  0.00  0.00    +0.000 OA
BRANCH  17  21
ATOM     19  C   UNL     1      -1.351  11.216  18.830  0.00  0.00    +0.000 A 
ATOM     20  C   UNL     1      -0.325  10.388  18.297  0.00  0.00    +0.000 A 
ATOM     21  C   UNL     1       0.675   9.784  19.106  0.00  0.00    +0.000 A 
ATOM     22  C   UNL     1       0.654  10.070  20.458  0.00  0.00    +0.000 A 
ATOM     23  C   UNL     1      -0.340  10.921  21.008  0.00  0.00    +0.000 A 
ATOM     24  C   UNL     1      -1.348  11.512  20.202  0.00  0.00    +0.000 A 
BRANCH  19  26
ATOM     25  C   UNL     1      -2.784  11.065  16.914  0.00  0.00    +0.000 C 
ATOM     26  O   UNL     1      -2.317  11.797  18.045  0.00  0.00    +0.000 OA
ENDBRANCH  19  26
BRANCH  23  27
ATOM     27  O   UNL     1      -0.154  11.071  22.362  0.00  0.00    +0.000 OA
ATOM     28  C   UNL     1      -0.334   9.953  23.218  0.00  0.00    +0.000 C 
ENDBRANCH  23  27
BRANCH  24  29
ATOM     29  O   UNL     1      -2.208  12.355  20.855  0.00  0.00    +0.000 OA
ATOM     30  C   UNL     1      -1.985  13.744  21.028  0.00  0.00    +0.000 C 
ENDBRANCH  24  29
ENDBRANCH  17  21
ENDBRANCH   1  17
TORSDOF 6
ENDMDL
MODEL 9
REMARK VINA RESULT:      -8.0      4.303      9.518
REMARK  Name = 
REMARK  9 active torsions:
REMARK  status: ('A' for Active; 'I' for Inactive)
REMARK    1  A    between atoms: C_1  and  O_2
REMARK    2  A    between atoms: O_2  and  C_3
REMARK    3  A    between atoms: C_5  and  C_6
REMARK    4  A    between atoms: C_6  and  C_8
REMARK    5  A    between atoms: C_12  and  C_13
REMARK    6  A    between atoms: C_25  and  O_26
REMARK    7  A    between atoms: O_26  and  C_27
REMARK    8  A    between atoms: C_28  and  O_29
REMARK    9  A    between atoms: O_29  and  C_30
REMARK                            x       y       z     vdW  Elec       q    Type
REMARK                         _______ _______ _______ _____ _____    ______ ____
ROOT
ATOM      1  C   UNL     1       1.970   7.870  19.351  0.00  0.00    +0.000 A 
ATOM      2  C   UNL     1       1.961   8.414  18.053  0.00  0.00    +0.000 A 
ATOM      3  C   UNL     1       1.455   9.692  17.831  0.00  0.00    +0.000 A 
ATOM      4  C   UNL     1       0.971  10.438  18.900  0.00  0.00    +0.000 A 
ATOM      5  C   UNL     1       1.022   9.912  20.196  0.00  0.00    +0.000 A 
ATOM      6  N   UNL     1       1.503   8.610  20.421  0.00  0.00    +0.000 NA
ENDROOT
BRANCH   5   7
ATOM      7  C   UNL     1       0.344  10.653  21.338  0.00  0.00    +0.000 A 
ATOM      8  C   UNL     1      -0.042   9.921  22.455  0.00  0.00    +0.000 A 
ATOM      9  N   UNL     1      -0.912  10.345  23.405  0.00  0.00    +0.000 NA
ATOM     10  C   UNL     1      -1.594  11.471  23.130  0.00  0.00    +0.000 A 
ATOM     11  C   UNL     1      -1.354  12.278  22.039  0.00  0.00    +0.000 A 
ATOM     12  C   UNL     1      -2.124  13.437  21.879  0.00  0.00    +0.000 A 
ATOM     13  C   UNL     1      -1.471  14.600  21.489  0.00  0.00    +0.000 A 
ATOM     14  C   UNL     1      -0.126  14.507  21.192  0.00  0.00    +0.000 A 
ATOM     15  C   UNL     1       0.495  13.242  21.004  0.00  0.00    +0.000 A 
ATOM     16  C   UNL     1      -0.161  12.023  21.345  0.00  0.00    +0.000 A 
ENDBRANCH   5   7
BRANCH   1  17
ATOM     17  C   UNL     1       2.543   6.462  19.422  0.00  0.00    +0.000 C 
ATOM     18  O   UNL     1       2.131   5.750  20.362  0.00  0.00    +0.000 OA
BRANCH  17  21
ATOM     19  C   UNL     1       5.599   5.884  17.103  0.00  0.00    +0.000 A 
ATOM     20  C   UNL     1       4.627   6.485  17.951  0.00  0.00    +0.000 A 
ATOM     21  C   UNL     1       3.550   5.757  18.526  0.00  0.00    +0.000 A 
ATOM     22  C   UNL     1       3.439   4.421  18.189  0.00  0.00    +0.000 A 
ATOM     23  C   UNL     1       4.377   3.808  17.318  0.00  0.00    +0.000 A 
ATOM     24  C   UNL     1       5.462   4.531  16.757  0.00  0.00    +0.000 A 
BRANCH  19  26
ATOM     25  C   UNL     1       7.498   7.309  17.435  0.00  0.00    +0.000 C 
ATOM     26  O   UNL     1       6.639   6.591  16.551  0.00  0.00    +0.000 OA
ENDBRANCH  19  26
BRANCH  23  27
ATOM     27  O   UNL     1       4.059   2.485  17.118  0.00  0.00    +0.000 OA
ATOM     28  C   UNL     1       3.475   1.741  18.177  0.00  0.00    +0.000 C 
ENDBRANCH  23  27
BRANCH  24  29
ATOM     29  O   UNL     1       6.256   3.829  15.890  0.00  0.00    +0.000 OA
ATOM     30  C   UNL     1       6.152   3.899  14.478  0.00  0.00    +0.000 C 
ENDBRANCH  24  29
ENDBRANCH  17  21
ENDBRANCH   1  17
TORSDOF 6
ENDMDL
