MODEL 1
REMARK VINA RESULT:      -7.2      0.000      0.000
REMARK  Name = 
REMARK  10 active torsions:
REMARK  status: ('A' for Active; 'I' for Inactive)
REMARK    1  A    between atoms: C_1  and  C_2
REMARK    2  A    between atoms: C_2  and  C_3
REMARK    3  A    between atoms: C_3  and  C_4
REMARK    4  A    between atoms: C_6  and  C_7
REMARK    5  A    between atoms: N_12  and  S_13
REMARK    6  A    between atoms: S_13  and  C_16
REMARK    7  A    between atoms: C_19  and  O_20
REMARK    8  A    between atoms: O_20  and  C_21
REMARK    9  A    between atoms: C_22  and  O_23
REMARK   10  A    between atoms: O_23  and  C_24
REMARK                            x       y       z     vdW  Elec       q    Type
REMARK                         _______ _______ _______ _____ _____    ______ ____
ROOT
ATOM      1  C   UNL     1       1.015   8.311  20.862  0.00  0.00    +0.000 C 
ATOM      2  O   UNL     1       0.611   8.270  22.038  0.00  0.00    +0.000 OA
ATOM      3  N   UNL     1       1.672   7.242  20.273  0.00  0.00    +0.000 N 
ATOM      4  C   UNL     1       1.803   5.981  20.993  0.00  0.00    +0.000 C 
ATOM      5  C   UNL     1       1.545   4.784  20.049  0.00  0.00    +0.000 C 
ATOM      6  N   UNL     1       2.411   4.831  18.811  0.00  0.00    +0.000 NA
ATOM      7  C   UNL     1       2.173   6.141  18.119  0.00  0.00    +0.000 C 
ATOM      8  C   UNL     1       2.484   7.315  19.055  0.00  0.00    +0.000 C 
ENDROOT
BRANCH   1  11
ATOM      9  C   UNL     1      -0.419  10.771  18.428  0.00  0.00    +0.000 A 
ATOM     10  C   UNL     1      -0.378   9.614  19.102  0.00  0.00    +0.000 A 
ATOM     11  C   UNL     1       0.731   9.457  20.004  0.00  0.00    +0.000 A 
ATOM     12  C   UNL     1       1.445  10.642  20.024  0.00  0.00    +0.000 A 
ATOM     13  S   UNL     1       0.827  11.821  18.940  0.00  0.00    +0.000 S 
BRANCH   9  14
ATOM     14  C   UNL     1      -1.442  11.175  17.395  0.00  0.00    +0.000 C 
BRANCH  14  16
ATOM     15  C   UNL     1      -2.819  10.054  15.610  0.00  0.00    +0.000 C 
ATOM     16  C   UNL     1      -2.373  10.003  17.063  0.00  0.00    +0.000 C 
ENDBRANCH  14  16
ENDBRANCH   9  14
ENDBRANCH   1  11
BRANCH   6  17
ATOM     17  S   UNL     1       4.052   4.380  19.096  0.00  0.00    +0.000 S 
ATOM     18  O   UNL     1       4.594   5.250  20.114  0.00  0.00    +0.000 OA
ATOM     19  O   UNL     1       4.085   2.941  19.260  0.00  0.00    +0.000 OA
BRANCH  17  20
ATOM     20  C   UNL     1       4.918   4.766  17.589  0.00  0.00    +0.000 A 
ATOM     21  C   UNL     1       4.691   4.015  16.437  0.00  0.00    +0.000 A 
ATOM     22  C   UNL     1       5.501   4.228  15.318  0.00  0.00    +0.000 A 
ATOM     23  C   UNL     1       6.505   5.214  15.316  0.00  0.00    +0.000 A 
ATOM     24  C   UNL     1       6.732   5.970  16.480  0.00  0.00    +0.000 A 
ATOM     25  C   UNL     1       5.962   5.700  17.620  0.00  0.00    +0.000 A 
BRANCH  23  26
ATOM     26  O   UNL     1       7.171   5.274  14.119  0.00  0.00    +0.000 OA
ATOM     27  C   UNL     1       6.868   4.303  13.124  0.00  0.00    +0.000 C 
ENDBRANCH  23  26
BRANCH  24  28
ATOM     28  O   UNL     1       7.716   6.922  16.467  0.00  0.00    +0.000 OA
ATOM     29  C   UNL     1       7.745   7.894  17.506  0.00  0.00    +0.000 C 
ENDBRANCH  24  28
ENDBRANCH  17  20
ENDBRANCH   6  17
TORSDOF 7
ENDMDL
MODEL 2
REMARK VINA RESULT:      -7.2      4.005      9.930
REMARK  Name = 
REMARK  10 active torsions:
REMARK  status: ('A' for Active; 'I' for Inactive)
REMARK    1  A    between atoms: C_1  and  C_2
REMARK    2  A    between atoms: C_2  and  C_3
REMARK    3  A    between atoms: C_3  and  C_4
REMARK    4  A    between atoms: C_6  and  C_7
REMARK    5  A    between atoms: N_12  and  S_13
REMARK    6  A    between atoms: S_13  and  C_16
REMARK    7  A    between atoms: C_19  and  O_20
REMARK    8  A    between atoms: O_20  and  C_21
REMARK    9  A    between atoms: C_22  and  O_23
REMARK   10  A    between atoms: O_23  and  C_24
REMARK                            x       y       z     vdW  Elec       q    Type
REMARK                         _______ _______ _______ _____ _____    ______ ____
ROOT
ATOM      1  C   UNL     1       2.452   7.931  18.229  0.00  0.00    +0.000 C 
ATOM      2  O   UNL     1       2.732   8.532  17.176  0.00  0.00    +0.000 OA
ATOM      3  N   UNL     1       1.714   8.527  19.241  0.00  0.00    +0.000 N 
ATOM      4  C   UNL     1       1.142   9.853  19.041  0.00  0.00    +0.000 C 
ATOM      5  C   UNL     1      -0.298   9.916  19.603  0.00  0.00    +0.000 C 
ATOM      6  N   UNL     1      -0.373   9.469  21.045  0.00  0.00    +0.000 NA
ATOM      7  C   UNL     1       0.196   8.084  21.139  0.00  0.00    +0.000 C 
ATOM      8  C   UNL     1       1.641   8.053  20.626  0.00  0.00    +0.000 C 
ENDROOT
BRANCH   1  11
ATOM      9  C   UNL     1       2.485   4.203  18.582  0.00  0.00    +0.000 A 
ATOM     10  C   UNL     1       1.911   5.398  18.391  0.00  0.00    +0.000 A 
ATOM     11  C   UNL     1       2.802   6.526  18.416  0.00  0.00    +0.000 A 
ATOM     12  C   UNL     1       4.098   6.055  18.528  0.00  0.00    +0.000 A 
ATOM     13  S   UNL     1       4.184   4.347  18.676  0.00  0.00    +0.000 S 
BRANCH   9  14
ATOM     14  C   UNL     1       1.783   2.868  18.645  0.00  0.00    +0.000 C 
BRANCH  14  16
ATOM     15  C   UNL     1       1.427   2.861  21.137  0.00  0.00    +0.000 C 
ATOM     16  C   UNL     1       0.749   2.849  19.777  0.00  0.00    +0.000 C 
ENDBRANCH  14  16
ENDBRANCH   9  14
ENDBRANCH   1  11
BRANCH   6  17
ATOM     17  S   UNL     1       0.221  10.640  22.164  0.00  0.00    +0.000 S 
ATOM     18  O   UNL     1       0.248  10.041  23.479  0.00  0.00    +0.000 OA
ATOM     19  O   UNL     1       1.420  11.218  21.593  0.00  0.00    +0.000 OA
BRANCH  17  20
ATOM     20  C   UNL     1      -1.017  11.917  22.217  0.00  0.00    +0.000 A 
ATOM     21  C   UNL     1      -0.700  13.218  21.826  0.00  0.00    +0.000 A 
ATOM     22  C   UNL     1      -1.636  14.235  22.032  0.00  0.00    +0.000 A 
ATOM     23  C   UNL     1      -2.903  13.966  22.581  0.00  0.00    +0.000 A 
ATOM     24  C   UNL     1      -3.219  12.654  22.976  0.00  0.00    +0.000 A 
ATOM     25  C   UNL     1      -2.249  11.653  22.830  0.00  0.00    +0.000 A 
BRANCH  23  26
ATOM     26  O   UNL     1      -3.675  15.095  22.684  0.00  0.00    +0.000 OA
ATOM     27  C   UNL     1      -3.502  15.935  23.819  0.00  0.00    +0.000 C 
ENDBRANCH  23  26
BRANCH  24  28
ATOM     28  O   UNL     1      -4.454  12.406  23.515  0.00  0.00    +0.000 OA
ATOM     29  C   UNL     1      -4.595  12.389  24.930  0.00  0.00    +0.000 C 
ENDBRANCH  24  28
ENDBRANCH  17  20
ENDBRANCH   6  17
TORSDOF 7
ENDMDL
MODEL 3
REMARK VINA RESULT:      -7.0      3.864      9.739
REMARK  Name = 
REMARK  10 active torsions:
REMARK  status: ('A' for Active; 'I' for Inactive)
REMARK    1  A    between atoms: C_1  and  C_2
REMARK    2  A    between atoms: C_2  and  C_3
REMARK    3  A    between atoms: C_3  and  C_4
REMARK    4  A    between atoms: C_6  and  C_7
REMARK    5  A    between atoms: N_12  and  S_13
REMARK    6  A    between atoms: S_13  and  C_16
REMARK    7  A    between atoms: C_19  and  O_20
REMARK    8  A    between atoms: O_20  and  C_21
REMARK    9  A    between atoms: C_22  and  O_23
REMARK   10  A    between atoms: O_23  and  C_24
REMARK                            x       y       z     vdW  Elec       q    Type
REMARK                         _______ _______ _______ _____ _____    ______ ____
ROOT
ATOM      1  C   UNL     1       2.394   8.024  18.237  0.00  0.00    +0.000 C 
ATOM      2  O   UNL     1       2.665   8.612  17.174  0.00  0.00    +0.000 OA
ATOM      3  N   UNL     1       1.645   8.624  19.238  0.00  0.00    +0.000 N 
ATOM      4  C   UNL     1       1.051   9.936  19.017  0.00  0.00    +0.000 C 
ATOM      5  C   UNL     1      -0.389   9.984  19.576  0.00  0.00    +0.000 C 
ATOM      6  N   UNL     1      -0.458   9.560  21.025  0.00  0.00    +0.000 NA
ATOM      7  C   UNL     1       0.134   8.186  21.142  0.00  0.00    +0.000 C 
ATOM      8  C   UNL     1       1.580   8.171  20.630  0.00  0.00    +0.000 C 
ENDROOT
BRANCH   1  11
ATOM      9  C   UNL     1       2.478   4.319  18.781  0.00  0.00    +0.000 A 
ATOM     10  C   UNL     1       1.883   5.507  18.610  0.00  0.00    +0.000 A 
ATOM     11  C   UNL     1       2.768   6.628  18.446  0.00  0.00    +0.000 A 
ATOM     12  C   UNL     1       4.066   6.153  18.396  0.00  0.00    +0.000 A 
ATOM     13  S   UNL     1       4.173   4.455  18.621  0.00  0.00    +0.000 S 
BRANCH   9  14
ATOM     14  C   UNL     1       1.792   2.995  19.016  0.00  0.00    +0.000 C 
BRANCH  14  16
ATOM     15  C   UNL     1       1.873   2.931  21.531  0.00  0.00    +0.000 C 
ATOM     16  C   UNL     1       0.973   3.028  20.311  0.00  0.00    +0.000 C 
ENDBRANCH  14  16
ENDBRANCH   9  14
ENDBRANCH   1  11
BRANCH   6  17
ATOM     17  S   UNL     1       0.115  10.758  22.126  0.00  0.00    +0.000 S 
ATOM     18  O   UNL     1       0.335  10.131  23.409  0.00  0.00    +0.000 OA
ATOM     19  O   UNL     1       1.183  11.480  21.466  0.00  0.00    +0.000 OA
BRANCH  17  20
ATOM     20  C   UNL     1      -1.241  11.890  22.344  0.00  0.00    +0.000 A 
ATOM     21  C   UNL     1      -2.229  11.626  23.292  0.00  0.00    +0.000 A 
ATOM     22  C   UNL     1      -3.367  12.439  23.330  0.00  0.00    +0.000 A 
ATOM     23  C   UNL     1      -3.511  13.539  22.467  0.00  0.00    +0.000 A 
ATOM     24  C   UNL     1      -2.513  13.802  21.510  0.00  0.00    +0.000 A 
ATOM     25  C   UNL     1      -1.410  12.940  21.433  0.00  0.00    +0.000 A 
BRANCH  23  26
ATOM     26  O   UNL     1      -4.686  14.214  22.677  0.00  0.00    +0.000 OA
ATOM     27  C   UNL     1      -5.884  13.679  22.127  0.00  0.00    +0.000 C 
ENDBRANCH  23  26
BRANCH  24  28
ATOM     28  O   UNL     1      -2.668  14.873  20.672  0.00  0.00    +0.000 OA
ATOM     29  C   UNL     1      -1.542  15.695  20.392  0.00  0.00    +0.000 C 
ENDBRANCH  24  28
ENDBRANCH  17  20
ENDBRANCH   6  17
TORSDOF 7
ENDMDL
MODEL 4
REMARK VINA RESULT:      -7.0      3.694      9.755
REMARK  Name = 
REMARK  10 active torsions:
REMARK  status: ('A' for Active; 'I' for Inactive)
REMARK    1  A    between atoms: C_1  and  C_2
REMARK    2  A    between atoms: C_2  and  C_3
REMARK    3  A    between atoms: C_3  and  C_4
REMARK    4  A    between atoms: C_6  and  C_7
REMARK    5  A    between atoms: N_12  and  S_13
REMARK    6  A    between atoms: S_13  and  C_16
REMARK    7  A    between atoms: C_19  and  O_20
REMARK    8  A    between atoms: O_20  and  C_21
REMARK    9  A    between atoms: C_22  and  O_23
REMARK   10  A    between atoms: O_23  and  C_24
REMARK                            x       y       z     vdW  Elec       q    Type
REMARK                         _______ _______ _______ _____ _____    ______ ____
ROOT
ATOM      1  C   UNL     1       2.992   7.592  17.874  0.00  0.00    +0.000 C 
ATOM      2  O   UNL     1       3.461   7.958  16.781  0.00  0.00    +0.000 OA
ATOM      3  N   UNL     1       2.172   8.412  18.635  0.00  0.00    +0.000 N 
ATOM      4  C   UNL     1       1.741   9.701  18.106  0.00  0.00    +0.000 C 
ATOM      5  C   UNL     1       0.247   9.947  18.424  0.00  0.00    +0.000 C 
ATOM      6  N   UNL     1      -0.060   9.797  19.896  0.00  0.00    +0.000 NA
ATOM      7  C   UNL     1       0.379   8.430  20.332  0.00  0.00    +0.000 C 
ATOM      8  C   UNL     1       1.873   8.224  20.057  0.00  0.00    +0.000 C 
ENDROOT
BRANCH   1  11
ATOM      9  C   UNL     1       2.684   4.004  18.904  0.00  0.00    +0.000 A 
ATOM     10  C   UNL     1       2.241   5.165  18.405  0.00  0.00    +0.000 A 
ATOM     11  C   UNL     1       3.201   6.235  18.371  0.00  0.00    +0.000 A 
ATOM     12  C   UNL     1       4.423   5.735  18.782  0.00  0.00    +0.000 A 
ATOM     13  S   UNL     1       4.355   4.086  19.252  0.00  0.00    +0.000 S 
BRANCH   9  14
ATOM     14  C   UNL     1       1.881   2.740  19.093  0.00  0.00    +0.000 C 
BRANCH  14  16
ATOM     15  C   UNL     1       1.616   2.760  21.597  0.00  0.00    +0.000 C 
ATOM     16  C   UNL     1       0.900   2.887  20.262  0.00  0.00    +0.000 C 
ENDBRANCH  14  16
ENDBRANCH   9  14
ENDBRANCH   1  11
BRANCH   6  17
ATOM     17  S   UNL     1       0.466  11.133  20.853  0.00  0.00    +0.000 S 
ATOM     18  O   UNL     1       1.278  10.627  21.936  0.00  0.00    +0.000 OA
ATOM     19  O   UNL     1       0.985  12.138  19.949  0.00  0.00    +0.000 OA
BRANCH  17  20
ATOM     20  C   UNL     1      -1.010  11.794  21.597  0.00  0.00    +0.000 A 
ATOM     21  C   UNL     1      -1.295  11.537  22.938  0.00  0.00    +0.000 A 
ATOM     22  C   UNL     1      -2.535  11.925  23.454  0.00  0.00    +0.000 A 
ATOM     23  C   UNL     1      -3.478  12.606  22.663  0.00  0.00    +0.000 A 
ATOM     24  C   UNL     1      -3.188  12.862  21.311  0.00  0.00    +0.000 A 
ATOM     25  C   UNL     1      -1.971  12.408  20.784  0.00  0.00    +0.000 A 
BRANCH  23  26
ATOM     26  O   UNL     1      -4.619  12.910  23.361  0.00  0.00    +0.000 OA
ATOM     27  C   UNL     1      -4.731  12.460  24.707  0.00  0.00    +0.000 C 
ENDBRANCH  23  26
BRANCH  24  28
ATOM     28  O   UNL     1      -4.117  13.521  20.550  0.00  0.00    +0.000 OA
ATOM     29  C   UNL     1      -5.051  12.760  19.794  0.00  0.00    +0.000 C 
ENDBRANCH  24  28
ENDBRANCH  17  20
ENDBRANCH   6  17
TORSDOF 7
ENDMDL
MODEL 5
REMARK VINA RESULT:      -6.7      4.127     10.095
REMARK  Name = 
REMARK  10 active torsions:
REMARK  status: ('A' for Active; 'I' for Inactive)
REMARK    1  A    between atoms: C_1  and  C_2
REMARK    2  A    between atoms: C_2  and  C_3
REMARK    3  A    between atoms: C_3  and  C_4
REMARK    4  A    between atoms: C_6  and  C_7
REMARK    5  A    between atoms: N_12  and  S_13
REMARK    6  A    between atoms: S_13  and  C_16
REMARK    7  A    between atoms: C_19  and  O_20
REMARK    8  A    between atoms: O_20  and  C_21
REMARK    9  A    between atoms: C_22  and  O_23
REMARK   10  A    between atoms: O_23  and  C_24
REMARK                            x       y       z     vdW  Elec       q    Type
REMARK                         _______ _______ _______ _____ _____    ______ ____
ROOT
ATOM      1  C   UNL     1       2.316   8.174  18.427  0.00  0.00    +0.000 C 
ATOM      2  O   UNL     1       2.559   8.699  17.325  0.00  0.00    +0.000 OA
ATOM      3  N   UNL     1       1.502   8.785  19.370  0.00  0.00    +0.000 N 
ATOM      4  C   UNL     1       0.808  10.024  19.039  0.00  0.00    +0.000 C 
ATOM      5  C   UNL     1      -0.642   9.996  19.575  0.00  0.00    +0.000 C 
ATOM      6  N   UNL     1      -0.704   9.679  21.051  0.00  0.00    +0.000 NA
ATOM      7  C   UNL     1      -0.004   8.371  21.282  0.00  0.00    +0.000 C 
ATOM      8  C   UNL     1       1.447   8.436  20.792  0.00  0.00    +0.000 C 
ENDROOT
BRANCH   1  11
ATOM      9  C   UNL     1       2.795   4.687  19.708  0.00  0.00    +0.000 A 
ATOM     10  C   UNL     1       2.147   5.852  19.574  0.00  0.00    +0.000 A 
ATOM     11  C   UNL     1       2.797   6.834  18.749  0.00  0.00    +0.000 A 
ATOM     12  C   UNL     1       3.925   6.257  18.193  0.00  0.00    +0.000 A 
ATOM     13  S   UNL     1       4.193   4.648  18.727  0.00  0.00    +0.000 S 
BRANCH   9  14
ATOM     14  C   UNL     1       2.361   3.508  20.544  0.00  0.00    +0.000 C 
BRANCH  14  16
ATOM     15  C   UNL     1       0.871   2.424  18.829  0.00  0.00    +0.000 C 
ATOM     16  C   UNL     1       0.929   3.089  20.195  0.00  0.00    +0.000 C 
ENDBRANCH  14  16
ENDBRANCH   9  14
ENDBRANCH   1  11
BRANCH   6  17
ATOM     17  S   UNL     1      -0.250  11.001  22.063  0.00  0.00    +0.000 S 
ATOM     18  O   UNL     1      -0.097  10.511  23.413  0.00  0.00    +0.000 OA
ATOM     19  O   UNL     1       0.834  11.700  21.405  0.00  0.00    +0.000 OA
BRANCH  17  20
ATOM     20  C   UNL     1      -1.658  12.091  22.078  0.00  0.00    +0.000 A 
ATOM     21  C   UNL     1      -1.863  12.986  21.029  0.00  0.00    +0.000 A 
ATOM     22  C   UNL     1      -2.876  13.943  21.143  0.00  0.00    +0.000 A 
ATOM     23  C   UNL     1      -3.718  13.990  22.268  0.00  0.00    +0.000 A 
ATOM     24  C   UNL     1      -3.507  13.086  23.326  0.00  0.00    +0.000 A 
ATOM     25  C   UNL     1      -2.445  12.177  23.234  0.00  0.00    +0.000 A 
BRANCH  23  26
ATOM     26  O   UNL     1      -4.655  14.987  22.175  0.00  0.00    +0.000 OA
ATOM     27  C   UNL     1      -4.223  16.290  21.796  0.00  0.00    +0.000 C 
ENDBRANCH  23  26
BRANCH  24  28
ATOM     28  O   UNL     1      -4.330  13.146  24.419  0.00  0.00    +0.000 OA
ATOM     29  C   UNL     1      -5.571  12.452  24.383  0.00  0.00    +0.000 C 
ENDBRANCH  24  28
ENDBRANCH  17  20
ENDBRANCH   6  17
TORSDOF 7
ENDMDL
MODEL 6
REMARK VINA RESULT:      -6.7      1.086      1.277
REMARK  Name = 
REMARK  10 active torsions:
REMARK  status: ('A' for Active; 'I' for Inactive)
REMARK    1  A    between atoms: C_1  and  C_2
REMARK    2  A    between atoms: C_2  and  C_3
REMARK    3  A    between atoms: C_3  and  C_4
REMARK    4  A    between atoms: C_6  and  C_7
REMARK    5  A    between atoms: N_12  and  S_13
REMARK    6  A    between atoms: S_13  and  C_16
REMARK    7  A    between atoms: C_19  and  O_20
REMARK    8  A    between atoms: O_20  and  C_21
REMARK    9  A    between atoms: C_22  and  O_23
REMARK   10  A    between atoms: O_23  and  C_24
REMARK                            x       y       z     vdW  Elec       q    Type
REMARK                         _______ _______ _______ _____ _____    ______ ____
ROOT
ATOM      1  C   UNL     1       1.568   7.497  20.580  0.00  0.00    +0.000 C 
ATOM      2  O   UNL     1       1.258   7.561  21.783  0.00  0.00    +0.000 OA
ATOM      3  N   UNL     1       1.993   6.315  19.991  0.00  0.00    +0.000 N 
ATOM      4  C   UNL     1       1.976   5.074  20.756  0.00  0.00    +0.000 C 
ATOM      5  C   UNL     1       1.452   3.906  19.887  0.00  0.00    +0.000 C 
ATOM      6  N   UNL     1       2.211   3.771  18.587  0.00  0.00    +0.000 NA
ATOM      7  C   UNL     1       2.133   5.079  17.857  0.00  0.00    +0.000 C 
ATOM      8  C   UNL     1       2.705   6.216  18.714  0.00  0.00    +0.000 C 
ENDROOT
BRANCH   1  11
ATOM      9  C   UNL     1       0.492  10.649  18.865  0.00  0.00    +0.000 A 
ATOM     10  C   UNL     1       0.428   9.696  19.805  0.00  0.00    +0.000 A 
ATOM     11  C   UNL     1       1.404   8.646  19.694  0.00  0.00    +0.000 A 
ATOM     12  C   UNL     1       2.267   8.962  18.660  0.00  0.00    +0.000 A 
ATOM     13  S   UNL     1       1.839  10.409  17.842  0.00  0.00    +0.000 S 
BRANCH   9  14
ATOM     14  C   UNL     1      -0.431  11.834  18.721  0.00  0.00    +0.000 C 
BRANCH  14  16
ATOM     15  C   UNL     1      -2.011  10.543  17.246  0.00  0.00    +0.000 C 
ATOM     16  C   UNL     1      -1.878  11.376  18.510  0.00  0.00    +0.000 C 
ENDBRANCH  14  16
ENDBRANCH   9  14
ENDBRANCH   1  11
BRANCH   6  17
ATOM     17  S   UNL     1       3.774   3.065  18.769  0.00  0.00    +0.000 S 
ATOM     18  O   UNL     1       4.278   3.400  20.081  0.00  0.00    +0.000 OA
ATOM     19  O   UNL     1       3.679   1.682  18.347  0.00  0.00    +0.000 OA
BRANCH  17  20
ATOM     20  C   UNL     1       4.816   3.910  17.599  0.00  0.00    +0.000 A 
ATOM     21  C   UNL     1       4.701   3.641  16.235  0.00  0.00    +0.000 A 
ATOM     22  C   UNL     1       5.637   4.190  15.354  0.00  0.00    +0.000 A 
ATOM     23  C   UNL     1       6.661   5.041  15.809  0.00  0.00    +0.000 A 
ATOM     24  C   UNL     1       6.775   5.309  17.185  0.00  0.00    +0.000 A 
ATOM     25  C   UNL     1       5.874   4.699  18.068  0.00  0.00    +0.000 A 
BRANCH  23  26
ATOM     26  O   UNL     1       7.459   5.485  14.786  0.00  0.00    +0.000 OA
ATOM     27  C   UNL     1       7.322   4.879  13.506  0.00  0.00    +0.000 C 
ENDBRANCH  23  26
BRANCH  24  28
ATOM     28  O   UNL     1       7.779   6.135  17.615  0.00  0.00    +0.000 OA
ATOM     29  C   UNL     1       7.579   7.543  17.566  0.00  0.00    +0.000 C 
ENDBRANCH  24  28
ENDBRANCH  17  20
ENDBRANCH   6  17
TORSDOF 7
ENDMDL
MODEL 7
REMARK VINA RESULT:      -6.5      4.065      9.923
REMARK  Name = 
REMARK  10 active torsions:
REMARK  status: ('A' for Active; 'I' for Inactive)
REMARK    1  A    between atoms: C_1  and  C_2
REMARK    2  A    between atoms: C_2  and  C_3
REMARK    3  A    between atoms: C_3  and  C_4
REMARK    4  A    between atoms: C_6  and  C_7
REMARK    5  A    between atoms: N_12  and  S_13
REMARK    6  A    between atoms: S_13  and  C_16
REMARK    7  A    between atoms: C_19  and  O_20
REMARK    8  A    between atoms: O_20  and  C_21
REMARK    9  A    between atoms: C_22  and  O_23
REMARK   10  A    between atoms: O_23  and  C_24
REMARK                            x       y       z     vdW  Elec       q    Type
REMARK                         _______ _______ _______ _____ _____    ______ ____
ROOT
ATOM      1  C   UNL     1       2.271   8.293  18.258  0.00  0.00    +0.000 C 
ATOM      2  O   UNL     1       2.518   8.919  17.212  0.00  0.00    +0.000 OA
ATOM      3  N   UNL     1       1.509   8.840  19.280  0.00  0.00    +0.000 N 
ATOM      4  C   UNL     1       0.875  10.140  19.100  0.00  0.00    +0.000 C 
ATOM      5  C   UNL     1      -0.564  10.128  19.666  0.00  0.00    +0.000 C 
ATOM      6  N   UNL     1      -0.613   9.659  21.102  0.00  0.00    +0.000 NA
ATOM      7  C   UNL     1       0.021   8.301  21.177  0.00  0.00    +0.000 C 
ATOM      8  C   UNL     1       1.464   8.344  20.659  0.00  0.00    +0.000 C 
ENDROOT
BRANCH   1  11
ATOM      9  C   UNL     1       2.495   4.561  18.487  0.00  0.00    +0.000 A 
ATOM     10  C   UNL     1       1.869   5.729  18.292  0.00  0.00    +0.000 A 
ATOM     11  C   UNL     1       2.687   6.904  18.425  0.00  0.00    +0.000 A 
ATOM     12  C   UNL     1       3.996   6.501  18.624  0.00  0.00    +0.000 A 
ATOM     13  S   UNL     1       4.170   4.797  18.721  0.00  0.00    +0.000 S 
BRANCH   9  14
ATOM     14  C   UNL     1       1.870   3.188  18.450  0.00  0.00    +0.000 C 
BRANCH  14  16
ATOM     15  C   UNL     1       3.526   1.293  18.491  0.00  0.00    +0.000 C 
ATOM     16  C   UNL     1       2.715   2.226  17.607  0.00  0.00    +0.000 C 
ENDBRANCH  14  16
ENDBRANCH   9  14
ENDBRANCH   1  11
BRANCH   6  17
ATOM     17  S   UNL     1      -0.071  10.841  22.236  0.00  0.00    +0.000 S 
ATOM     18  O   UNL     1       0.099  10.199  23.519  0.00  0.00    +0.000 OA
ATOM     19  O   UNL     1       1.025  11.562  21.621  0.00  0.00    +0.000 OA
BRANCH  17  20
ATOM     20  C   UNL     1      -1.426  11.981  22.418  0.00  0.00    +0.000 A 
ATOM     21  C   UNL     1      -2.429  11.734  23.354  0.00  0.00    +0.000 A 
ATOM     22  C   UNL     1      -3.564  12.551  23.364  0.00  0.00    +0.000 A 
ATOM     23  C   UNL     1      -3.691  13.640  22.483  0.00  0.00    +0.000 A 
ATOM     24  C   UNL     1      -2.678  13.886  21.539  0.00  0.00    +0.000 A 
ATOM     25  C   UNL     1      -1.577  13.020  21.490  0.00  0.00    +0.000 A 
BRANCH  23  26
ATOM     26  O   UNL     1      -4.867  14.322  22.667  0.00  0.00    +0.000 OA
ATOM     27  C   UNL     1      -6.015  13.902  21.939  0.00  0.00    +0.000 C 
ENDBRANCH  23  26
BRANCH  24  28
ATOM     28  O   UNL     1      -2.816  14.946  20.683  0.00  0.00    +0.000 OA
ATOM     29  C   UNL     1      -2.358  16.228  21.098  0.00  0.00    +0.000 C 
ENDBRANCH  24  28
ENDBRANCH  17  20
ENDBRANCH   6  17
TORSDOF 7
ENDMDL
MODEL 8
REMARK VINA RESULT:      -6.4      3.885      9.882
REMARK  Name = 
REMARK  10 active torsions:
REMARK  status: ('A' for Active; 'I' for Inactive)
REMARK    1  A    between atoms: C_1  and  C_2
REMARK    2  A    between atoms: C_2  and  C_3
REMARK    3  A    between atoms: C_3  and  C_4
REMARK    4  A    between atoms: C_6  and  C_7
REMARK    5  A    between atoms: N_12  and  S_13
REMARK    6  A    between atoms: S_13  and  C_16
REMARK    7  A    between atoms: C_19  and  O_20
REMARK    8  A    between atoms: O_20  and  C_21
REMARK    9  A    between atoms: C_22  and  O_23
REMARK   10  A    between atoms: O_23  and  C_24
REMARK                            x       y       z     vdW  Elec       q    Type
REMARK                         _______ _______ _______ _____ _____    ______ ____
ROOT
ATOM      1  C   UNL     1       2.297   8.180  18.135  0.00  0.00    +0.000 C 
ATOM      2  O   UNL     1       2.484   8.827  17.089  0.00  0.00    +0.000 OA
ATOM      3  N   UNL     1       1.583   8.699  19.204  0.00  0.00    +0.000 N 
ATOM      4  C   UNL     1       0.926   9.995  19.079  0.00  0.00    +0.000 C 
ATOM      5  C   UNL     1      -0.482   9.956  19.718  0.00  0.00    +0.000 C 
ATOM      6  N   UNL     1      -0.452   9.461  21.146  0.00  0.00    +0.000 NA
ATOM      7  C   UNL     1       0.199   8.110  21.163  0.00  0.00    +0.000 C 
ATOM      8  C   UNL     1       1.613   8.179  20.574  0.00  0.00    +0.000 C 
ENDROOT
BRANCH   1  11
ATOM      9  C   UNL     1       4.199   4.994  18.646  0.00  0.00    +0.000 A 
ATOM     10  C   UNL     1       4.054   6.324  18.591  0.00  0.00    +0.000 A 
ATOM     11  C   UNL     1       2.737   6.792  18.255  0.00  0.00    +0.000 A 
ATOM     12  C   UNL     1       1.893   5.698  18.176  0.00  0.00    +0.000 A 
ATOM     13  S   UNL     1       2.702   4.204  18.419  0.00  0.00    +0.000 S 
BRANCH   9  14
ATOM     14  C   UNL     1       5.475   4.240  18.933  0.00  0.00    +0.000 C 
BRANCH  14  16
ATOM     15  C   UNL     1       7.215   4.737  17.183  0.00  0.00    +0.000 C 
ATOM     16  C   UNL     1       6.701   5.084  18.570  0.00  0.00    +0.000 C 
ENDBRANCH  14  16
ENDBRANCH   9  14
ENDBRANCH   1  11
BRANCH   6  17
ATOM     17  S   UNL     1       0.134  10.630  22.272  0.00  0.00    +0.000 S 
ATOM     18  O   UNL     1       0.267   9.994  23.562  0.00  0.00    +0.000 OA
ATOM     19  O   UNL     1       1.264  11.296  21.658  0.00  0.00    +0.000 OA
BRANCH  17  20
ATOM     20  C   UNL     1      -1.171  11.829  22.434  0.00  0.00    +0.000 A 
ATOM     21  C   UNL     1      -2.265  11.569  23.259  0.00  0.00    +0.000 A 
ATOM     22  C   UNL     1      -3.352  12.448  23.242  0.00  0.00    +0.000 A 
ATOM     23  C   UNL     1      -3.344  13.608  22.447  0.00  0.00    +0.000 A 
ATOM     24  C   UNL     1      -2.240  13.867  21.615  0.00  0.00    +0.000 A 
ATOM     25  C   UNL     1      -1.186  12.944  21.586  0.00  0.00    +0.000 A 
BRANCH  23  26
ATOM     26  O   UNL     1      -4.495  14.342  22.588  0.00  0.00    +0.000 OA
ATOM     27  C   UNL     1      -4.727  15.008  23.824  0.00  0.00    +0.000 C 
ENDBRANCH  23  26
BRANCH  24  28
ATOM     28  O   UNL     1      -2.248  14.998  20.841  0.00  0.00    +0.000 OA
ATOM     29  C   UNL     1      -1.106  15.293  20.046  0.00  0.00    +0.000 C 
ENDBRANCH  24  28
ENDBRANCH  17  20
ENDBRANCH   6  17
TORSDOF 7
ENDMDL
MODEL 9
REMARK VINA RESULT:      -6.4      1.722      2.043
REMARK  Name = 
REMARK  10 active torsions:
REMARK  status: ('A' for Active; 'I' for Inactive)
REMARK    1  A    between atoms: C_1  and  C_2
REMARK    2  A    between atoms: C_2  and  C_3
REMARK    3  A    between atoms: C_3  and  C_4
REMARK    4  A    between atoms: C_6  and  C_7
REMARK    5  A    between atoms: N_12  and  S_13
REMARK    6  A    between atoms: S_13  and  C_16
REMARK    7  A    between atoms: C_19  and  O_20
REMARK    8  A    between atoms: O_20  and  C_21
REMARK    9  A    between atoms: C_22  and  O_23
REMARK   10  A    between atoms: O_23  and  C_24
REMARK                            x       y       z     vdW  Elec       q    Type
REMARK                         _______ _______ _______ _____ _____    ______ ____
ROOT
ATOM      1  C   UNL     1       1.448   7.558  20.706  0.00  0.00    +0.000 C 
ATOM      2  O   UNL     1       1.031   7.540  21.878  0.00  0.00    +0.000 OA
ATOM      3  N   UNL     1       1.909   6.414  20.072  0.00  0.00    +0.000 N 
ATOM      4  C   UNL     1       1.806   5.121  20.738  0.00  0.00    +0.000 C 
ATOM      5  C   UNL     1       1.348   4.030  19.743  0.00  0.00    +0.000 C 
ATOM      6  N   UNL     1       2.220   3.974  18.510  0.00  0.00    +0.000 NA
ATOM      7  C   UNL     1       2.226   5.333  17.874  0.00  0.00    +0.000 C 
ATOM      8  C   UNL     1       2.733   6.393  18.860  0.00  0.00    +0.000 C 
ENDROOT
BRANCH   1  11
ATOM      9  C   UNL     1       0.942  11.021  19.370  0.00  0.00    +0.000 A 
ATOM     10  C   UNL     1       0.888  10.060  20.303  0.00  0.00    +0.000 A 
ATOM     11  C   UNL     1       1.381   8.772  19.897  0.00  0.00    +0.000 A 
ATOM     12  C   UNL     1       1.908   8.889  18.623  0.00  0.00    +0.000 A 
ATOM     13  S   UNL     1       1.724  10.460  17.959  0.00  0.00    +0.000 S 
BRANCH   9  14
ATOM     14  C   UNL     1       0.456  12.442  19.515  0.00  0.00    +0.000 C 
BRANCH  14  16
ATOM     15  C   UNL     1       2.076  14.239  18.817  0.00  0.00    +0.000 C 
ATOM     16  C   UNL     1       0.963  13.312  18.358  0.00  0.00    +0.000 C 
ENDBRANCH  14  16
ENDBRANCH   9  14
ENDBRANCH   1  11
BRANCH   6  17
ATOM     17  S   UNL     1       3.751   3.225  18.778  0.00  0.00    +0.000 S 
ATOM     18  O   UNL     1       4.217   3.597  20.094  0.00  0.00    +0.000 OA
ATOM     19  O   UNL     1       3.624   1.831  18.408  0.00  0.00    +0.000 OA
BRANCH  17  20
ATOM     20  C   UNL     1       4.862   3.988  17.615  0.00  0.00    +0.000 A 
ATOM     21  C   UNL     1       4.809   3.644  16.265  0.00  0.00    +0.000 A 
ATOM     22  C   UNL     1       5.797   4.129  15.402  0.00  0.00    +0.000 A 
ATOM     23  C   UNL     1       6.811   4.989  15.859  0.00  0.00    +0.000 A 
ATOM     24  C   UNL     1       6.863   5.334  17.222  0.00  0.00    +0.000 A 
ATOM     25  C   UNL     1       5.910   4.787  18.092  0.00  0.00    +0.000 A 
BRANCH  23  26
ATOM     26  O   UNL     1       7.666   5.363  14.854  0.00  0.00    +0.000 OA
ATOM     27  C   UNL     1       7.379   4.939  13.526  0.00  0.00    +0.000 C 
ENDBRANCH  23  26
BRANCH  24  28
ATOM     28  O   UNL     1       7.859   6.168  17.655  0.00  0.00    +0.000 OA
ATOM     29  C   UNL     1       7.650   7.574  17.598  0.00  0.00    +0.000 C 
ENDBRANCH  24  28
ENDBRANCH  17  20
ENDBRANCH   6  17
TORSDOF 7
ENDMDL
