MODEL 1
REMARK VINA RESULT:      -7.3      0.000      0.000
REMARK  Name = 
REMARK  11 active torsions:
REMARK  status: ('A' for Active; 'I' for Inactive)
REMARK    1  A    between atoms: C_1  and  C_2
REMARK    2  A    between atoms: C_2  and  C_3
REMARK    3  A    between atoms: C_6  and  C_7
REMARK    4  A    between atoms: N_9  and  C_10
REMARK    5  A    between atoms: C_10  and  C_11
REMARK    6  A    between atoms: C_11  and  C_12
REMARK    7  A    between atoms: C_17  and  O_18
REMARK    8  A    between atoms: C_17  and  O_20
REMARK    9  A    between atoms: O_18  and  C_19
REMARK   10  A    between atoms: O_20  and  C_21
REMARK   11  A    between atoms: C_22  and  O_23
REMARK                            x       y       z     vdW  Elec       q    Type
REMARK                         _______ _______ _______ _____ _____    ______ ____
ROOT
ATOM      1  C   UNL     1       7.062   5.273  16.048  0.00  0.00    +0.000 C 
ATOM      2  O   UNL     1       7.529   6.407  16.084  0.00  0.00    +0.000 OA
ATOM      3  N   UNL     1       6.827   4.515  17.180  0.00  0.00    +0.000 N 
ATOM      4  H   UNL     1       6.150   3.763  17.100  0.00  0.00    +0.000 HD
ENDROOT
BRANCH   1   8
ATOM      5  C   UNL     1       5.844   3.561  12.299  0.00  0.00    +0.000 A 
ATOM      6  C   UNL     1       5.139   3.302  13.480  0.00  0.00    +0.000 A 
ATOM      7  C   UNL     1       5.574   3.841  14.694  0.00  0.00    +0.000 A 
ATOM      8  C   UNL     1       6.716   4.651  14.743  0.00  0.00    +0.000 A 
ATOM      9  C   UNL     1       7.427   4.899  13.563  0.00  0.00    +0.000 A 
ATOM     10  C   UNL     1       7.006   4.345  12.354  0.00  0.00    +0.000 A 
BRANCH   5  12
ATOM     11  C   UNL     1       3.786   3.229  10.927  0.00  0.00    +0.000 C 
ATOM     12  C   UNL     1       5.303   3.097  10.970  0.00  0.00    +0.000 C 
ENDBRANCH   5  12
BRANCH   9  13
ATOM     13  O   UNL     1       8.513   5.730  13.495  0.00  0.00    +0.000 OA
ATOM     14  H   UNL     1       8.765   5.979  14.404  0.00  0.00    +0.000 HD
ENDBRANCH   9  13
ENDBRANCH   1   8
BRANCH   3  15
ATOM     15  C   UNL     1       7.056   5.103  18.484  0.00  0.00    +0.000 C 
BRANCH  15  16
ATOM     16  C   UNL     1       5.865   4.970  19.429  0.00  0.00    +0.000 C 
BRANCH  16  17
ATOM     17  C   UNL     1       4.676   4.155  18.869  0.00  0.00    +0.000 C 
ATOM     18  C   UNL     1       4.317   2.965  19.757  0.00  0.00    +0.000 C 
ATOM     19  O   UNL     1       3.226   2.235  19.206  0.00  0.00    +0.000 OA
ATOM     20  C   UNL     1       2.033   3.002  19.168  0.00  0.00    +0.000 C 
ATOM     21  C   UNL     1       2.190   4.201  18.253  0.00  0.00    +0.000 C 
ATOM     22  C   UNL     1       3.445   5.050  18.535  0.00  0.00    +0.000 C 
BRANCH  22  23
ATOM     23  O   UNL     1       3.245   6.104  19.481  0.00  0.00    +0.000 OA
ATOM     24  C   UNL     1       2.099   6.099  20.307  0.00  0.00    +0.000 C 
ENDBRANCH  22  23
BRANCH  22  25
ATOM     25  O   UNL     1       3.825   5.697  17.287  0.00  0.00    +0.000 OA
ATOM     26  C   UNL     1       3.990   7.109  17.361  0.00  0.00    +0.000 C 
ENDBRANCH  22  25
ENDBRANCH  16  17
ENDBRANCH  15  16
ENDBRANCH   3  15
TORSDOF 8
ENDMDL
MODEL 2
REMARK VINA RESULT:      -6.9      1.021      2.341
REMARK  Name = 
REMARK  11 active torsions:
REMARK  status: ('A' for Active; 'I' for Inactive)
REMARK    1  A    between atoms: C_1  and  C_2
REMARK    2  A    between atoms: C_2  and  C_3
REMARK    3  A    between atoms: C_6  and  C_7
REMARK    4  A    between atoms: N_9  and  C_10
REMARK    5  A    between atoms: C_10  and  C_11
REMARK    6  A    between atoms: C_11  and  C_12
REMARK    7  A    between atoms: C_17  and  O_18
REMARK    8  A    between atoms: C_17  and  O_20
REMARK    9  A    between atoms: O_18  and  C_19
REMARK   10  A    between atoms: O_20  and  C_21
REMARK   11  A    between atoms: C_22  and  O_23
REMARK                            x       y       z     vdW  Elec       q    Type
REMARK                         _______ _______ _______ _____ _____    ______ ____
ROOT
ATOM      1  C   UNL     1       6.861   5.445  16.101  0.00  0.00    +0.000 C 
ATOM      2  O   UNL     1       7.580   6.438  16.106  0.00  0.00    +0.000 OA
ATOM      3  N   UNL     1       6.282   4.924  17.243  0.00  0.00    +0.000 N 
ATOM      4  H   UNL     1       5.461   4.339  17.119  0.00  0.00    +0.000 HD
ENDROOT
BRANCH   1   8
ATOM      5  C   UNL     1       5.808   3.500  12.416  0.00  0.00    +0.000 A 
ATOM      6  C   UNL     1       5.046   3.320  13.577  0.00  0.00    +0.000 A 
ATOM      7  C   UNL     1       5.428   3.935  14.773  0.00  0.00    +0.000 A 
ATOM      8  C   UNL     1       6.572   4.742  14.824  0.00  0.00    +0.000 A 
ATOM      9  C   UNL     1       7.340   4.910  13.665  0.00  0.00    +0.000 A 
ATOM     10  C   UNL     1       6.972   4.280  12.476  0.00  0.00    +0.000 A 
BRANCH   5  12
ATOM     11  C   UNL     1       3.826   3.160  10.939  0.00  0.00    +0.000 C 
ATOM     12  C   UNL     1       5.327   2.953  11.096  0.00  0.00    +0.000 C 
ENDBRANCH   5  12
BRANCH   9  13
ATOM     13  O   UNL     1       8.434   5.729  13.595  0.00  0.00    +0.000 OA
ATOM     14  H   UNL     1       9.158   5.235  13.167  0.00  0.00    +0.000 HD
ENDBRANCH   9  13
ENDBRANCH   1   8
BRANCH   3  15
ATOM     15  C   UNL     1       6.451   5.621  18.502  0.00  0.00    +0.000 C 
BRANCH  15  16
ATOM     16  C   UNL     1       5.611   5.039  19.636  0.00  0.00    +0.000 C 
BRANCH  16  17
ATOM     17  C   UNL     1       4.083   5.198  19.464  0.00  0.00    +0.000 C 
ATOM     18  C   UNL     1       3.721   6.223  18.392  0.00  0.00    +0.000 C 
ATOM     19  O   UNL     1       2.309   6.348  18.270  0.00  0.00    +0.000 OA
ATOM     20  C   UNL     1       1.702   5.150  17.810  0.00  0.00    +0.000 C 
ATOM     21  C   UNL     1       1.900   4.028  18.810  0.00  0.00    +0.000 C 
ATOM     22  C   UNL     1       3.361   3.832  19.259  0.00  0.00    +0.000 C 
BRANCH  22  23
ATOM     23  O   UNL     1       4.109   2.918  18.451  0.00  0.00    +0.000 OA
ATOM     24  C   UNL     1       3.617   1.614  18.226  0.00  0.00    +0.000 C 
ENDBRANCH  22  23
BRANCH  22  25
ATOM     25  O   UNL     1       3.335   3.257  20.596  0.00  0.00    +0.000 OA
ATOM     26  C   UNL     1       2.183   3.571  21.371  0.00  0.00    +0.000 C 
ENDBRANCH  22  25
ENDBRANCH  16  17
ENDBRANCH  15  16
ENDBRANCH   3  15
TORSDOF 8
ENDMDL
MODEL 3
REMARK VINA RESULT:      -6.6      2.976      7.246
REMARK  Name = 
REMARK  11 active torsions:
REMARK  status: ('A' for Active; 'I' for Inactive)
REMARK    1  A    between atoms: C_1  and  C_2
REMARK    2  A    between atoms: C_2  and  C_3
REMARK    3  A    between atoms: C_6  and  C_7
REMARK    4  A    between atoms: N_9  and  C_10
REMARK    5  A    between atoms: C_10  and  C_11
REMARK    6  A    between atoms: C_11  and  C_12
REMARK    7  A    between atoms: C_17  and  O_18
REMARK    8  A    between atoms: C_17  and  O_20
REMARK    9  A    between atoms: O_18  and  C_19
REMARK   10  A    between atoms: O_20  and  C_21
REMARK   11  A    between atoms: C_22  and  O_23
REMARK                            x       y       z     vdW  Elec       q    Type
REMARK                         _______ _______ _______ _____ _____    ______ ____
ROOT
ATOM      1  C   UNL     1       2.435   6.226  19.161  0.00  0.00    +0.000 C 
ATOM      2  O   UNL     1       3.009   5.737  20.127  0.00  0.00    +0.000 OA
ATOM      3  N   UNL     1       2.127   5.509  18.020  0.00  0.00    +0.000 N 
ATOM      4  H   UNL     1       1.380   5.870  17.434  0.00  0.00    +0.000 HD
ENDROOT
BRANCH   1   8
ATOM      5  C   UNL     1       1.117  10.316  19.043  0.00  0.00    +0.000 A 
ATOM      6  C   UNL     1       1.595   9.672  17.895  0.00  0.00    +0.000 A 
ATOM      7  C   UNL     1       2.051   8.352  17.965  0.00  0.00    +0.000 A 
ATOM      8  C   UNL     1       2.031   7.657  19.180  0.00  0.00    +0.000 A 
ATOM      9  C   UNL     1       1.566   8.306  20.330  0.00  0.00    +0.000 A 
ATOM     10  C   UNL     1       1.129   9.630  20.267  0.00  0.00    +0.000 A 
BRANCH   5  12
ATOM     11  C   UNL     1       1.556  12.739  18.642  0.00  0.00    +0.000 C 
ATOM     12  C   UNL     1       0.498  11.687  18.947  0.00  0.00    +0.000 C 
ENDBRANCH   5  12
BRANCH   9  13
ATOM     13  O   UNL     1       1.444   7.694  21.548  0.00  0.00    +0.000 OA
ATOM     14  H   UNL     1       1.691   6.755  21.444  0.00  0.00    +0.000 HD
ENDBRANCH   9  13
ENDBRANCH   1   8
BRANCH   3  15
ATOM     15  C   UNL     1       2.411   4.089  17.980  0.00  0.00    +0.000 C 
BRANCH  15  16
ATOM     16  C   UNL     1       3.641   3.738  17.148  0.00  0.00    +0.000 C 
BRANCH  16  17
ATOM     17  C   UNL     1       4.916   4.540  17.497  0.00  0.00    +0.000 C 
ATOM     18  C   UNL     1       5.654   3.964  18.702  0.00  0.00    +0.000 C 
ATOM     19  O   UNL     1       6.815   4.732  18.998  0.00  0.00    +0.000 OA
ATOM     20  C   UNL     1       7.775   4.676  17.954  0.00  0.00    +0.000 C 
ATOM     21  C   UNL     1       7.225   5.291  16.682  0.00  0.00    +0.000 C 
ATOM     22  C   UNL     1       5.846   4.747  16.264  0.00  0.00    +0.000 C 
BRANCH  22  23
ATOM     23  O   UNL     1       5.897   3.606  15.402  0.00  0.00    +0.000 OA
ATOM     24  C   UNL     1       6.232   3.767  14.040  0.00  0.00    +0.000 C 
ENDBRANCH  22  23
BRANCH  22  25
ATOM     25  O   UNL     1       5.175   5.793  15.504  0.00  0.00    +0.000 OA
ATOM     26  C   UNL     1       4.959   7.011  16.207  0.00  0.00    +0.000 C 
ENDBRANCH  22  25
ENDBRANCH  16  17
ENDBRANCH  15  16
ENDBRANCH   3  15
TORSDOF 8
ENDMDL
MODEL 4
REMARK VINA RESULT:      -6.6      0.876      1.604
REMARK  Name = 
REMARK  11 active torsions:
REMARK  status: ('A' for Active; 'I' for Inactive)
REMARK    1  A    between atoms: C_1  and  C_2
REMARK    2  A    between atoms: C_2  and  C_3
REMARK    3  A    between atoms: C_6  and  C_7
REMARK    4  A    between atoms: N_9  and  C_10
REMARK    5  A    between atoms: C_10  and  C_11
REMARK    6  A    between atoms: C_11  and  C_12
REMARK    7  A    between atoms: C_17  and  O_18
REMARK    8  A    between atoms: C_17  and  O_20
REMARK    9  A    between atoms: O_18  and  C_19
REMARK   10  A    between atoms: O_20  and  C_21
REMARK   11  A    between atoms: C_22  and  O_23
REMARK                            x       y       z     vdW  Elec       q    Type
REMARK                         _______ _______ _______ _____ _____    ______ ____
ROOT
ATOM      1  C   UNL     1       7.049   5.477  16.196  0.00  0.00    +0.000 C 
ATOM      2  O   UNL     1       7.448   6.633  16.275  0.00  0.00    +0.000 OA
ATOM      3  N   UNL     1       6.854   4.666  17.299  0.00  0.00    +0.000 N 
ATOM      4  H   UNL     1       6.221   3.878  17.188  0.00  0.00    +0.000 HD
ENDROOT
BRANCH   1   8
ATOM      5  C   UNL     1       6.383   3.660  12.358  0.00  0.00    +0.000 A 
ATOM      6  C   UNL     1       7.503   4.464  12.598  0.00  0.00    +0.000 A 
ATOM      7  C   UNL     1       7.681   5.073  13.844  0.00  0.00    +0.000 A 
ATOM      8  C   UNL     1       6.745   4.883  14.868  0.00  0.00    +0.000 A 
ATOM      9  C   UNL     1       5.618   4.089  14.623  0.00  0.00    +0.000 A 
ATOM     10  C   UNL     1       5.429   3.497  13.374  0.00  0.00    +0.000 A 
BRANCH   5  12
ATOM     11  C   UNL     1       7.086   1.615  11.113  0.00  0.00    +0.000 C 
ATOM     12  C   UNL     1       6.257   2.892  11.067  0.00  0.00    +0.000 C 
ENDBRANCH   5  12
BRANCH   9  13
ATOM     13  O   UNL     1       4.683   3.788  15.576  0.00  0.00    +0.000 OA
ATOM     14  H   UNL     1       3.994   4.479  15.557  0.00  0.00    +0.000 HD
ENDBRANCH   9  13
ENDBRANCH   1   8
BRANCH   3  15
ATOM     15  C   UNL     1       7.042   5.219  18.625  0.00  0.00    +0.000 C 
BRANCH  15  16
ATOM     16  C   UNL     1       5.820   5.067  19.526  0.00  0.00    +0.000 C 
BRANCH  16  17
ATOM     17  C   UNL     1       4.673   4.217  18.933  0.00  0.00    +0.000 C 
ATOM     18  C   UNL     1       4.369   2.981  19.776  0.00  0.00    +0.000 C 
ATOM     19  O   UNL     1       3.316   2.220  19.194  0.00  0.00    +0.000 OA
ATOM     20  C   UNL     1       2.087   2.930  19.180  0.00  0.00    +0.000 C 
ATOM     21  C   UNL     1       2.189   4.167  18.309  0.00  0.00    +0.000 C 
ATOM     22  C   UNL     1       3.401   5.064  18.626  0.00  0.00    +0.000 C 
BRANCH  22  23
ATOM     23  O   UNL     1       3.148   6.073  19.609  0.00  0.00    +0.000 OA
ATOM     24  C   UNL     1       1.997   5.988  20.423  0.00  0.00    +0.000 C 
ENDBRANCH  22  23
BRANCH  22  25
ATOM     25  O   UNL     1       3.752   5.774  17.404  0.00  0.00    +0.000 OA
ATOM     26  C   UNL     1       3.801   7.192  17.518  0.00  0.00    +0.000 C 
ENDBRANCH  22  25
ENDBRANCH  16  17
ENDBRANCH  15  16
ENDBRANCH   3  15
TORSDOF 8
ENDMDL
MODEL 5
REMARK VINA RESULT:      -6.5      4.264      8.029
REMARK  Name = 
REMARK  11 active torsions:
REMARK  status: ('A' for Active; 'I' for Inactive)
REMARK    1  A    between atoms: C_1  and  C_2
REMARK    2  A    between atoms: C_2  and  C_3
REMARK    3  A    between atoms: C_6  and  C_7
REMARK    4  A    between atoms: N_9  and  C_10
REMARK    5  A    between atoms: C_10  and  C_11
REMARK    6  A    between atoms: C_11  and  C_12
REMARK    7  A    between atoms: C_17  and  O_18
REMARK    8  A    between atoms: C_17  and  O_20
REMARK    9  A    between atoms: O_18  and  C_19
REMARK   10  A    between atoms: O_20  and  C_21
REMARK   11  A    between atoms: C_22  and  O_23
REMARK                            x       y       z     vdW  Elec       q    Type
REMARK                         _______ _______ _______ _____ _____    ______ ____
ROOT
ATOM      1  C   UNL     1       2.099   8.562  18.448  0.00  0.00    +0.000 C 
ATOM      2  O   UNL     1       2.221   9.191  17.403  0.00  0.00    +0.000 OA
ATOM      3  N   UNL     1       2.748   7.367  18.693  0.00  0.00    +0.000 N 
ATOM      4  H   UNL     1       2.867   7.096  19.665  0.00  0.00    +0.000 HD
ENDROOT
BRANCH   1   8
ATOM      5  C   UNL     1      -0.254  10.058  21.720  0.00  0.00    +0.000 A 
ATOM      6  C   UNL     1       0.494   8.880  21.840  0.00  0.00    +0.000 A 
ATOM      7  C   UNL     1       1.224   8.394  20.751  0.00  0.00    +0.000 A 
ATOM      8  C   UNL     1       1.221   9.080  19.530  0.00  0.00    +0.000 A 
ATOM      9  C   UNL     1       0.462  10.250  19.407  0.00  0.00    +0.000 A 
ATOM     10  C   UNL     1      -0.283  10.726  20.487  0.00  0.00    +0.000 A 
BRANCH   5  12
ATOM     11  C   UNL     1      -1.093  12.164  22.762  0.00  0.00    +0.000 C 
ATOM     12  C   UNL     1      -0.930  10.659  22.926  0.00  0.00    +0.000 C 
ENDBRANCH   5  12
BRANCH   9  13
ATOM     13  O   UNL     1       0.446  11.027  18.281  0.00  0.00    +0.000 OA
ATOM     14  H   UNL     1      -0.481  11.258  18.082  0.00  0.00    +0.000 HD
ENDBRANCH   9  13
ENDBRANCH   1   8
BRANCH   3  15
ATOM     15  C   UNL     1       3.690   6.861  17.715  0.00  0.00    +0.000 C 
BRANCH  15  16
ATOM     16  C   UNL     1       3.764   5.337  17.675  0.00  0.00    +0.000 C 
BRANCH  16  17
ATOM     17  C   UNL     1       2.546   4.607  18.286  0.00  0.00    +0.000 C 
ATOM     18  C   UNL     1       1.682   3.927  17.226  0.00  0.00    +0.000 C 
ATOM     19  O   UNL     1       0.568   3.275  17.826  0.00  0.00    +0.000 OA
ATOM     20  C   UNL     1       0.964   2.209  18.675  0.00  0.00    +0.000 C 
ATOM     21  C   UNL     1       1.778   2.725  19.845  0.00  0.00    +0.000 C 
ATOM     22  C   UNL     1       2.947   3.645  19.444  0.00  0.00    +0.000 C 
BRANCH  22  23
ATOM     23  O   UNL     1       4.180   2.960  19.202  0.00  0.00    +0.000 OA
ATOM     24  C   UNL     1       4.750   2.158  20.215  0.00  0.00    +0.000 C 
ENDBRANCH  22  23
BRANCH  22  25
ATOM     25  O   UNL     1       3.201   4.544  20.561  0.00  0.00    +0.000 OA
ATOM     26  C   UNL     1       2.044   4.969  21.273  0.00  0.00    +0.000 C 
ENDBRANCH  22  25
ENDBRANCH  16  17
ENDBRANCH  15  16
ENDBRANCH   3  15
TORSDOF 8
ENDMDL
MODEL 6
REMARK VINA RESULT:      -6.3      4.216      6.279
REMARK  Name = 
REMARK  11 active torsions:
REMARK  status: ('A' for Active; 'I' for Inactive)
REMARK    1  A    between atoms: C_1  and  C_2
REMARK    2  A    between atoms: C_2  and  C_3
REMARK    3  A    between atoms: C_6  and  C_7
REMARK    4  A    between atoms: N_9  and  C_10
REMARK    5  A    between atoms: C_10  and  C_11
REMARK    6  A    between atoms: C_11  and  C_12
REMARK    7  A    between atoms: C_17  and  O_18
REMARK    8  A    between atoms: C_17  and  O_20
REMARK    9  A    between atoms: O_18  and  C_19
REMARK   10  A    between atoms: O_20  and  C_21
REMARK   11  A    between atoms: C_22  and  O_23
REMARK                            x       y       z     vdW  Elec       q    Type
REMARK                         _______ _______ _______ _____ _____    ______ ____
ROOT
ATOM      1  C   UNL     1       3.316   6.186  18.774  0.00  0.00    +0.000 C 
ATOM      2  O   UNL     1       3.400   5.580  19.836  0.00  0.00    +0.000 OA
ATOM      3  N   UNL     1       2.558   7.331  18.613  0.00  0.00    +0.000 N 
ATOM      4  H   UNL     1       2.803   7.943  17.840  0.00  0.00    +0.000 HD
ENDROOT
BRANCH   1   8
ATOM      5  C   UNL     1       5.630   4.909  15.384  0.00  0.00    +0.000 A 
ATOM      6  C   UNL     1       5.424   6.268  15.655  0.00  0.00    +0.000 A 
ATOM      7  C   UNL     1       4.639   6.659  16.743  0.00  0.00    +0.000 A 
ATOM      8  C   UNL     1       4.053   5.699  17.578  0.00  0.00    +0.000 A 
ATOM      9  C   UNL     1       4.249   4.342  17.299  0.00  0.00    +0.000 A 
ATOM     10  C   UNL     1       5.016   3.949  16.201  0.00  0.00    +0.000 A 
BRANCH   5  12
ATOM     11  C   UNL     1       5.862   3.680  13.225  0.00  0.00    +0.000 C 
ATOM     12  C   UNL     1       6.585   4.484  14.298  0.00  0.00    +0.000 C 
ENDBRANCH   5  12
BRANCH   9  13
ATOM     13  O   UNL     1       3.776   3.330  18.091  0.00  0.00    +0.000 OA
ATOM     14  H   UNL     1       4.094   2.483  17.726  0.00  0.00    +0.000 HD
ENDBRANCH   9  13
ENDBRANCH   1   8
BRANCH   3  15
ATOM     15  C   UNL     1       1.894   7.906  19.765  0.00  0.00    +0.000 C 
BRANCH  15  16
ATOM     16  C   UNL     1       1.202   9.234  19.468  0.00  0.00    +0.000 C 
BRANCH  16  17
ATOM     17  C   UNL     1       0.089   9.628  20.467  0.00  0.00    +0.000 C 
ATOM     18  C   UNL     1       0.239   8.922  21.813  0.00  0.00    +0.000 C 
ATOM     19  O   UNL     1      -0.806   9.303  22.701  0.00  0.00    +0.000 OA
ATOM     20  C   UNL     1      -0.751  10.681  23.034  0.00  0.00    +0.000 C 
ATOM     21  C   UNL     1      -0.964  11.542  21.804  0.00  0.00    +0.000 C 
ATOM     22  C   UNL     1      -0.062  11.172  20.611  0.00  0.00    +0.000 C 
BRANCH  22  23
ATOM     23  O   UNL     1       1.190  11.864  20.580  0.00  0.00    +0.000 OA
ATOM     24  C   UNL     1       1.246  13.232  20.925  0.00  0.00    +0.000 C 
ENDBRANCH  22  23
BRANCH  22  25
ATOM     25  O   UNL     1      -0.764  11.559  19.395  0.00  0.00    +0.000 OA
ATOM     26  C   UNL     1      -2.121  11.950  19.575  0.00  0.00    +0.000 C 
ENDBRANCH  22  25
ENDBRANCH  16  17
ENDBRANCH  15  16
ENDBRANCH   3  15
TORSDOF 8
ENDMDL
MODEL 7
REMARK VINA RESULT:      -6.3      6.227      8.230
REMARK  Name = 
REMARK  11 active torsions:
REMARK  status: ('A' for Active; 'I' for Inactive)
REMARK    1  A    between atoms: C_1  and  C_2
REMARK    2  A    between atoms: C_2  and  C_3
REMARK    3  A    between atoms: C_6  and  C_7
REMARK    4  A    between atoms: N_9  and  C_10
REMARK    5  A    between atoms: C_10  and  C_11
REMARK    6  A    between atoms: C_11  and  C_12
REMARK    7  A    between atoms: C_17  and  O_18
REMARK    8  A    between atoms: C_17  and  O_20
REMARK    9  A    between atoms: O_18  and  C_19
REMARK   10  A    between atoms: O_20  and  C_21
REMARK   11  A    between atoms: C_22  and  O_23
REMARK                            x       y       z     vdW  Elec       q    Type
REMARK                         _______ _______ _______ _____ _____    ______ ____
ROOT
ATOM      1  C   UNL     1       9.391  10.526  19.154  0.00  0.00    +0.000 C 
ATOM      2  O   UNL     1       9.205  10.293  20.343  0.00  0.00    +0.000 OA
ATOM      3  N   UNL     1       9.004   9.666  18.144  0.00  0.00    +0.000 N 
ATOM      4  H   UNL     1       8.883  10.065  17.218  0.00  0.00    +0.000 HD
ENDROOT
BRANCH   1   8
ATOM      5  C   UNL     1      11.504  14.042  17.870  0.00  0.00    +0.000 A 
ATOM      6  C   UNL     1      12.103  13.102  18.718  0.00  0.00    +0.000 A 
ATOM      7  C   UNL     1      11.385  11.984  19.151  0.00  0.00    +0.000 A 
ATOM      8  C   UNL     1      10.061  11.787  18.739  0.00  0.00    +0.000 A 
ATOM      9  C   UNL     1       9.459  12.734  17.902  0.00  0.00    +0.000 A 
ATOM     10  C   UNL     1      10.168  13.861  17.485  0.00  0.00    +0.000 A 
BRANCH   5  12
ATOM     11  C   UNL     1      12.145  16.441  18.119  0.00  0.00    +0.000 C 
ATOM     12  C   UNL     1      12.316  15.174  17.291  0.00  0.00    +0.000 C 
ENDBRANCH   5  12
BRANCH   9  13
ATOM     13  O   UNL     1       8.196  12.599  17.391  0.00  0.00    +0.000 OA
ATOM     14  H   UNL     1       8.262  12.142  16.531  0.00  0.00    +0.000 HD
ENDBRANCH   9  13
ENDBRANCH   1   8
BRANCH   3  15
ATOM     15  C   UNL     1       8.264   8.467  18.482  0.00  0.00    +0.000 C 
BRANCH  15  16
ATOM     16  C   UNL     1       7.522   7.856  17.296  0.00  0.00    +0.000 C 
BRANCH  16  17
ATOM     17  C   UNL     1       7.180   6.356  17.443  0.00  0.00    +0.000 C 
ATOM     18  C   UNL     1       7.136   5.909  18.903  0.00  0.00    +0.000 C 
ATOM     19  O   UNL     1       6.827   4.523  18.997  0.00  0.00    +0.000 OA
ATOM     20  C   UNL     1       5.525   4.230  18.515  0.00  0.00    +0.000 C 
ATOM     21  C   UNL     1       5.414   4.545  17.035  0.00  0.00    +0.000 C 
ATOM     22  C   UNL     1       5.897   5.957  16.653  0.00  0.00    +0.000 C 
BRANCH  22  23
ATOM     23  O   UNL     1       4.878   6.961  16.696  0.00  0.00    +0.000 OA
ATOM     24  C   UNL     1       3.854   6.883  17.665  0.00  0.00    +0.000 C 
ENDBRANCH  22  23
BRANCH  22  25
ATOM     25  O   UNL     1       6.351   5.906  15.271  0.00  0.00    +0.000 OA
ATOM     26  C   UNL     1       6.976   4.687  14.882  0.00  0.00    +0.000 C 
ENDBRANCH  22  25
ENDBRANCH  16  17
ENDBRANCH  15  16
ENDBRANCH   3  15
TORSDOF 8
ENDMDL
MODEL 8
REMARK VINA RESULT:      -6.3      5.290      7.725
REMARK  Name = 
REMARK  11 active torsions:
REMARK  status: ('A' for Active; 'I' for Inactive)
REMARK    1  A    between atoms: C_1  and  C_2
REMARK    2  A    between atoms: C_2  and  C_3
REMARK    3  A    between atoms: C_6  and  C_7
REMARK    4  A    between atoms: N_9  and  C_10
REMARK    5  A    between atoms: C_10  and  C_11
REMARK    6  A    between atoms: C_11  and  C_12
REMARK    7  A    between atoms: C_17  and  O_18
REMARK    8  A    between atoms: C_17  and  O_20
REMARK    9  A    between atoms: O_18  and  C_19
REMARK   10  A    between atoms: O_20  and  C_21
REMARK   11  A    between atoms: C_22  and  O_23
REMARK                            x       y       z     vdW  Elec       q    Type
REMARK                         _______ _______ _______ _____ _____    ______ ____
ROOT
ATOM      1  C   UNL     1       7.141   7.176  17.289  0.00  0.00    +0.000 C 
ATOM      2  O   UNL     1       7.937   6.888  16.403  0.00  0.00    +0.000 OA
ATOM      3  N   UNL     1       7.200   8.357  18.005  0.00  0.00    +0.000 N 
ATOM      4  H   UNL     1       6.345   8.667  18.458  0.00  0.00    +0.000 HD
ENDROOT
BRANCH   1   8
ATOM      5  C   UNL     1       3.864   4.513  18.089  0.00  0.00    +0.000 A 
ATOM      6  C   UNL     1       3.646   5.855  17.755  0.00  0.00    +0.000 A 
ATOM      7  C   UNL     1       4.728   6.711  17.534  0.00  0.00    +0.000 A 
ATOM      8  C   UNL     1       6.042   6.238  17.637  0.00  0.00    +0.000 A 
ATOM      9  C   UNL     1       6.259   4.899  17.984  0.00  0.00    +0.000 A 
ATOM     10  C   UNL     1       5.180   4.047  18.226  0.00  0.00    +0.000 A 
BRANCH   5  12
ATOM     11  C   UNL     1       1.421   4.199  17.684  0.00  0.00    +0.000 C 
ATOM     12  C   UNL     1       2.704   3.555  18.194  0.00  0.00    +0.000 C 
ENDBRANCH   5  12
BRANCH   9  13
ATOM     13  O   UNL     1       7.499   4.324  18.045  0.00  0.00    +0.000 OA
ATOM     14  H   UNL     1       8.100   4.942  18.504  0.00  0.00    +0.000 HD
ENDBRANCH   9  13
ENDBRANCH   1   8
BRANCH   3  15
ATOM     15  C   UNL     1       8.191   9.352  17.647  0.00  0.00    +0.000 C 
BRANCH  15  16
ATOM     16  C   UNL     1       9.183   9.651  18.767  0.00  0.00    +0.000 C 
BRANCH  16  17
ATOM     17  C   UNL     1       8.994  11.021  19.459  0.00  0.00    +0.000 C 
ATOM     18  C   UNL     1       9.173  10.938  20.973  0.00  0.00    +0.000 C 
ATOM     19  O   UNL     1       8.983  12.214  21.574  0.00  0.00    +0.000 OA
ATOM     20  C   UNL     1       9.969  13.150  21.168  0.00  0.00    +0.000 C 
ATOM     21  C   UNL     1       9.880  13.414  19.677  0.00  0.00    +0.000 C 
ATOM     22  C   UNL     1       9.862  12.141  18.811  0.00  0.00    +0.000 C 
BRANCH  22  23
ATOM     23  O   UNL     1      11.157  11.683  18.406  0.00  0.00    +0.000 OA
ATOM     24  C   UNL     1      11.956  12.489  17.566  0.00  0.00    +0.000 C 
ENDBRANCH  22  23
BRANCH  22  25
ATOM     25  O   UNL     1       9.147  12.456  17.582  0.00  0.00    +0.000 OA
ATOM     26  C   UNL     1       8.025  13.319  17.737  0.00  0.00    +0.000 C 
ENDBRANCH  22  25
ENDBRANCH  16  17
ENDBRANCH  15  16
ENDBRANCH   3  15
TORSDOF 8
ENDMDL
MODEL 9
REMARK VINA RESULT:      -6.3      5.606      7.978
REMARK  Name = 
REMARK  11 active torsions:
REMARK  status: ('A' for Active; 'I' for Inactive)
REMARK    1  A    between atoms: C_1  and  C_2
REMARK    2  A    between atoms: C_2  and  C_3
REMARK    3  A    between atoms: C_6  and  C_7
REMARK    4  A    between atoms: N_9  and  C_10
REMARK    5  A    between atoms: C_10  and  C_11
REMARK    6  A    between atoms: C_11  and  C_12
REMARK    7  A    between atoms: C_17  and  O_18
REMARK    8  A    between atoms: C_17  and  O_20
REMARK    9  A    between atoms: O_18  and  C_19
REMARK   10  A    between atoms: O_20  and  C_21
REMARK   11  A    between atoms: C_22  and  O_23
REMARK                            x       y       z     vdW  Elec       q    Type
REMARK                         _______ _______ _______ _____ _____    ______ ____
ROOT
ATOM      1  C   UNL     1       7.580   7.263  18.126  0.00  0.00    +0.000 C 
ATOM      2  O   UNL     1       8.550   6.909  18.788  0.00  0.00    +0.000 OA
ATOM      3  N   UNL     1       7.513   8.478  17.470  0.00  0.00    +0.000 N 
ATOM      4  H   UNL     1       6.860   8.550  16.696  0.00  0.00    +0.000 HD
ENDROOT
BRANCH   1   8
ATOM      5  C   UNL     1       4.247   4.614  17.533  0.00  0.00    +0.000 A 
ATOM      6  C   UNL     1       4.538   5.634  16.619  0.00  0.00    +0.000 A 
ATOM      7  C   UNL     1       5.606   6.506  16.851  0.00  0.00    +0.000 A 
ATOM      8  C   UNL     1       6.401   6.367  17.995  0.00  0.00    +0.000 A 
ATOM      9  C   UNL     1       6.102   5.355  18.915  0.00  0.00    +0.000 A 
ATOM     10  C   UNL     1       5.023   4.496  18.696  0.00  0.00    +0.000 A 
BRANCH   5  12
ATOM     11  C   UNL     1       1.817   4.069  17.683  0.00  0.00    +0.000 C 
ATOM     12  C   UNL     1       3.186   3.589  17.221  0.00  0.00    +0.000 C 
ENDBRANCH   5  12
BRANCH   9  13
ATOM     13  O   UNL     1       6.856   5.095  20.027  0.00  0.00    +0.000 OA
ATOM     14  H   UNL     1       6.510   4.286  20.449  0.00  0.00    +0.000 HD
ENDBRANCH   9  13
ENDBRANCH   1   8
BRANCH   3  15
ATOM     15  C   UNL     1       8.669   9.352  17.484  0.00  0.00    +0.000 C 
BRANCH  15  16
ATOM     16  C   UNL     1       8.843  10.108  18.798  0.00  0.00    +0.000 C 
BRANCH  16  17
ATOM     17  C   UNL     1       9.510  11.497  18.669  0.00  0.00    +0.000 C 
ATOM     18  C   UNL     1       8.667  12.472  17.850  0.00  0.00    +0.000 C 
ATOM     19  O   UNL     1       9.316  13.735  17.746  0.00  0.00    +0.000 OA
ATOM     20  C   UNL     1       9.447  14.376  19.006  0.00  0.00    +0.000 C 
ATOM     21  C   UNL     1      10.334  13.567  19.932  0.00  0.00    +0.000 C 
ATOM     22  C   UNL     1       9.939  12.082  20.048  0.00  0.00    +0.000 C 
BRANCH  22  23
ATOM     23  O   UNL     1       9.003  11.800  21.093  0.00  0.00    +0.000 OA
ATOM     24  C   UNL     1       9.037  12.550  22.289  0.00  0.00    +0.000 C 
ENDBRANCH  22  23
BRANCH  22  25
ATOM     25  O   UNL     1      11.143  11.333  20.375  0.00  0.00    +0.000 OA
ATOM     26  C   UNL     1      12.326  11.761  19.709  0.00  0.00    +0.000 C 
ENDBRANCH  22  25
ENDBRANCH  16  17
ENDBRANCH  15  16
ENDBRANCH   3  15
TORSDOF 8
ENDMDL
