MODEL 1
REMARK VINA RESULT:      -7.5      0.000      0.000
REMARK  Name = 
REMARK  3 active torsions:
REMARK  status: ('A' for Active; 'I' for Inactive)
REMARK    1  A    between atoms: C_5  and  C_6
REMARK    2  A    between atoms: C_6  and  C_7
REMARK    3  A    between atoms: C_7  and  N_8
REMARK                            x       y       z     vdW  Elec       q    Type
REMARK                         _______ _______ _______ _____ _____    ______ ____
ROOT
ATOM      1  O   UNL     1       6.947   4.149  12.608  0.00  0.00    +0.000 OA
ATOM      2  C   UNL     1       6.675   4.427  13.771  0.00  0.00    +0.000 C 
ATOM      3  C   UNL     1       5.402   4.059  14.518  0.00  0.00    +0.000 C 
ATOM      4  C   UNL     1       5.592   4.745  15.841  0.00  0.00    +0.000 A 
ATOM      5  C   UNL     1       4.770   4.780  16.957  0.00  0.00    +0.000 A 
ATOM      6  C   UNL     1       5.222   5.537  18.054  0.00  0.00    +0.000 A 
ATOM      7  C   UNL     1       6.429   6.256  18.007  0.00  0.00    +0.000 A 
ATOM      8  C   UNL     1       7.239   6.211  16.872  0.00  0.00    +0.000 A 
ATOM      9  C   UNL     1       6.803   5.441  15.820  0.00  0.00    +0.000 A 
ATOM     10  N   UNL     1       7.443   5.233  14.607  0.00  0.00    +0.000 N 
ATOM     11  H   UNL     1       8.316   5.662  14.330  0.00  0.00    +0.000 HD
ENDROOT
BRANCH   5  12
ATOM     12  C   UNL     1       3.468   4.019  17.026  0.00  0.00    +0.000 C 
BRANCH  12  13
ATOM     13  C   UNL     1       3.629   2.653  17.722  0.00  0.00    +0.000 C 
BRANCH  13  14
ATOM     14  N   UNL     1       2.981   2.536  19.049  0.00  0.00    +0.000 NA
ATOM     15  C   UNL     1       2.179   3.756  19.283  0.00  0.00    +0.000 C 
ATOM     16  C   UNL     1       0.949   3.537  20.157  0.00  0.00    +0.000 C 
ATOM     17  C   UNL     1       1.142   2.782  21.467  0.00  0.00    +0.000 C 
ATOM     18  N   UNL     1       2.448   2.954  22.104  0.00  0.00    +0.000 NA
ATOM     19  C   UNL     1       3.427   2.027  21.514  0.00  0.00    +0.000 C 
ATOM     20  C   UNL     1       3.988   2.420  20.132  0.00  0.00    +0.000 C 
ATOM     21  H   UNL     1       2.346   2.699  23.087  0.00  0.00    +0.000 HD
ENDBRANCH  13  14
ENDBRANCH  12  13
ENDBRANCH   5  12
TORSDOF 3
ENDMDL
MODEL 2
REMARK VINA RESULT:      -7.2      2.229      2.983
REMARK  Name = 
REMARK  3 active torsions:
REMARK  status: ('A' for Active; 'I' for Inactive)
REMARK    1  A    between atoms: C_5  and  C_6
REMARK    2  A    between atoms: C_6  and  C_7
REMARK    3  A    between atoms: C_7  and  N_8
REMARK                            x       y       z     vdW  Elec       q    Type
REMARK                         _______ _______ _______ _____ _____    ______ ____
ROOT
ATOM      1  O   UNL     1       7.855   5.425  20.540  0.00  0.00    +0.000 OA
ATOM      2  C   UNL     1       7.345   5.292  19.433  0.00  0.00    +0.000 C 
ATOM      3  C   UNL     1       5.860   5.170  19.125  0.00  0.00    +0.000 C 
ATOM      4  C   UNL     1       5.855   4.931  17.643  0.00  0.00    +0.000 A 
ATOM      5  C   UNL     1       4.793   4.744  16.771  0.00  0.00    +0.000 A 
ATOM      6  C   UNL     1       5.114   4.519  15.419  0.00  0.00    +0.000 A 
ATOM      7  C   UNL     1       6.448   4.448  14.980  0.00  0.00    +0.000 A 
ATOM      8  C   UNL     1       7.502   4.634  15.875  0.00  0.00    +0.000 A 
ATOM      9  C   UNL     1       7.174   4.887  17.186  0.00  0.00    +0.000 A 
ATOM     10  N   UNL     1       8.044   5.119  18.242  0.00  0.00    +0.000 N 
ATOM     11  H   UNL     1       9.053   5.097  18.177  0.00  0.00    +0.000 HD
ENDROOT
BRANCH   5  12
ATOM     12  C   UNL     1       3.354   4.812  17.223  0.00  0.00    +0.000 C 
BRANCH  12  13
ATOM     13  C   UNL     1       2.733   3.413  17.395  0.00  0.00    +0.000 C 
BRANCH  13  14
ATOM     14  N   UNL     1       2.446   3.012  18.792  0.00  0.00    +0.000 NA
ATOM     15  C   UNL     1       1.820   4.159  19.485  0.00  0.00    +0.000 C 
ATOM     16  C   UNL     1       0.848   3.766  20.592  0.00  0.00    +0.000 C 
ATOM     17  C   UNL     1       1.323   2.737  21.612  0.00  0.00    +0.000 C 
ATOM     18  N   UNL     1       2.759   2.751  21.895  0.00  0.00    +0.000 NA
ATOM     19  C   UNL     1       3.484   1.967  20.882  0.00  0.00    +0.000 C 
ATOM     20  C   UNL     1       3.691   2.649  19.514  0.00  0.00    +0.000 C 
ATOM     21  H   UNL     1       2.900   2.287  22.793  0.00  0.00    +0.000 HD
ENDBRANCH  13  14
ENDBRANCH  12  13
ENDBRANCH   5  12
TORSDOF 3
ENDMDL
MODEL 3
REMARK VINA RESULT:      -7.2      1.548      2.340
REMARK  Name = 
REMARK  3 active torsions:
REMARK  status: ('A' for Active; 'I' for Inactive)
REMARK    1  A    between atoms: C_5  and  C_6
REMARK    2  A    between atoms: C_6  and  C_7
REMARK    3  A    between atoms: C_7  and  N_8
REMARK                            x       y       z     vdW  Elec       q    Type
REMARK                         _______ _______ _______ _____ _____    ______ ____
ROOT
ATOM      1  O   UNL     1       7.103   4.985  13.535  0.00  0.00    +0.000 OA
ATOM      2  C   UNL     1       6.821   5.092  14.723  0.00  0.00    +0.000 C 
ATOM      3  C   UNL     1       5.556   5.705  15.305  0.00  0.00    +0.000 C 
ATOM      4  C   UNL     1       5.819   5.650  16.782  0.00  0.00    +0.000 A 
ATOM      5  C   UNL     1       5.029   6.057  17.847  0.00  0.00    +0.000 A 
ATOM      6  C   UNL     1       5.568   5.891  19.137  0.00  0.00    +0.000 A 
ATOM      7  C   UNL     1       6.859   5.373  19.335  0.00  0.00    +0.000 A 
ATOM      8  C   UNL     1       7.639   4.973  18.250  0.00  0.00    +0.000 A 
ATOM      9  C   UNL     1       7.088   5.110  16.998  0.00  0.00    +0.000 A 
ATOM     10  N   UNL     1       7.664   4.766  15.783  0.00  0.00    +0.000 N 
ATOM     11  H   UNL     1       8.597   4.395  15.668  0.00  0.00    +0.000 HD
ENDROOT
BRANCH   5  12
ATOM     12  C   UNL     1       3.641   6.620  17.655  0.00  0.00    +0.000 C 
BRANCH  12  13
ATOM     13  C   UNL     1       2.638   6.055  18.680  0.00  0.00    +0.000 C 
BRANCH  13  14
ATOM     14  N   UNL     1       2.654   4.583  18.841  0.00  0.00    +0.000 NA
ATOM     15  C   UNL     1       2.528   3.968  17.501  0.00  0.00    +0.000 C 
ATOM     16  C   UNL     1       3.216   2.615  17.367  0.00  0.00    +0.000 C 
ATOM     17  C   UNL     1       2.939   1.574  18.446  0.00  0.00    +0.000 C 
ATOM     18  N   UNL     1       1.610   1.641  19.055  0.00  0.00    +0.000 NA
ATOM     19  C   UNL     1       1.593   2.646  20.129  0.00  0.00    +0.000 C 
ATOM     20  C   UNL     1       1.522   4.121  19.680  0.00  0.00    +0.000 C 
ATOM     21  H   UNL     1       1.425   0.735  19.487  0.00  0.00    +0.000 HD
ENDBRANCH  13  14
ENDBRANCH  12  13
ENDBRANCH   5  12
TORSDOF 3
ENDMDL
MODEL 4
REMARK VINA RESULT:      -7.1      3.011      6.181
REMARK  Name = 
REMARK  3 active torsions:
REMARK  status: ('A' for Active; 'I' for Inactive)
REMARK    1  A    between atoms: C_5  and  C_6
REMARK    2  A    between atoms: C_6  and  C_7
REMARK    3  A    between atoms: C_7  and  N_8
REMARK                            x       y       z     vdW  Elec       q    Type
REMARK                         _______ _______ _______ _____ _____    ______ ____
ROOT
ATOM      1  O   UNL     1       1.964   8.296  20.047  0.00  0.00    +0.000 OA
ATOM      2  C   UNL     1       2.017   7.075  19.951  0.00  0.00    +0.000 C 
ATOM      3  C   UNL     1       2.369   6.276  18.705  0.00  0.00    +0.000 C 
ATOM      4  C   UNL     1       2.169   4.859  19.161  0.00  0.00    +0.000 A 
ATOM      5  C   UNL     1       2.339   3.666  18.474  0.00  0.00    +0.000 A 
ATOM      6  C   UNL     1       2.048   2.482  19.178  0.00  0.00    +0.000 A 
ATOM      7  C   UNL     1       1.573   2.509  20.501  0.00  0.00    +0.000 A 
ATOM      8  C   UNL     1       1.406   3.720  21.172  0.00  0.00    +0.000 A 
ATOM      9  C   UNL     1       1.724   4.867  20.485  0.00  0.00    +0.000 A 
ATOM     10  N   UNL     1       1.656   6.173  20.949  0.00  0.00    +0.000 N 
ATOM     11  H   UNL     1       1.321   6.447  21.862  0.00  0.00    +0.000 HD
ENDROOT
BRANCH   5  12
ATOM     12  C   UNL     1       2.844   3.617  17.053  0.00  0.00    +0.000 C 
BRANCH  12  13
ATOM     13  C   UNL     1       4.351   3.307  16.982  0.00  0.00    +0.000 C 
BRANCH  13  14
ATOM     14  N   UNL     1       5.249   4.428  17.345  0.00  0.00    +0.000 NA
ATOM     15  C   UNL     1       6.393   4.429  16.407  0.00  0.00    +0.000 C 
ATOM     16  C   UNL     1       6.984   5.809  16.143  0.00  0.00    +0.000 C 
ATOM     17  C   UNL     1       7.301   6.682  17.352  0.00  0.00    +0.000 C 
ATOM     18  N   UNL     1       7.692   5.958  18.562  0.00  0.00    +0.000 NA
ATOM     19  C   UNL     1       6.497   5.511  19.295  0.00  0.00    +0.000 C 
ATOM     20  C   UNL     1       5.771   4.275  18.724  0.00  0.00    +0.000 C 
ATOM     21  H   UNL     1       8.187   6.615  19.166  0.00  0.00    +0.000 HD
ENDBRANCH  13  14
ENDBRANCH  12  13
ENDBRANCH   5  12
TORSDOF 3
ENDMDL
MODEL 5
REMARK VINA RESULT:      -7.1      2.451      3.545
REMARK  Name = 
REMARK  3 active torsions:
REMARK  status: ('A' for Active; 'I' for Inactive)
REMARK    1  A    between atoms: C_5  and  C_6
REMARK    2  A    between atoms: C_6  and  C_7
REMARK    3  A    between atoms: C_7  and  N_8
REMARK                            x       y       z     vdW  Elec       q    Type
REMARK                         _______ _______ _______ _____ _____    ______ ____
ROOT
ATOM      1  O   UNL     1       8.570   5.074  20.149  0.00  0.00    +0.000 OA
ATOM      2  C   UNL     1       7.904   5.190  19.126  0.00  0.00    +0.000 C 
ATOM      3  C   UNL     1       6.637   6.015  18.957  0.00  0.00    +0.000 C 
ATOM      4  C   UNL     1       6.225   5.691  17.549  0.00  0.00    +0.000 A 
ATOM      5  C   UNL     1       5.143   6.141  16.807  0.00  0.00    +0.000 A 
ATOM      6  C   UNL     1       5.013   5.632  15.501  0.00  0.00    +0.000 A 
ATOM      7  C   UNL     1       5.915   4.683  14.988  0.00  0.00    +0.000 A 
ATOM      8  C   UNL     1       6.994   4.240  15.752  0.00  0.00    +0.000 A 
ATOM      9  C   UNL     1       7.128   4.770  17.013  0.00  0.00    +0.000 A 
ATOM     10  N   UNL     1       8.124   4.496  17.940  0.00  0.00    +0.000 N 
ATOM     11  H   UNL     1       8.871   3.828  17.807  0.00  0.00    +0.000 HD
ENDROOT
BRANCH   5  12
ATOM     12  C   UNL     1       4.162   7.156  17.343  0.00  0.00    +0.000 C 
BRANCH  12  13
ATOM     13  C   UNL     1       3.106   6.514  18.263  0.00  0.00    +0.000 C 
BRANCH  13  14
ATOM     14  N   UNL     1       3.210   5.044  18.422  0.00  0.00    +0.000 NA
ATOM     15  C   UNL     1       2.074   4.420  17.709  0.00  0.00    +0.000 C 
ATOM     16  C   UNL     1       2.371   3.032  17.154  0.00  0.00    +0.000 C 
ATOM     17  C   UNL     1       3.015   2.020  18.095  0.00  0.00    +0.000 C 
ATOM     18  N   UNL     1       2.657   2.162  19.506  0.00  0.00    +0.000 NA
ATOM     19  C   UNL     1       3.505   3.181  20.146  0.00  0.00    +0.000 C 
ATOM     20  C   UNL     1       3.143   4.651  19.850  0.00  0.00    +0.000 C 
ATOM     21  H   UNL     1       2.858   1.272  19.965  0.00  0.00    +0.000 HD
ENDBRANCH  13  14
ENDBRANCH  12  13
ENDBRANCH   5  12
TORSDOF 3
ENDMDL
MODEL 6
REMARK VINA RESULT:      -7.0      0.901      1.587
REMARK  Name = 
REMARK  3 active torsions:
REMARK  status: ('A' for Active; 'I' for Inactive)
REMARK    1  A    between atoms: C_5  and  C_6
REMARK    2  A    between atoms: C_6  and  C_7
REMARK    3  A    between atoms: C_7  and  N_8
REMARK                            x       y       z     vdW  Elec       q    Type
REMARK                         _______ _______ _______ _____ _____    ______ ____
ROOT
ATOM      1  O   UNL     1       7.437   4.756  12.667  0.00  0.00    +0.000 OA
ATOM      2  C   UNL     1       7.142   4.766  13.856  0.00  0.00    +0.000 C 
ATOM      3  C   UNL     1       6.063   3.933  14.532  0.00  0.00    +0.000 C 
ATOM      4  C   UNL     1       6.096   4.443  15.944  0.00  0.00    +0.000 A 
ATOM      5  C   UNL     1       5.346   4.068  17.048  0.00  0.00    +0.000 A 
ATOM      6  C   UNL     1       5.599   4.756  18.251  0.00  0.00    +0.000 A 
ATOM      7  C   UNL     1       6.540   5.798  18.319  0.00  0.00    +0.000 A 
ATOM      8  C   UNL     1       7.282   6.162  17.196  0.00  0.00    +0.000 A 
ATOM      9  C   UNL     1       7.049   5.460  16.037  0.00  0.00    +0.000 A 
ATOM     10  N   UNL     1       7.673   5.632  14.809  0.00  0.00    +0.000 N 
ATOM     11  H   UNL     1       8.370   6.335  14.606  0.00  0.00    +0.000 HD
ENDROOT
BRANCH   5  12
ATOM     12  C   UNL     1       4.328   2.955  16.994  0.00  0.00    +0.000 C 
BRANCH  12  13
ATOM     13  C   UNL     1       2.903   3.455  17.302  0.00  0.00    +0.000 C 
BRANCH  13  14
ATOM     14  N   UNL     1       2.535   3.482  18.737  0.00  0.00    +0.000 NA
ATOM     15  C   UNL     1       3.023   2.235  19.365  0.00  0.00    +0.000 C 
ATOM     16  C   UNL     1       3.390   2.378  20.837  0.00  0.00    +0.000 C 
ATOM     17  C   UNL     1       2.378   3.060  21.751  0.00  0.00    +0.000 C 
ATOM     18  N   UNL     1       0.975   2.876  21.380  0.00  0.00    +0.000 NA
ATOM     19  C   UNL     1       0.589   3.855  20.351  0.00  0.00    +0.000 C 
ATOM     20  C   UNL     1       1.065   3.555  18.915  0.00  0.00    +0.000 C 
ATOM     21  H   UNL     1       0.410   3.071  22.208  0.00  0.00    +0.000 HD
ENDBRANCH  13  14
ENDBRANCH  12  13
ENDBRANCH   5  12
TORSDOF 3
ENDMDL
MODEL 7
REMARK VINA RESULT:      -7.0      1.545      1.904
REMARK  Name = 
REMARK  3 active torsions:
REMARK  status: ('A' for Active; 'I' for Inactive)
REMARK    1  A    between atoms: C_5  and  C_6
REMARK    2  A    between atoms: C_6  and  C_7
REMARK    3  A    between atoms: C_7  and  N_8
REMARK                            x       y       z     vdW  Elec       q    Type
REMARK                         _______ _______ _______ _____ _____    ______ ____
ROOT
ATOM      1  O   UNL     1       6.753   4.541  13.483  0.00  0.00    +0.000 OA
ATOM      2  C   UNL     1       6.604   4.730  14.685  0.00  0.00    +0.000 C 
ATOM      3  C   UNL     1       5.422   5.412  15.358  0.00  0.00    +0.000 C 
ATOM      4  C   UNL     1       5.842   5.443  16.799  0.00  0.00    +0.000 A 
ATOM      5  C   UNL     1       5.181   5.938  17.913  0.00  0.00    +0.000 A 
ATOM      6  C   UNL     1       5.854   5.838  19.146  0.00  0.00    +0.000 A 
ATOM      7  C   UNL     1       7.148   5.298  19.237  0.00  0.00    +0.000 A 
ATOM      8  C   UNL     1       7.797   4.810  18.104  0.00  0.00    +0.000 A 
ATOM      9  C   UNL     1       7.116   4.883  16.912  0.00  0.00    +0.000 A 
ATOM     10  N   UNL     1       7.550   4.448  15.667  0.00  0.00    +0.000 N 
ATOM     11  H   UNL     1       8.457   4.045  15.477  0.00  0.00    +0.000 HD
ENDROOT
BRANCH   5  12
ATOM     12  C   UNL     1       3.793   6.525  17.835  0.00  0.00    +0.000 C 
BRANCH  12  13
ATOM     13  C   UNL     1       2.722   5.451  17.564  0.00  0.00    +0.000 C 
BRANCH  13  14
ATOM     14  N   UNL     1       2.468   4.511  18.680  0.00  0.00    +0.000 NA
ATOM     15  C   UNL     1       1.356   3.616  18.290  0.00  0.00    +0.000 C 
ATOM     16  C   UNL     1       1.426   2.225  18.910  0.00  0.00    +0.000 C 
ATOM     17  C   UNL     1       1.662   2.136  20.414  0.00  0.00    +0.000 C 
ATOM     18  N   UNL     1       1.115   3.242  21.201  0.00  0.00    +0.000 NA
ATOM     19  C   UNL     1       2.050   4.379  21.199  0.00  0.00    +0.000 C 
ATOM     20  C   UNL     1       2.078   5.234  19.915  0.00  0.00    +0.000 C 
ATOM     21  H   UNL     1       1.034   2.921  22.166  0.00  0.00    +0.000 HD
ENDBRANCH  13  14
ENDBRANCH  12  13
ENDBRANCH   5  12
TORSDOF 3
ENDMDL
MODEL 8
REMARK VINA RESULT:      -7.0      1.152      1.854
REMARK  Name = 
REMARK  3 active torsions:
REMARK  status: ('A' for Active; 'I' for Inactive)
REMARK    1  A    between atoms: C_5  and  C_6
REMARK    2  A    between atoms: C_6  and  C_7
REMARK    3  A    between atoms: C_7  and  N_8
REMARK                            x       y       z     vdW  Elec       q    Type
REMARK                         _______ _______ _______ _____ _____    ______ ____
ROOT
ATOM      1  O   UNL     1       6.830   4.275  13.410  0.00  0.00    +0.000 OA
ATOM      2  C   UNL     1       6.633   4.525  14.593  0.00  0.00    +0.000 C 
ATOM      3  C   UNL     1       5.356   5.084  15.203  0.00  0.00    +0.000 C 
ATOM      4  C   UNL     1       5.739   5.272  16.643  0.00  0.00    +0.000 A 
ATOM      5  C   UNL     1       4.995   5.748  17.712  0.00  0.00    +0.000 A 
ATOM      6  C   UNL     1       5.649   5.828  18.956  0.00  0.00    +0.000 A 
ATOM      7  C   UNL     1       7.003   5.477  19.099  0.00  0.00    +0.000 A 
ATOM      8  C   UNL     1       7.735   5.005  18.010  0.00  0.00    +0.000 A 
ATOM      9  C   UNL     1       7.075   4.901  16.809  0.00  0.00    +0.000 A 
ATOM     10  N   UNL     1       7.588   4.444  15.603  0.00  0.00    +0.000 N 
ATOM     11  H   UNL     1       8.545   4.157  15.452  0.00  0.00    +0.000 HD
ENDROOT
BRANCH   5  12
ATOM     12  C   UNL     1       3.541   6.133  17.577  0.00  0.00    +0.000 C 
BRANCH  12  13
ATOM     13  C   UNL     1       2.604   4.915  17.686  0.00  0.00    +0.000 C 
BRANCH  13  14
ATOM     14  N   UNL     1       2.641   4.199  18.982  0.00  0.00    +0.000 NA
ATOM     15  C   UNL     1       3.179   2.841  18.747  0.00  0.00    +0.000 C 
ATOM     16  C   UNL     1       3.939   2.256  19.932  0.00  0.00    +0.000 C 
ATOM     17  C   UNL     1       3.269   2.321  21.299  0.00  0.00    +0.000 C 
ATOM     18  N   UNL     1       1.808   2.251  21.285  0.00  0.00    +0.000 NA
ATOM     19  C   UNL     1       1.237   3.583  21.028  0.00  0.00    +0.000 C 
ATOM     20  C   UNL     1       1.283   4.072  19.565  0.00  0.00    +0.000 C 
ATOM     21  H   UNL     1       1.504   1.968  22.218  0.00  0.00    +0.000 HD
ENDBRANCH  13  14
ENDBRANCH  12  13
ENDBRANCH   5  12
TORSDOF 3
ENDMDL
MODEL 9
REMARK VINA RESULT:      -6.9      1.762      2.628
REMARK  Name = 
REMARK  3 active torsions:
REMARK  status: ('A' for Active; 'I' for Inactive)
REMARK    1  A    between atoms: C_5  and  C_6
REMARK    2  A    between atoms: C_6  and  C_7
REMARK    3  A    between atoms: C_7  and  N_8
REMARK                            x       y       z     vdW  Elec       q    Type
REMARK                         _______ _______ _______ _____ _____    ______ ____
ROOT
ATOM      1  O   UNL     1       8.071   7.355  18.576  0.00  0.00    +0.000 OA
ATOM      2  C   UNL     1       7.411   6.711  17.769  0.00  0.00    +0.000 C 
ATOM      3  C   UNL     1       6.022   6.130  17.990  0.00  0.00    +0.000 C 
ATOM      4  C   UNL     1       5.780   5.374  16.716  0.00  0.00    +0.000 A 
ATOM      5  C   UNL     1       4.680   4.633  16.311  0.00  0.00    +0.000 A 
ATOM      6  C   UNL     1       4.761   4.015  15.048  0.00  0.00    +0.000 A 
ATOM      7  C   UNL     1       5.915   4.114  14.252  0.00  0.00    +0.000 A 
ATOM      8  C   UNL     1       7.012   4.861  14.680  0.00  0.00    +0.000 A 
ATOM      9  C   UNL     1       6.907   5.486  15.900  0.00  0.00    +0.000 A 
ATOM     10  N   UNL     1       7.855   6.290  16.518  0.00  0.00    +0.000 N 
ATOM     11  H   UNL     1       8.775   6.490  16.150  0.00  0.00    +0.000 HD
ENDROOT
BRANCH   5  12
ATOM     12  C   UNL     1       3.433   4.511  17.153  0.00  0.00    +0.000 C 
BRANCH  12  13
ATOM     13  C   UNL     1       3.076   3.043  17.455  0.00  0.00    +0.000 C 
BRANCH  13  14
ATOM     14  N   UNL     1       2.697   2.756  18.858  0.00  0.00    +0.000 NA
ATOM     15  C   UNL     1       1.796   3.833  19.324  0.00  0.00    +0.000 C 
ATOM     16  C   UNL     1       0.782   3.389  20.373  0.00  0.00    +0.000 C 
ATOM     17  C   UNL     1       1.304   2.593  21.564  0.00  0.00    +0.000 C 
ATOM     18  N   UNL     1       2.669   2.915  21.982  0.00  0.00    +0.000 NA
ATOM     19  C   UNL     1       3.640   2.174  21.162  0.00  0.00    +0.000 C 
ATOM     20  C   UNL     1       3.888   2.723  19.741  0.00  0.00    +0.000 C 
ATOM     21  H   UNL     1       2.779   2.591  22.945  0.00  0.00    +0.000 HD
ENDBRANCH  13  14
ENDBRANCH  12  13
ENDBRANCH   5  12
TORSDOF 3
ENDMDL
