MODEL 1
REMARK VINA RESULT:      -9.0      0.000      0.000
REMARK  Name = 
REMARK  7 active torsions:
REMARK  status: ('A' for Active; 'I' for Inactive)
REMARK    1  A    between atoms: C_1  and  C_2
REMARK    2  A    between atoms: C_5  and  C_6
REMARK    3  A    between atoms: N_8  and  C_9
REMARK    4  A    between atoms: C_9  and  N_11
REMARK    5  A    between atoms: N_11  and  C_12
REMARK    6  A    between atoms: C_17  and  C_18
REMARK    7  A    between atoms: C_22  and  C_23
REMARK                            x       y       z     vdW  Elec       q    Type
REMARK                         _______ _______ _______ _____ _____    ______ ____
ROOT
ATOM      1  C   UNL     1       5.185   4.300  19.339  0.00  0.00    +0.000 A 
ATOM      2  C   UNL     1       4.500   3.090  19.447  0.00  0.00    +0.000 A 
ATOM      3  C   UNL     1       3.136   3.081  19.733  0.00  0.00    +0.000 A 
ATOM      4  C   UNL     1       2.430   4.283  19.846  0.00  0.00    +0.000 A 
ATOM      5 CL   UNL     1       0.756   4.169  20.269  0.00  0.00    +0.000 Cl
ATOM      6  C   UNL     1       3.090   5.507  19.664  0.00  0.00    +0.000 A 
ATOM      7  C   UNL     1       4.484   5.503  19.449  0.00  0.00    +0.000 A 
ENDROOT
BRANCH   6   8
ATOM      8  C   UNL     1       2.414   6.794  19.696  0.00  0.00    +0.000 A 
ATOM      9  N   UNL     1       1.768   7.352  20.703  0.00  0.00    +0.000 NA
ATOM     10  C   UNL     1       1.271   8.507  20.157  0.00  0.00    +0.000 A 
ATOM     11  C   UNL     1       0.392   9.461  20.680  0.00  0.00    +0.000 A 
ATOM     12  C   UNL     1      -0.065  10.482  19.828  0.00  0.00    +0.000 A 
ATOM     13  C   UNL     1      -1.166  11.393  20.291  0.00  0.00    +0.000 C 
ATOM     14  C   UNL     1       0.464  10.619  18.530  0.00  0.00    +0.000 A 
ATOM     15  C   UNL     1       1.391   9.702  18.013  0.00  0.00    +0.000 A 
ATOM     16  C   UNL     1       1.719   8.649  18.854  0.00  0.00    +0.000 A 
ATOM     17  O   UNL     1       2.487   7.560  18.562  0.00  0.00    +0.000 OA
ENDBRANCH   6   8
BRANCH   1  18
ATOM     18  N   UNL     1       6.553   4.246  19.014  0.00  0.00    +0.000 N 
ATOM     19  H   UNL     1       7.022   3.374  19.243  0.00  0.00    +0.000 HD
BRANCH  18  20
ATOM     20  C   UNL     1       7.292   5.060  18.188  0.00  0.00    +0.000 C 
ATOM     21  S   UNL     1       8.002   6.391  18.902  0.00  0.00    +0.000 S 
BRANCH  20  24
ATOM     22  C   UNL     1       6.627   5.415  15.799  0.00  0.00    +0.000 C 
ATOM     23  O   UNL     1       6.267   6.589  15.870  0.00  0.00    +0.000 OA
ATOM     24  N   UNL     1       7.247   4.725  16.841  0.00  0.00    +0.000 N 
ATOM     25  H   UNL     1       7.534   3.779  16.657  0.00  0.00    +0.000 HD
BRANCH  22  30
ATOM     26  C   UNL     1       5.517   2.581  10.819  0.00  0.00    +0.000 C 
ATOM     27  C   UNL     1       5.843   3.303  12.095  0.00  0.00    +0.000 A 
ATOM     28  C   UNL     1       4.948   3.284  13.160  0.00  0.00    +0.000 A 
ATOM     29  C   UNL     1       5.242   3.974  14.341  0.00  0.00    +0.000 A 
ATOM     30  C   UNL     1       6.433   4.704  14.486  0.00  0.00    +0.000 A 
ATOM     31  C   UNL     1       7.340   4.709  13.422  0.00  0.00    +0.000 A 
ATOM     32  C   UNL     1       7.043   4.017  12.234  0.00  0.00    +0.000 A 
ENDBRANCH  22  30
ENDBRANCH  20  24
ENDBRANCH  18  20
ENDBRANCH   1  18
TORSDOF 5
ENDMDL
MODEL 2
REMARK VINA RESULT:      -8.8      0.822      1.255
REMARK  Name = 
REMARK  7 active torsions:
REMARK  status: ('A' for Active; 'I' for Inactive)
REMARK    1  A    between atoms: C_1  and  C_2
REMARK    2  A    between atoms: C_5  and  C_6
REMARK    3  A    between atoms: N_8  and  C_9
REMARK    4  A    between atoms: C_9  and  N_11
REMARK    5  A    between atoms: N_11  and  C_12
REMARK    6  A    between atoms: C_17  and  C_18
REMARK    7  A    between atoms: C_22  and  C_23
REMARK                            x       y       z     vdW  Elec       q    Type
REMARK                         _______ _______ _______ _____ _____    ______ ____
ROOT
ATOM      1  C   UNL     1       5.306   4.524  19.220  0.00  0.00    +0.000 A 
ATOM      2  C   UNL     1       4.687   3.278  19.111  0.00  0.00    +0.000 A 
ATOM      3  C   UNL     1       3.311   3.161  19.296  0.00  0.00    +0.000 A 
ATOM      4  C   UNL     1       2.530   4.299  19.524  0.00  0.00    +0.000 A 
ATOM      5 CL   UNL     1       0.843   4.043  19.808  0.00  0.00    +0.000 Cl
ATOM      6  C   UNL     1       3.127   5.567  19.560  0.00  0.00    +0.000 A 
ATOM      7  C   UNL     1       4.529   5.663  19.446  0.00  0.00    +0.000 A 
ENDROOT
BRANCH   6   8
ATOM      8  C   UNL     1       2.375   6.802  19.722  0.00  0.00    +0.000 A 
ATOM      9  N   UNL     1       2.154   7.747  18.826  0.00  0.00    +0.000 NA
ATOM     10  C   UNL     1       1.468   8.697  19.535  0.00  0.00    +0.000 A 
ATOM     11  C   UNL     1       1.067   9.989  19.180  0.00  0.00    +0.000 A 
ATOM     12  C   UNL     1       0.497  10.806  20.174  0.00  0.00    +0.000 A 
ATOM     13  C   UNL     1       0.252  12.260  19.885  0.00  0.00    +0.000 C 
ATOM     14  C   UNL     1       0.207  10.282  21.449  0.00  0.00    +0.000 A 
ATOM     15  C   UNL     1       0.552   8.968  21.799  0.00  0.00    +0.000 A 
ATOM     16  C   UNL     1       1.216   8.245  20.820  0.00  0.00    +0.000 A 
ATOM     17  O   UNL     1       1.772   7.005  20.935  0.00  0.00    +0.000 OA
ENDBRANCH   6   8
BRANCH   1  18
ATOM     18  N   UNL     1       6.692   4.584  18.988  0.00  0.00    +0.000 N 
ATOM     19  H   UNL     1       7.231   3.804  19.355  0.00  0.00    +0.000 HD
BRANCH  18  20
ATOM     20  C   UNL     1       7.402   5.370  18.111  0.00  0.00    +0.000 C 
ATOM     21  S   UNL     1       8.120   6.733  18.753  0.00  0.00    +0.000 S 
BRANCH  20  24
ATOM     22  C   UNL     1       6.570   5.555  15.756  0.00  0.00    +0.000 C 
ATOM     23  O   UNL     1       6.077   6.681  15.812  0.00  0.00    +0.000 OA
ATOM     24  N   UNL     1       7.325   4.982  16.780  0.00  0.00    +0.000 N 
ATOM     25  H   UNL     1       7.711   4.071  16.609  0.00  0.00    +0.000 HD
BRANCH  22  30
ATOM     26  C   UNL     1       5.517   2.471  10.914  0.00  0.00    +0.000 C 
ATOM     27  C   UNL     1       5.828   3.258  12.155  0.00  0.00    +0.000 A 
ATOM     28  C   UNL     1       4.917   3.297  13.206  0.00  0.00    +0.000 A 
ATOM     29  C   UNL     1       5.198   4.046  14.355  0.00  0.00    +0.000 A 
ATOM     30  C   UNL     1       6.391   4.778  14.479  0.00  0.00    +0.000 A 
ATOM     31  C   UNL     1       7.313   4.724  13.429  0.00  0.00    +0.000 A 
ATOM     32  C   UNL     1       7.029   3.972  12.274  0.00  0.00    +0.000 A 
ENDBRANCH  22  30
ENDBRANCH  20  24
ENDBRANCH  18  20
ENDBRANCH   1  18
TORSDOF 5
ENDMDL
MODEL 3
REMARK VINA RESULT:      -8.7      3.482      5.216
REMARK  Name = 
REMARK  7 active torsions:
REMARK  status: ('A' for Active; 'I' for Inactive)
REMARK    1  A    between atoms: C_1  and  C_2
REMARK    2  A    between atoms: C_5  and  C_6
REMARK    3  A    between atoms: N_8  and  C_9
REMARK    4  A    between atoms: C_9  and  N_11
REMARK    5  A    between atoms: N_11  and  C_12
REMARK    6  A    between atoms: C_17  and  C_18
REMARK    7  A    between atoms: C_22  and  C_23
REMARK                            x       y       z     vdW  Elec       q    Type
REMARK                         _______ _______ _______ _____ _____    ______ ____
ROOT
ATOM      1  C   UNL     1       4.229   6.102  17.459  0.00  0.00    +0.000 A 
ATOM      2  C   UNL     1       3.858   4.762  17.575  0.00  0.00    +0.000 A 
ATOM      3  C   UNL     1       2.893   4.380  18.506  0.00  0.00    +0.000 A 
ATOM      4  C   UNL     1       2.240   5.344  19.281  0.00  0.00    +0.000 A 
ATOM      5 CL   UNL     1       1.107   4.765  20.453  0.00  0.00    +0.000 Cl
ATOM      6  C   UNL     1       2.547   6.703  19.120  0.00  0.00    +0.000 A 
ATOM      7  C   UNL     1       3.577   7.067  18.230  0.00  0.00    +0.000 A 
ENDROOT
BRANCH   6   8
ATOM      8  C   UNL     1       1.863   7.768  19.837  0.00  0.00    +0.000 A 
ATOM      9  N   UNL     1       1.596   7.843  21.128  0.00  0.00    +0.000 NA
ATOM     10  C   UNL     1       0.878   9.005  21.233  0.00  0.00    +0.000 A 
ATOM     11  C   UNL     1       0.200   9.565  22.321  0.00  0.00    +0.000 A 
ATOM     12  C   UNL     1      -0.586  10.711  22.097  0.00  0.00    +0.000 A 
ATOM     13  C   UNL     1      -1.491  11.211  23.188  0.00  0.00    +0.000 C 
ATOM     14  C   UNL     1      -0.567  11.355  20.845  0.00  0.00    +0.000 A 
ATOM     15  C   UNL     1       0.156  10.836  19.762  0.00  0.00    +0.000 A 
ATOM     16  C   UNL     1       0.818   9.642  20.005  0.00  0.00    +0.000 A 
ATOM     17  O   UNL     1       1.483   8.862  19.105  0.00  0.00    +0.000 OA
ENDBRANCH   6   8
BRANCH   1  18
ATOM     18  N   UNL     1       5.182   6.430  16.479  0.00  0.00    +0.000 N 
ATOM     19  H   UNL     1       4.854   7.046  15.739  0.00  0.00    +0.000 HD
BRANCH  18  20
ATOM     20  C   UNL     1       6.550   6.291  16.502  0.00  0.00    +0.000 C 
ATOM     21  S   UNL     1       7.139   4.740  16.321  0.00  0.00    +0.000 S 
BRANCH  20  24
ATOM     22  C   UNL     1       7.909   7.791  17.978  0.00  0.00    +0.000 C 
ATOM     23  O   UNL     1       8.212   6.981  18.852  0.00  0.00    +0.000 OA
ATOM     24  N   UNL     1       7.254   7.452  16.793  0.00  0.00    +0.000 N 
ATOM     25  H   UNL     1       7.092   8.191  16.133  0.00  0.00    +0.000 HD
BRANCH  22  30
ATOM     26  C   UNL     1       9.780  13.222  19.012  0.00  0.00    +0.000 C 
ATOM     27  C   UNL     1       9.263  11.839  18.734  0.00  0.00    +0.000 A 
ATOM     28  C   UNL     1       9.700  10.761  19.495  0.00  0.00    +0.000 A 
ATOM     29  C   UNL     1       9.234   9.470  19.223  0.00  0.00    +0.000 A 
ATOM     30  C   UNL     1       8.324   9.224  18.180  0.00  0.00    +0.000 A 
ATOM     31  C   UNL     1       7.873  10.311  17.426  0.00  0.00    +0.000 A 
ATOM     32  C   UNL     1       8.344  11.608  17.699  0.00  0.00    +0.000 A 
ENDBRANCH  22  30
ENDBRANCH  20  24
ENDBRANCH  18  20
ENDBRANCH   1  18
TORSDOF 5
ENDMDL
MODEL 4
REMARK VINA RESULT:      -8.7      2.801      4.336
REMARK  Name = 
REMARK  7 active torsions:
REMARK  status: ('A' for Active; 'I' for Inactive)
REMARK    1  A    between atoms: C_1  and  C_2
REMARK    2  A    between atoms: C_5  and  C_6
REMARK    3  A    between atoms: N_8  and  C_9
REMARK    4  A    between atoms: C_9  and  N_11
REMARK    5  A    between atoms: N_11  and  C_12
REMARK    6  A    between atoms: C_17  and  C_18
REMARK    7  A    between atoms: C_22  and  C_23
REMARK                            x       y       z     vdW  Elec       q    Type
REMARK                         _______ _______ _______ _____ _____    ______ ____
ROOT
ATOM      1  C   UNL     1       2.340   6.564  20.017  0.00  0.00    +0.000 A 
ATOM      2  C   UNL     1       2.707   6.802  18.692  0.00  0.00    +0.000 A 
ATOM      3  C   UNL     1       2.302   7.972  18.053  0.00  0.00    +0.000 A 
ATOM      4  C   UNL     1       1.584   8.947  18.753  0.00  0.00    +0.000 A 
ATOM      5 CL   UNL     1       1.070  10.333  17.855  0.00  0.00    +0.000 Cl
ATOM      6  C   UNL     1       1.274   8.756  20.108  0.00  0.00    +0.000 A 
ATOM      7  C   UNL     1       1.626   7.536  20.720  0.00  0.00    +0.000 A 
ENDROOT
BRANCH   6   8
ATOM      8  C   UNL     1       0.594   9.752  20.921  0.00  0.00    +0.000 A 
ATOM      9  N   UNL     1      -0.335   9.560  21.839  0.00  0.00    +0.000 NA
ATOM     10  C   UNL     1      -0.668  10.833  22.221  0.00  0.00    +0.000 A 
ATOM     11  C   UNL     1      -1.682  11.298  23.065  0.00  0.00    +0.000 A 
ATOM     12  C   UNL     1      -1.882  12.688  23.160  0.00  0.00    +0.000 A 
ATOM     13  C   UNL     1      -3.089  13.212  23.885  0.00  0.00    +0.000 C 
ATOM     14  C   UNL     1      -0.989  13.582  22.538  0.00  0.00    +0.000 A 
ATOM     15  C   UNL     1       0.068  13.127  21.736  0.00  0.00    +0.000 A 
ATOM     16  C   UNL     1       0.149  11.751  21.582  0.00  0.00    +0.000 A 
ATOM     17  O   UNL     1       0.990  11.054  20.765  0.00  0.00    +0.000 OA
ENDBRANCH   6   8
BRANCH   1  18
ATOM     18  N   UNL     1       2.808   5.382  20.619  0.00  0.00    +0.000 N 
ATOM     19  H   UNL     1       2.899   5.414  21.631  0.00  0.00    +0.000 HD
BRANCH  18  20
ATOM     20  C   UNL     1       2.893   4.109  20.106  0.00  0.00    +0.000 C 
ATOM     21  S   UNL     1       2.227   2.892  21.033  0.00  0.00    +0.000 S 
BRANCH  20  24
ATOM     22  C   UNL     1       4.981   4.292  18.734  0.00  0.00    +0.000 C 
ATOM     23  O   UNL     1       5.800   4.425  19.642  0.00  0.00    +0.000 OA
ATOM     24  N   UNL     1       3.633   3.996  18.936  0.00  0.00    +0.000 N 
ATOM     25  H   UNL     1       3.064   3.872  18.117  0.00  0.00    +0.000 HD
BRANCH  22  30
ATOM     26  C   UNL     1       7.289   4.728  13.391  0.00  0.00    +0.000 C 
ATOM     27  C   UNL     1       6.660   4.631  14.752  0.00  0.00    +0.000 A 
ATOM     28  C   UNL     1       7.436   4.786  15.895  0.00  0.00    +0.000 A 
ATOM     29  C   UNL     1       6.854   4.675  17.163  0.00  0.00    +0.000 A 
ATOM     30  C   UNL     1       5.485   4.402  17.319  0.00  0.00    +0.000 A 
ATOM     31  C   UNL     1       4.702   4.263  16.169  0.00  0.00    +0.000 A 
ATOM     32  C   UNL     1       5.288   4.372  14.895  0.00  0.00    +0.000 A 
ENDBRANCH  22  30
ENDBRANCH  20  24
ENDBRANCH  18  20
ENDBRANCH   1  18
TORSDOF 5
ENDMDL
MODEL 5
REMARK VINA RESULT:      -8.7      3.083      4.821
REMARK  Name = 
REMARK  7 active torsions:
REMARK  status: ('A' for Active; 'I' for Inactive)
REMARK    1  A    between atoms: C_1  and  C_2
REMARK    2  A    between atoms: C_5  and  C_6
REMARK    3  A    between atoms: N_8  and  C_9
REMARK    4  A    between atoms: C_9  and  N_11
REMARK    5  A    between atoms: N_11  and  C_12
REMARK    6  A    between atoms: C_17  and  C_18
REMARK    7  A    between atoms: C_22  and  C_23
REMARK                            x       y       z     vdW  Elec       q    Type
REMARK                         _______ _______ _______ _____ _____    ______ ____
ROOT
ATOM      1  C   UNL     1       2.105   7.716  19.761  0.00  0.00    +0.000 A 
ATOM      2  C   UNL     1       2.201   8.033  18.406  0.00  0.00    +0.000 A 
ATOM      3  C   UNL     1       1.504   9.124  17.891  0.00  0.00    +0.000 A 
ATOM      4  C   UNL     1       0.760   9.951  18.739  0.00  0.00    +0.000 A 
ATOM      5 CL   UNL     1      -0.123  11.239  17.996  0.00  0.00    +0.000 Cl
ATOM      6  C   UNL     1       0.716   9.690  20.117  0.00  0.00    +0.000 A 
ATOM      7  C   UNL     1       1.365   8.540  20.612  0.00  0.00    +0.000 A 
ENDROOT
BRANCH   6   8
ATOM      8  C   UNL     1       0.024  10.541  21.071  0.00  0.00    +0.000 A 
ATOM      9  N   UNL     1      -0.950  10.214  21.900  0.00  0.00    +0.000 NA
ATOM     10  C   UNL     1      -1.269  11.407  22.495  0.00  0.00    +0.000 A 
ATOM     11  C   UNL     1      -2.309  11.742  23.369  0.00  0.00    +0.000 A 
ATOM     12  C   UNL     1      -2.481  13.096  23.710  0.00  0.00    +0.000 A 
ATOM     13  C   UNL     1      -3.707  13.517  24.469  0.00  0.00    +0.000 C 
ATOM     14  C   UNL     1      -1.541  14.061  23.298  0.00  0.00    +0.000 A 
ATOM     15  C   UNL     1      -0.460  13.727  22.469  0.00  0.00    +0.000 A 
ATOM     16  C   UNL     1      -0.404  12.400  22.068  0.00  0.00    +0.000 A 
ATOM     17  O   UNL     1       0.456  11.838  21.172  0.00  0.00    +0.000 OA
ENDBRANCH   6   8
BRANCH   1  18
ATOM     18  N   UNL     1       2.859   6.625  20.229  0.00  0.00    +0.000 N 
ATOM     19  H   UNL     1       3.397   6.796  21.075  0.00  0.00    +0.000 HD
BRANCH  18  20
ATOM     20  C   UNL     1       2.773   5.292  19.901  0.00  0.00    +0.000 C 
ATOM     21  S   UNL     1       1.839   4.342  20.905  0.00  0.00    +0.000 S 
BRANCH  20  24
ATOM     22  C   UNL     1       4.948   5.091  18.674  0.00  0.00    +0.000 C 
ATOM     23  O   UNL     1       5.714   5.392  19.587  0.00  0.00    +0.000 OA
ATOM     24  N   UNL     1       3.576   4.896  18.839  0.00  0.00    +0.000 N 
ATOM     25  H   UNL     1       3.053   4.614  18.029  0.00  0.00    +0.000 HD
BRANCH  22  30
ATOM     26  C   UNL     1       6.901   4.155  13.254  0.00  0.00    +0.000 C 
ATOM     27  C   UNL     1       6.435   4.386  14.663  0.00  0.00    +0.000 A 
ATOM     28  C   UNL     1       5.114   4.131  15.016  0.00  0.00    +0.000 A 
ATOM     29  C   UNL     1       4.675   4.365  16.324  0.00  0.00    +0.000 A 
ATOM     30  C   UNL     1       5.542   4.866  17.309  0.00  0.00    +0.000 A 
ATOM     31  C   UNL     1       6.874   5.107  16.958  0.00  0.00    +0.000 A 
ATOM     32  C   UNL     1       7.314   4.873  15.642  0.00  0.00    +0.000 A 
ENDBRANCH  22  30
ENDBRANCH  20  24
ENDBRANCH  18  20
ENDBRANCH   1  18
TORSDOF 5
ENDMDL
MODEL 6
REMARK VINA RESULT:      -8.5      3.116      4.815
REMARK  Name = 
REMARK  7 active torsions:
REMARK  status: ('A' for Active; 'I' for Inactive)
REMARK    1  A    between atoms: C_1  and  C_2
REMARK    2  A    between atoms: C_5  and  C_6
REMARK    3  A    between atoms: N_8  and  C_9
REMARK    4  A    between atoms: C_9  and  N_11
REMARK    5  A    between atoms: N_11  and  C_12
REMARK    6  A    between atoms: C_17  and  C_18
REMARK    7  A    between atoms: C_22  and  C_23
REMARK                            x       y       z     vdW  Elec       q    Type
REMARK                         _______ _______ _______ _____ _____    ______ ____
ROOT
ATOM      1  C   UNL     1       5.100   4.641  17.919  0.00  0.00    +0.000 A 
ATOM      2  C   UNL     1       4.436   3.428  17.732  0.00  0.00    +0.000 A 
ATOM      3  C   UNL     1       3.143   3.255  18.223  0.00  0.00    +0.000 A 
ATOM      4  C   UNL     1       2.476   4.315  18.845  0.00  0.00    +0.000 A 
ATOM      5 CL   UNL     1       0.902   3.982  19.479  0.00  0.00    +0.000 Cl
ATOM      6  C   UNL     1       3.103   5.564  18.972  0.00  0.00    +0.000 A 
ATOM      7  C   UNL     1       4.437   5.702  18.538  0.00  0.00    +0.000 A 
ENDROOT
BRANCH   6   8
ATOM      8  C   UNL     1       2.451   6.732  19.542  0.00  0.00    +0.000 A 
ATOM      9  N   UNL     1       2.067   6.925  20.791  0.00  0.00    +0.000 NA
ATOM     10  C   UNL     1       1.449   8.148  20.744  0.00  0.00    +0.000 A 
ATOM     11  C   UNL     1       0.722   8.841  21.717  0.00  0.00    +0.000 A 
ATOM     12  C   UNL     1       0.068  10.028  21.338  0.00  0.00    +0.000 A 
ATOM     13  C   UNL     1      -0.890  10.681  22.293  0.00  0.00    +0.000 C 
ATOM     14  C   UNL     1       0.266  10.574  20.055  0.00  0.00    +0.000 A 
ATOM     15  C   UNL     1       1.042   9.917  19.088  0.00  0.00    +0.000 A 
ATOM     16  C   UNL     1       1.568   8.694  19.477  0.00  0.00    +0.000 A 
ATOM     17  O   UNL     1       2.244   7.797  18.704  0.00  0.00    +0.000 OA
ENDBRANCH   6   8
BRANCH   1  18
ATOM     18  N   UNL     1       6.389   4.767  17.371  0.00  0.00    +0.000 N 
ATOM     19  H   UNL     1       7.056   4.052  17.651  0.00  0.00    +0.000 HD
BRANCH  18  20
ATOM     20  C   UNL     1       6.821   5.525  16.308  0.00  0.00    +0.000 C 
ATOM     21  S   UNL     1       6.685   4.828  14.798  0.00  0.00    +0.000 S 
BRANCH  20  24
ATOM     22  C   UNL     1       7.849   7.153  17.910  0.00  0.00    +0.000 C 
ATOM     23  O   UNL     1       8.018   6.402  18.869  0.00  0.00    +0.000 OA
ATOM     24  N   UNL     1       7.425   6.728  16.651  0.00  0.00    +0.000 N 
ATOM     25  H   UNL     1       7.359   7.425  15.931  0.00  0.00    +0.000 HD
BRANCH  22  30
ATOM     26  C   UNL     1       9.386  12.697  18.896  0.00  0.00    +0.000 C 
ATOM     27  C   UNL     1       8.954  11.283  18.630  0.00  0.00    +0.000 A 
ATOM     28  C   UNL     1       9.453  10.240  19.403  0.00  0.00    +0.000 A 
ATOM     29  C   UNL     1       9.066   8.921  19.142  0.00  0.00    +0.000 A 
ATOM     30  C   UNL     1       8.176   8.611  18.100  0.00  0.00    +0.000 A 
ATOM     31  C   UNL     1       7.662   9.661  17.334  0.00  0.00    +0.000 A 
ATOM     32  C   UNL     1       8.053  10.987  17.596  0.00  0.00    +0.000 A 
ENDBRANCH  22  30
ENDBRANCH  20  24
ENDBRANCH  18  20
ENDBRANCH   1  18
TORSDOF 5
ENDMDL
MODEL 7
REMARK VINA RESULT:      -8.5      3.252      4.995
REMARK  Name = 
REMARK  7 active torsions:
REMARK  status: ('A' for Active; 'I' for Inactive)
REMARK    1  A    between atoms: C_1  and  C_2
REMARK    2  A    between atoms: C_5  and  C_6
REMARK    3  A    between atoms: N_8  and  C_9
REMARK    4  A    between atoms: C_9  and  N_11
REMARK    5  A    between atoms: N_11  and  C_12
REMARK    6  A    between atoms: C_17  and  C_18
REMARK    7  A    between atoms: C_22  and  C_23
REMARK                            x       y       z     vdW  Elec       q    Type
REMARK                         _______ _______ _______ _____ _____    ______ ____
ROOT
ATOM      1  C   UNL     1       5.226   4.818  18.082  0.00  0.00    +0.000 A 
ATOM      2  C   UNL     1       4.647   3.549  18.087  0.00  0.00    +0.000 A 
ATOM      3  C   UNL     1       3.355   3.372  18.578  0.00  0.00    +0.000 A 
ATOM      4  C   UNL     1       2.604   4.473  19.004  0.00  0.00    +0.000 A 
ATOM      5 CL   UNL     1       1.037   4.143  19.658  0.00  0.00    +0.000 Cl
ATOM      6  C   UNL     1       3.146   5.765  18.932  0.00  0.00    +0.000 A 
ATOM      7  C   UNL     1       4.480   5.920  18.504  0.00  0.00    +0.000 A 
ENDROOT
BRANCH   6   8
ATOM      8  C   UNL     1       2.404   6.964  19.289  0.00  0.00    +0.000 A 
ATOM      9  N   UNL     1       2.083   7.985  18.517  0.00  0.00    +0.000 NA
ATOM     10  C   UNL     1       1.467   8.852  19.381  0.00  0.00    +0.000 A 
ATOM     11  C   UNL     1       1.019  10.164  19.196  0.00  0.00    +0.000 A 
ATOM     12  C   UNL     1       0.550  10.872  20.318  0.00  0.00    +0.000 A 
ATOM     13  C   UNL     1       0.264  12.342  20.197  0.00  0.00    +0.000 C 
ATOM     14  C   UNL     1       0.400  10.224  21.559  0.00  0.00    +0.000 A 
ATOM     15  C   UNL     1       0.791   8.890  21.743  0.00  0.00    +0.000 A 
ATOM     16  C   UNL     1       1.354   8.275  20.635  0.00  0.00    +0.000 A 
ATOM     17  O   UNL     1       1.929   7.040  20.573  0.00  0.00    +0.000 OA
ENDBRANCH   6   8
BRANCH   1  18
ATOM     18  N   UNL     1       6.520   4.940  17.542  0.00  0.00    +0.000 N 
ATOM     19  H   UNL     1       7.190   4.241  17.851  0.00  0.00    +0.000 HD
BRANCH  18  20
ATOM     20  C   UNL     1       6.954   5.666  16.457  0.00  0.00    +0.000 C 
ATOM     21  S   UNL     1       6.830   4.921  14.970  0.00  0.00    +0.000 S 
BRANCH  20  24
ATOM     22  C   UNL     1       7.957   7.352  18.015  0.00  0.00    +0.000 C 
ATOM     23  O   UNL     1       8.114   6.635  19.002  0.00  0.00    +0.000 OA
ATOM     24  N   UNL     1       7.551   6.882  16.766  0.00  0.00    +0.000 N 
ATOM     25  H   UNL     1       7.493   7.553  16.021  0.00  0.00    +0.000 HD
BRANCH  22  30
ATOM     26  C   UNL     1       9.464  12.932  18.831  0.00  0.00    +0.000 C 
ATOM     27  C   UNL     1       9.040  11.508  18.607  0.00  0.00    +0.000 A 
ATOM     28  C   UNL     1       9.515  10.497  19.435  0.00  0.00    +0.000 A 
ATOM     29  C   UNL     1       9.136   9.168  19.214  0.00  0.00    +0.000 A 
ATOM     30  C   UNL     1       8.279   8.816  18.158  0.00  0.00    +0.000 A 
ATOM     31  C   UNL     1       7.789   9.835  17.335  0.00  0.00    +0.000 A 
ATOM     32  C   UNL     1       8.172  11.171  17.557  0.00  0.00    +0.000 A 
ENDBRANCH  22  30
ENDBRANCH  20  24
ENDBRANCH  18  20
ENDBRANCH   1  18
TORSDOF 5
ENDMDL
MODEL 8
REMARK VINA RESULT:      -8.4      2.879      4.616
REMARK  Name = 
REMARK  7 active torsions:
REMARK  status: ('A' for Active; 'I' for Inactive)
REMARK    1  A    between atoms: C_1  and  C_2
REMARK    2  A    between atoms: C_5  and  C_6
REMARK    3  A    between atoms: N_8  and  C_9
REMARK    4  A    between atoms: C_9  and  N_11
REMARK    5  A    between atoms: N_11  and  C_12
REMARK    6  A    between atoms: C_17  and  C_18
REMARK    7  A    between atoms: C_22  and  C_23
REMARK                            x       y       z     vdW  Elec       q    Type
REMARK                         _______ _______ _______ _____ _____    ______ ____
ROOT
ATOM      1  C   UNL     1       2.043   6.680  20.257  0.00  0.00    +0.000 A 
ATOM      2  C   UNL     1       2.747   6.851  19.065  0.00  0.00    +0.000 A 
ATOM      3  C   UNL     1       2.594   8.022  18.323  0.00  0.00    +0.000 A 
ATOM      4  C   UNL     1       1.790   9.061  18.802  0.00  0.00    +0.000 A 
ATOM      5 CL   UNL     1       1.611  10.445  17.780  0.00  0.00    +0.000 Cl
ATOM      6  C   UNL     1       1.137   8.935  20.038  0.00  0.00    +0.000 A 
ATOM      7  C   UNL     1       1.241   7.716  20.740  0.00  0.00    +0.000 A 
ENDROOT
BRANCH   6   8
ATOM      8  C   UNL     1       0.342   9.996  20.635  0.00  0.00    +0.000 A 
ATOM      9  N   UNL     1       0.401  10.465  21.868  0.00  0.00    +0.000 NA
ATOM     10  C   UNL     1      -0.612  11.386  21.902  0.00  0.00    +0.000 A 
ATOM     11  C   UNL     1      -1.140  12.125  22.967  0.00  0.00    +0.000 A 
ATOM     12  C   UNL     1      -2.292  12.898  22.733  0.00  0.00    +0.000 A 
ATOM     13  C   UNL     1      -3.004  13.531  23.895  0.00  0.00    +0.000 C 
ATOM     14  C   UNL     1      -2.807  13.036  21.430  0.00  0.00    +0.000 A 
ATOM     15  C   UNL     1      -2.251  12.346  20.343  0.00  0.00    +0.000 A 
ATOM     16  C   UNL     1      -1.190  11.508  20.649  0.00  0.00    +0.000 A 
ATOM     17  O   UNL     1      -0.553  10.634  19.817  0.00  0.00    +0.000 OA
ENDBRANCH   6   8
BRANCH   1  18
ATOM     18  N   UNL     1       2.265   5.493  20.978  0.00  0.00    +0.000 N 
ATOM     19  H   UNL     1       2.010   5.526  21.962  0.00  0.00    +0.000 HD
BRANCH  18  20
ATOM     20  C   UNL     1       2.501   4.218  20.521  0.00  0.00    +0.000 C 
ATOM     21  S   UNL     1       2.065   2.973  21.542  0.00  0.00    +0.000 S 
BRANCH  20  24
ATOM     22  C   UNL     1       4.496   3.730  19.086  0.00  0.00    +0.000 C 
ATOM     23  O   UNL     1       5.162   3.084  19.894  0.00  0.00    +0.000 OA
ATOM     24  N   UNL     1       3.184   4.145  19.313  0.00  0.00    +0.000 N 
ATOM     25  H   UNL     1       2.723   4.635  18.566  0.00  0.00    +0.000 HD
BRANCH  22  30
ATOM     26  C   UNL     1       7.267   4.947  14.096  0.00  0.00    +0.000 C 
ATOM     27  C   UNL     1       6.519   4.648  15.364  0.00  0.00    +0.000 A 
ATOM     28  C   UNL     1       7.166   4.722  16.593  0.00  0.00    +0.000 A 
ATOM     29  C   UNL     1       6.475   4.424  17.773  0.00  0.00    +0.000 A 
ATOM     30  C   UNL     1       5.124   4.039  17.754  0.00  0.00    +0.000 A 
ATOM     31  C   UNL     1       4.470   3.980  16.519  0.00  0.00    +0.000 A 
ATOM     32  C   UNL     1       5.166   4.278  15.333  0.00  0.00    +0.000 A 
ENDBRANCH  22  30
ENDBRANCH  20  24
ENDBRANCH  18  20
ENDBRANCH   1  18
TORSDOF 5
ENDMDL
MODEL 9
REMARK VINA RESULT:      -8.2      3.538      5.304
REMARK  Name = 
REMARK  7 active torsions:
REMARK  status: ('A' for Active; 'I' for Inactive)
REMARK    1  A    between atoms: C_1  and  C_2
REMARK    2  A    between atoms: C_5  and  C_6
REMARK    3  A    between atoms: N_8  and  C_9
REMARK    4  A    between atoms: C_9  and  N_11
REMARK    5  A    between atoms: N_11  and  C_12
REMARK    6  A    between atoms: C_17  and  C_18
REMARK    7  A    between atoms: C_22  and  C_23
REMARK                            x       y       z     vdW  Elec       q    Type
REMARK                         _______ _______ _______ _____ _____    ______ ____
ROOT
ATOM      1  C   UNL     1       4.205   6.191  17.516  0.00  0.00    +0.000 A 
ATOM      2  C   UNL     1       3.920   4.840  17.714  0.00  0.00    +0.000 A 
ATOM      3  C   UNL     1       2.973   4.456  18.662  0.00  0.00    +0.000 A 
ATOM      4  C   UNL     1       2.252   5.423  19.371  0.00  0.00    +0.000 A 
ATOM      5 CL   UNL     1       1.148   4.848  20.572  0.00  0.00    +0.000 Cl
ATOM      6  C   UNL     1       2.474   6.786  19.127  0.00  0.00    +0.000 A 
ATOM      7  C   UNL     1       3.487   7.159  18.220  0.00  0.00    +0.000 A 
ENDROOT
BRANCH   6   8
ATOM      8  C   UNL     1       1.717   7.848  19.771  0.00  0.00    +0.000 A 
ATOM      9  N   UNL     1       1.345   9.009  19.264  0.00  0.00    +0.000 NA
ATOM     10  C   UNL     1       0.738   9.634  20.322  0.00  0.00    +0.000 A 
ATOM     11  C   UNL     1       0.254  10.939  20.457  0.00  0.00    +0.000 A 
ATOM     12  C   UNL     1      -0.194  11.355  21.724  0.00  0.00    +0.000 A 
ATOM     13  C   UNL     1      -0.519  12.804  21.954  0.00  0.00    +0.000 C 
ATOM     14  C   UNL     1      -0.286  10.435  22.786  0.00  0.00    +0.000 A 
ATOM     15  C   UNL     1       0.143   9.107  22.647  0.00  0.00    +0.000 A 
ATOM     16  C   UNL     1       0.683   8.781  21.412  0.00  0.00    +0.000 A 
ATOM     17  O   UNL     1       1.284   7.612  21.050  0.00  0.00    +0.000 OA
ENDBRANCH   6   8
BRANCH   1  18
ATOM     18  N   UNL     1       5.145   6.518  16.521  0.00  0.00    +0.000 N 
ATOM     19  H   UNL     1       4.813   7.150  15.797  0.00  0.00    +0.000 HD
BRANCH  18  20
ATOM     20  C   UNL     1       6.510   6.355  16.514  0.00  0.00    +0.000 C 
ATOM     21  S   UNL     1       7.069   4.801  16.274  0.00  0.00    +0.000 S 
BRANCH  20  24
ATOM     22  C   UNL     1       7.951   7.769  17.998  0.00  0.00    +0.000 C 
ATOM     23  O   UNL     1       8.284   6.914  18.817  0.00  0.00    +0.000 OA
ATOM     24  N   UNL     1       7.239   7.494  16.830  0.00  0.00    +0.000 N 
ATOM     25  H   UNL     1       7.055   8.266  16.214  0.00  0.00    +0.000 HD
BRANCH  22  30
ATOM     26  C   UNL     1       9.390  13.378  18.727  0.00  0.00    +0.000 C 
ATOM     27  C   UNL     1       9.057  11.923  18.552  0.00  0.00    +0.000 A 
ATOM     28  C   UNL     1       8.179  11.521  17.552  0.00  0.00    +0.000 A 
ATOM     29  C   UNL     1       7.853  10.168  17.402  0.00  0.00    +0.000 A 
ATOM     30  C   UNL     1       8.390   9.186  18.251  0.00  0.00    +0.000 A 
ATOM     31  C   UNL     1       9.286   9.589  19.246  0.00  0.00    +0.000 A 
ATOM     32  C   UNL     1       9.612  10.950  19.397  0.00  0.00    +0.000 A 
ENDBRANCH  22  30
ENDBRANCH  20  24
ENDBRANCH  18  20
ENDBRANCH   1  18
TORSDOF 5
ENDMDL
