MODEL 1
REMARK VINA RESULT:      -8.3      0.000      0.000
REMARK  Name = 
REMARK  6 active torsions:
REMARK  status: ('A' for Active; 'I' for Inactive)
REMARK    1  A    between atoms: C_5  and  C_6
REMARK    2  A    between atoms: C_15  and  O_16
REMARK    3  A    between atoms: O_16  and  C_17
REMARK    4  A    between atoms: C_17  and  C_18
REMARK    5  A    between atoms: C_18  and  C_19
REMARK    6  A    between atoms: C_19  and  C_20
REMARK                            x       y       z     vdW  Elec       q    Type
REMARK                         _______ _______ _______ _____ _____    ______ ____
ROOT
ATOM      1  C   UNL     1       4.512   4.165  17.652  0.00  0.00    +0.000 C 
ATOM      2  C   UNL     1       4.103   2.600  17.657  0.00  0.00    +0.000 C 
ATOM      3  C   UNL     1       2.848   2.206  18.405  0.00  0.00    +0.000 C 
ATOM      4  N   UNL     1       2.301   3.361  19.085  0.00  0.00    +0.000 NA
ATOM      5  C   UNL     1       3.386   4.023  19.899  0.00  0.00    +0.000 C 
ATOM      6  C   UNL     1       4.800   4.249  19.180  0.00  0.00    +0.000 C 
ATOM      7  C   UNL     1       1.618   4.184  18.047  0.00  0.00    +0.000 C 
ATOM      8  C   UNL     1       2.300   5.486  17.783  0.00  0.00    +0.000 A 
ATOM      9  C   UNL     1       1.587   6.670  17.995  0.00  0.00    +0.000 A 
ATOM     10  C   UNL     1       2.243   7.878  18.207  0.00  0.00    +0.000 A 
ATOM     11  C   UNL     1       3.624   7.926  18.076  0.00  0.00    +0.000 A 
ATOM     12  C   UNL     1       4.331   6.760  17.708  0.00  0.00    +0.000 A 
ATOM     13  C   UNL     1       3.675   5.500  17.585  0.00  0.00    +0.000 A 
ENDROOT
BRANCH   1  18
ATOM     14 CL   UNL     1       7.845   5.120  12.698  0.00  0.00    +0.000 Cl
ATOM     15  C   UNL     1       6.907   4.702  14.079  0.00  0.00    +0.000 A 
ATOM     16  C   UNL     1       7.440   4.886  15.334  0.00  0.00    +0.000 A 
ATOM     17  C   UNL     1       6.654   4.590  16.450  0.00  0.00    +0.000 A 
ATOM     18  C   UNL     1       5.303   4.134  16.335  0.00  0.00    +0.000 A 
ATOM     19  C   UNL     1       4.794   3.930  15.050  0.00  0.00    +0.000 A 
ATOM     20  C   UNL     1       5.596   4.225  13.934  0.00  0.00    +0.000 A 
ENDBRANCH   1  18
BRANCH  10  21
ATOM     21  O   UNL     1       1.404   8.845  18.666  0.00  0.00    +0.000 OA
BRANCH  21  22
ATOM     22  C   UNL     1       1.515  10.178  18.193  0.00  0.00    +0.000 C 
BRANCH  22  23
ATOM     23  C   UNL     1       0.352  10.941  18.840  0.00  0.00    +0.000 C 
BRANCH  23  24
ATOM     24  C   UNL     1      -0.894  10.070  18.997  0.00  0.00    +0.000 C 
BRANCH  24  25
ATOM     25  C   UNL     1      -1.973  10.411  17.997  0.00  0.00    +0.000 A 
ATOM     26  C   UNL     1      -2.016   9.824  16.728  0.00  0.00    +0.000 A 
ATOM     27  C   UNL     1      -3.014  10.176  15.831  0.00  0.00    +0.000 A 
ATOM     28  C   UNL     1      -3.962  11.103  16.240  0.00  0.00    +0.000 A 
ATOM     29  N   UNL     1      -3.977  11.672  17.467  0.00  0.00    +0.000 NA
ATOM     30  C   UNL     1      -2.992  11.309  18.315  0.00  0.00    +0.000 A 
ENDBRANCH  24  25
ENDBRANCH  23  24
ENDBRANCH  22  23
ENDBRANCH  21  22
ENDBRANCH  10  21
TORSDOF 6
ENDMDL
MODEL 2
REMARK VINA RESULT:      -8.2      4.148      5.670
REMARK  Name = 
REMARK  6 active torsions:
REMARK  status: ('A' for Active; 'I' for Inactive)
REMARK    1  A    between atoms: C_5  and  C_6
REMARK    2  A    between atoms: C_15  and  O_16
REMARK    3  A    between atoms: O_16  and  C_17
REMARK    4  A    between atoms: C_17  and  C_18
REMARK    5  A    between atoms: C_18  and  C_19
REMARK    6  A    between atoms: C_19  and  C_20
REMARK                            x       y       z     vdW  Elec       q    Type
REMARK                         _______ _______ _______ _____ _____    ______ ____
ROOT
ATOM      1  C   UNL     1       6.706   5.677  16.527  0.00  0.00    +0.000 C 
ATOM      2  C   UNL     1       7.947   4.694  16.853  0.00  0.00    +0.000 C 
ATOM      3  C   UNL     1       8.248   4.405  18.307  0.00  0.00    +0.000 C 
ATOM      4  N   UNL     1       7.378   5.194  19.153  0.00  0.00    +0.000 NA
ATOM      5  C   UNL     1       7.448   6.641  18.731  0.00  0.00    +0.000 C 
ATOM      6  C   UNL     1       7.349   6.946  17.160  0.00  0.00    +0.000 C 
ATOM      7  C   UNL     1       6.044   4.532  19.130  0.00  0.00    +0.000 C 
ATOM      8  C   UNL     1       4.998   5.335  18.429  0.00  0.00    +0.000 A 
ATOM      9  C   UNL     1       3.862   5.725  19.145  0.00  0.00    +0.000 A 
ATOM     10  C   UNL     1       3.088   6.806  18.736  0.00  0.00    +0.000 A 
ATOM     11  C   UNL     1       3.379   7.423  17.527  0.00  0.00    +0.000 A 
ATOM     12  C   UNL     1       4.433   6.928  16.727  0.00  0.00    +0.000 A 
ATOM     13  C   UNL     1       5.288   5.884  17.186  0.00  0.00    +0.000 A 
ENDROOT
BRANCH   1  18
ATOM     14 CL   UNL     1       5.543   2.487  11.522  0.00  0.00    +0.000 Cl
ATOM     15  C   UNL     1       5.834   3.517  12.870  0.00  0.00    +0.000 A 
ATOM     16  C   UNL     1       4.996   3.451  13.960  0.00  0.00    +0.000 A 
ATOM     17  C   UNL     1       5.268   4.256  15.068  0.00  0.00    +0.000 A 
ATOM     18  C   UNL     1       6.406   5.120  15.126  0.00  0.00    +0.000 A 
ATOM     19  C   UNL     1       7.226   5.189  13.998  0.00  0.00    +0.000 A 
ATOM     20  C   UNL     1       6.940   4.380  12.884  0.00  0.00    +0.000 A 
ENDBRANCH   1  18
BRANCH  10  21
ATOM     21  O   UNL     1       2.208   7.200  19.694  0.00  0.00    +0.000 OA
BRANCH  21  22
ATOM     22  C   UNL     1       1.896   6.343  20.781  0.00  0.00    +0.000 C 
BRANCH  22  23
ATOM     23  C   UNL     1       0.769   5.433  20.275  0.00  0.00    +0.000 C 
BRANCH  23  24
ATOM     24  C   UNL     1       0.991   3.970  20.659  0.00  0.00    +0.000 C 
BRANCH  24  25
ATOM     25  C   UNL     1       1.867   3.236  19.673  0.00  0.00    +0.000 A 
ATOM     26  C   UNL     1       1.644   3.302  18.294  0.00  0.00    +0.000 A 
ATOM     27  C   UNL     1       2.461   2.597  17.421  0.00  0.00    +0.000 A 
ATOM     28  C   UNL     1       3.502   1.853  17.958  0.00  0.00    +0.000 A 
ATOM     29  N   UNL     1       3.772   1.786  19.282  0.00  0.00    +0.000 NA
ATOM     30  C   UNL     1       2.958   2.481  20.104  0.00  0.00    +0.000 A 
ENDBRANCH  24  25
ENDBRANCH  23  24
ENDBRANCH  22  23
ENDBRANCH  21  22
ENDBRANCH  10  21
TORSDOF 6
ENDMDL
MODEL 3
REMARK VINA RESULT:      -8.1      4.148      8.565
REMARK  Name = 
REMARK  6 active torsions:
REMARK  status: ('A' for Active; 'I' for Inactive)
REMARK    1  A    between atoms: C_5  and  C_6
REMARK    2  A    between atoms: C_15  and  O_16
REMARK    3  A    between atoms: O_16  and  C_17
REMARK    4  A    between atoms: C_17  and  C_18
REMARK    5  A    between atoms: C_18  and  C_19
REMARK    6  A    between atoms: C_19  and  C_20
REMARK                            x       y       z     vdW  Elec       q    Type
REMARK                         _______ _______ _______ _____ _____    ______ ____
ROOT
ATOM      1  C   UNL     1       2.480   5.919  18.929  0.00  0.00    +0.000 C 
ATOM      2  C   UNL     1       2.003   5.061  20.213  0.00  0.00    +0.000 C 
ATOM      3  C   UNL     1       2.697   3.742  20.472  0.00  0.00    +0.000 C 
ATOM      4  N   UNL     1       3.625   3.459  19.399  0.00  0.00    +0.000 NA
ATOM      5  C   UNL     1       2.913   3.591  18.074  0.00  0.00    +0.000 C 
ATOM      6  C   UNL     1       1.992   4.887  17.870  0.00  0.00    +0.000 C 
ATOM      7  C   UNL     1       4.820   4.318  19.628  0.00  0.00    +0.000 C 
ATOM      8  C   UNL     1       4.983   5.389  18.600  0.00  0.00    +0.000 A 
ATOM      9  C   UNL     1       6.154   5.410  17.836  0.00  0.00    +0.000 A 
ATOM     10  C   UNL     1       6.198   6.056  16.604  0.00  0.00    +0.000 A 
ATOM     11  C   UNL     1       5.100   6.800  16.194  0.00  0.00    +0.000 A 
ATOM     12  C   UNL     1       3.974   6.906  17.040  0.00  0.00    +0.000 A 
ATOM     13  C   UNL     1       3.885   6.168  18.257  0.00  0.00    +0.000 A 
ENDROOT
BRANCH   1  18
ATOM     14 CL   UNL     1      -0.117  10.803  21.372  0.00  0.00    +0.000 Cl
ATOM     15  C   UNL     1       0.750   9.490  20.675  0.00  0.00    +0.000 A 
ATOM     16  C   UNL     1       0.992   8.366  21.431  0.00  0.00    +0.000 A 
ATOM     17  C   UNL     1       1.654   7.287  20.842  0.00  0.00    +0.000 A 
ATOM     18  C   UNL     1       2.059   7.294  19.470  0.00  0.00    +0.000 A 
ATOM     19  C   UNL     1       1.825   8.456  18.730  0.00  0.00    +0.000 A 
ATOM     20  C   UNL     1       1.165   9.539  19.335  0.00  0.00    +0.000 A 
ENDBRANCH   1  18
BRANCH  10  21
ATOM     21  O   UNL     1       7.312   5.734  15.895  0.00  0.00    +0.000 OA
BRANCH  21  22
ATOM     22  C   UNL     1       7.295   4.647  14.983  0.00  0.00    +0.000 C 
BRANCH  22  23
ATOM     23  C   UNL     1       6.885   5.250  13.633  0.00  0.00    +0.000 C 
BRANCH  23  24
ATOM     24  C   UNL     1       7.616   4.596  12.461  0.00  0.00    +0.000 C 
BRANCH  24  25
ATOM     25  C   UNL     1       6.893   3.384  11.926  0.00  0.00    +0.000 A 
ATOM     26  C   UNL     1       7.581   2.294  11.381  0.00  0.00    +0.000 A 
ATOM     27  C   UNL     1       6.879   1.205  10.883  0.00  0.00    +0.000 A 
ATOM     28  C   UNL     1       5.494   1.229  10.963  0.00  0.00    +0.000 A 
ATOM     29  N   UNL     1       4.791   2.247  11.509  0.00  0.00    +0.000 NA
ATOM     30  C   UNL     1       5.503   3.291  11.983  0.00  0.00    +0.000 A 
ENDBRANCH  24  25
ENDBRANCH  23  24
ENDBRANCH  22  23
ENDBRANCH  21  22
ENDBRANCH  10  21
TORSDOF 6
ENDMDL
MODEL 4
REMARK VINA RESULT:      -8.0      1.792      2.651
REMARK  Name = 
REMARK  6 active torsions:
REMARK  status: ('A' for Active; 'I' for Inactive)
REMARK    1  A    between atoms: C_5  and  C_6
REMARK    2  A    between atoms: C_15  and  O_16
REMARK    3  A    between atoms: O_16  and  C_17
REMARK    4  A    between atoms: C_17  and  C_18
REMARK    5  A    between atoms: C_18  and  C_19
REMARK    6  A    between atoms: C_19  and  C_20
REMARK                            x       y       z     vdW  Elec       q    Type
REMARK                         _______ _______ _______ _____ _____    ______ ____
ROOT
ATOM      1  C   UNL     1       4.662   4.006  17.534  0.00  0.00    +0.000 C 
ATOM      2  C   UNL     1       4.273   2.437  17.515  0.00  0.00    +0.000 C 
ATOM      3  C   UNL     1       3.041   2.012  18.285  0.00  0.00    +0.000 C 
ATOM      4  N   UNL     1       2.496   3.145  19.001  0.00  0.00    +0.000 NA
ATOM      5  C   UNL     1       3.592   3.804  19.804  0.00  0.00    +0.000 C 
ATOM      6  C   UNL     1       4.986   4.062  19.056  0.00  0.00    +0.000 C 
ATOM      7  C   UNL     1       1.779   3.981  17.998  0.00  0.00    +0.000 C 
ATOM      8  C   UNL     1       2.439   5.297  17.745  0.00  0.00    +0.000 A 
ATOM      9  C   UNL     1       1.716   6.466  17.999  0.00  0.00    +0.000 A 
ATOM     10  C   UNL     1       2.363   7.678  18.222  0.00  0.00    +0.000 A 
ATOM     11  C   UNL     1       3.739   7.747  18.059  0.00  0.00    +0.000 A 
ATOM     12  C   UNL     1       4.451   6.598  17.649  0.00  0.00    +0.000 A 
ATOM     13  C   UNL     1       3.808   5.332  17.516  0.00  0.00    +0.000 A 
ENDROOT
BRANCH   1  18
ATOM     14 CL   UNL     1       7.812   5.123  12.494  0.00  0.00    +0.000 Cl
ATOM     15  C   UNL     1       6.934   4.660  13.900  0.00  0.00    +0.000 A 
ATOM     16  C   UNL     1       7.485   4.885  15.141  0.00  0.00    +0.000 A 
ATOM     17  C   UNL     1       6.746   4.550  16.278  0.00  0.00    +0.000 A 
ATOM     18  C   UNL     1       5.422   4.014  16.199  0.00  0.00    +0.000 A 
ATOM     19  C   UNL     1       4.895   3.770  14.928  0.00  0.00    +0.000 A 
ATOM     20  C   UNL     1       5.651   4.104  13.791  0.00  0.00    +0.000 A 
ENDBRANCH   1  18
BRANCH  10  21
ATOM     21  O   UNL     1       1.524   8.624  18.721  0.00  0.00    +0.000 OA
BRANCH  21  22
ATOM     22  C   UNL     1       1.242   9.800  17.979  0.00  0.00    +0.000 C 
BRANCH  22  23
ATOM     23  C   UNL     1      -0.225  10.134  18.280  0.00  0.00    +0.000 C 
BRANCH  23  24
ATOM     24  C   UNL     1      -0.364  11.280  19.281  0.00  0.00    +0.000 C 
BRANCH  24  25
ATOM     25  C   UNL     1      -0.430  10.801  20.711  0.00  0.00    +0.000 A 
ATOM     26  C   UNL     1      -0.409   9.440  21.036  0.00  0.00    +0.000 A 
ATOM     27  C   UNL     1      -0.489   9.039  22.362  0.00  0.00    +0.000 A 
ATOM     28  C   UNL     1      -0.570  10.021  23.338  0.00  0.00    +0.000 A 
ATOM     29  N   UNL     1      -0.561  11.347  23.071  0.00  0.00    +0.000 NA
ATOM     30  C   UNL     1      -0.484  11.705  21.772  0.00  0.00    +0.000 A 
ENDBRANCH  24  25
ENDBRANCH  23  24
ENDBRANCH  22  23
ENDBRANCH  21  22
ENDBRANCH  10  21
TORSDOF 6
ENDMDL
MODEL 5
REMARK VINA RESULT:      -7.9      5.161     11.130
REMARK  Name = 
REMARK  6 active torsions:
REMARK  status: ('A' for Active; 'I' for Inactive)
REMARK    1  A    between atoms: C_5  and  C_6
REMARK    2  A    between atoms: C_15  and  O_16
REMARK    3  A    between atoms: O_16  and  C_17
REMARK    4  A    between atoms: C_17  and  C_18
REMARK    5  A    between atoms: C_18  and  C_19
REMARK    6  A    between atoms: C_19  and  C_20
REMARK                            x       y       z     vdW  Elec       q    Type
REMARK                         _______ _______ _______ _____ _____    ______ ____
ROOT
ATOM      1  C   UNL     1      -1.797  12.812  22.174  0.00  0.00    +0.000 C 
ATOM      2  C   UNL     1      -2.176  14.041  21.194  0.00  0.00    +0.000 C 
ATOM      3  C   UNL     1      -1.332  14.234  19.954  0.00  0.00    +0.000 C 
ATOM      4  N   UNL     1      -0.237  13.289  19.955  0.00  0.00    +0.000 NA
ATOM      5  C   UNL     1       0.489  13.366  21.276  0.00  0.00    +0.000 C 
ATOM      6  C   UNL     1      -0.413  13.383  22.602  0.00  0.00    +0.000 C 
ATOM      7  C   UNL     1      -0.808  11.971  19.558  0.00  0.00    +0.000 C 
ATOM      8  C   UNL     1      -0.807  10.969  20.666  0.00  0.00    +0.000 A 
ATOM      9  C   UNL     1      -0.102   9.775  20.486  0.00  0.00    +0.000 A 
ATOM     10  C   UNL     1       0.320   9.017  21.574  0.00  0.00    +0.000 A 
ATOM     11  C   UNL     1      -0.082   9.389  22.849  0.00  0.00    +0.000 A 
ATOM     12  C   UNL     1      -0.925  10.509  23.016  0.00  0.00    +0.000 A 
ATOM     13  C   UNL     1      -1.279  11.345  21.917  0.00  0.00    +0.000 A 
ENDROOT
BRANCH   1  18
ATOM     14 CL   UNL     1      -7.512  13.116  24.129  0.00  0.00    +0.000 Cl
ATOM     15  C   UNL     1      -5.889  12.883  23.604  0.00  0.00    +0.000 A 
ATOM     16  C   UNL     1      -5.596  12.983  22.263  0.00  0.00    +0.000 A 
ATOM     17  C   UNL     1      -4.269  12.841  21.851  0.00  0.00    +0.000 A 
ATOM     18  C   UNL     1      -3.198  12.630  22.777  0.00  0.00    +0.000 A 
ATOM     19  C   UNL     1      -3.525  12.506  24.129  0.00  0.00    +0.000 A 
ATOM     20  C   UNL     1      -4.865  12.644  24.532  0.00  0.00    +0.000 A 
ENDBRANCH   1  18
BRANCH  10  21
ATOM     21  O   UNL     1       1.216   8.059  21.217  0.00  0.00    +0.000 OA
BRANCH  21  22
ATOM     22  C   UNL     1       1.810   8.074  19.929  0.00  0.00    +0.000 C 
BRANCH  22  23
ATOM     23  C   UNL     1       2.556   6.739  19.805  0.00  0.00    +0.000 C 
BRANCH  23  24
ATOM     24  C   UNL     1       2.286   6.048  18.469  0.00  0.00    +0.000 C 
BRANCH  24  25
ATOM     25  C   UNL     1       2.316   4.543  18.575  0.00  0.00    +0.000 A 
ATOM     26  C   UNL     1       2.512   3.727  17.455  0.00  0.00    +0.000 A 
ATOM     27  C   UNL     1       2.515   2.346  17.591  0.00  0.00    +0.000 A 
ATOM     28  C   UNL     1       2.340   1.814  18.861  0.00  0.00    +0.000 A 
ATOM     29  N   UNL     1       2.179   2.565  19.974  0.00  0.00    +0.000 NA
ATOM     30  C   UNL     1       2.179   3.905  19.807  0.00  0.00    +0.000 A 
ENDBRANCH  24  25
ENDBRANCH  23  24
ENDBRANCH  22  23
ENDBRANCH  21  22
ENDBRANCH  10  21
TORSDOF 6
ENDMDL
MODEL 6
REMARK VINA RESULT:      -7.8      0.732      1.261
REMARK  Name = 
REMARK  6 active torsions:
REMARK  status: ('A' for Active; 'I' for Inactive)
REMARK    1  A    between atoms: C_5  and  C_6
REMARK    2  A    between atoms: C_15  and  O_16
REMARK    3  A    between atoms: O_16  and  C_17
REMARK    4  A    between atoms: C_17  and  C_18
REMARK    5  A    between atoms: C_18  and  C_19
REMARK    6  A    between atoms: C_19  and  C_20
REMARK                            x       y       z     vdW  Elec       q    Type
REMARK                         _______ _______ _______ _____ _____    ______ ____
ROOT
ATOM      1  C   UNL     1       4.627   4.016  17.589  0.00  0.00    +0.000 C 
ATOM      2  C   UNL     1       4.233   2.449  17.553  0.00  0.00    +0.000 C 
ATOM      3  C   UNL     1       2.997   2.019  18.314  0.00  0.00    +0.000 C 
ATOM      4  N   UNL     1       2.454   3.147  19.040  0.00  0.00    +0.000 NA
ATOM      5  C   UNL     1       3.550   3.793  19.853  0.00  0.00    +0.000 C 
ATOM      6  C   UNL     1       4.947   4.055  19.112  0.00  0.00    +0.000 C 
ATOM      7  C   UNL     1       1.743   3.995  18.043  0.00  0.00    +0.000 C 
ATOM      8  C   UNL     1       2.408   5.311  17.807  0.00  0.00    +0.000 A 
ATOM      9  C   UNL     1       1.688   6.481  18.071  0.00  0.00    +0.000 A 
ATOM     10  C   UNL     1       2.338   7.688  18.307  0.00  0.00    +0.000 A 
ATOM     11  C   UNL     1       3.716   7.754  18.150  0.00  0.00    +0.000 A 
ATOM     12  C   UNL     1       4.425   6.607  17.730  0.00  0.00    +0.000 A 
ATOM     13  C   UNL     1       3.778   5.345  17.581  0.00  0.00    +0.000 A 
ENDROOT
BRANCH   1  18
ATOM     14 CL   UNL     1       7.807   5.171  12.576  0.00  0.00    +0.000 Cl
ATOM     15  C   UNL     1       6.919   4.697  13.973  0.00  0.00    +0.000 A 
ATOM     16  C   UNL     1       7.469   4.895  15.219  0.00  0.00    +0.000 A 
ATOM     17  C   UNL     1       6.722   4.552  16.347  0.00  0.00    +0.000 A 
ATOM     18  C   UNL     1       5.391   4.035  16.256  0.00  0.00    +0.000 A 
ATOM     19  C   UNL     1       4.865   3.819  14.980  0.00  0.00    +0.000 A 
ATOM     20  C   UNL     1       5.629   4.161  13.850  0.00  0.00    +0.000 A 
ENDBRANCH   1  18
BRANCH  10  21
ATOM     21  O   UNL     1       1.501   8.632  18.814  0.00  0.00    +0.000 OA
BRANCH  21  22
ATOM     22  C   UNL     1       1.064   9.714  18.007  0.00  0.00    +0.000 C 
BRANCH  22  23
ATOM     23  C   UNL     1      -0.275  10.161  18.609  0.00  0.00    +0.000 C 
BRANCH  23  24
ATOM     24  C   UNL     1      -1.399  10.172  17.574  0.00  0.00    +0.000 C 
BRANCH  24  25
ATOM     25  C   UNL     1      -2.660  10.821  18.090  0.00  0.00    +0.000 A 
ATOM     26  C   UNL     1      -2.629  11.837  19.052  0.00  0.00    +0.000 A 
ATOM     27  C   UNL     1      -3.812  12.396  19.514  0.00  0.00    +0.000 A 
ATOM     28  C   UNL     1      -5.006  11.932  18.980  0.00  0.00    +0.000 A 
ATOM     29  N   UNL     1      -5.081  10.976  18.027  0.00  0.00    +0.000 NA
ATOM     30  C   UNL     1      -3.913  10.451  17.600  0.00  0.00    +0.000 A 
ENDBRANCH  24  25
ENDBRANCH  23  24
ENDBRANCH  22  23
ENDBRANCH  21  22
ENDBRANCH  10  21
TORSDOF 6
ENDMDL
MODEL 7
REMARK VINA RESULT:      -7.7      4.085      8.274
REMARK  Name = 
REMARK  6 active torsions:
REMARK  status: ('A' for Active; 'I' for Inactive)
REMARK    1  A    between atoms: C_5  and  C_6
REMARK    2  A    between atoms: C_15  and  O_16
REMARK    3  A    between atoms: O_16  and  C_17
REMARK    4  A    between atoms: C_17  and  C_18
REMARK    5  A    between atoms: C_18  and  C_19
REMARK    6  A    between atoms: C_19  and  C_20
REMARK                            x       y       z     vdW  Elec       q    Type
REMARK                         _______ _______ _______ _____ _____    ______ ____
ROOT
ATOM      1  C   UNL     1       2.255   6.215  19.076  0.00  0.00    +0.000 C 
ATOM      2  C   UNL     1       1.738   5.375  20.357  0.00  0.00    +0.000 C 
ATOM      3  C   UNL     1       2.395   4.039  20.630  0.00  0.00    +0.000 C 
ATOM      4  N   UNL     1       3.329   3.728  19.570  0.00  0.00    +0.000 NA
ATOM      5  C   UNL     1       2.639   3.873  18.236  0.00  0.00    +0.000 C 
ATOM      6  C   UNL     1       1.755   5.192  18.014  0.00  0.00    +0.000 C 
ATOM      7  C   UNL     1       4.543   4.557  19.813  0.00  0.00    +0.000 C 
ATOM      8  C   UNL     1       4.747   5.620  18.784  0.00  0.00    +0.000 A 
ATOM      9  C   UNL     1       5.928   5.607  18.035  0.00  0.00    +0.000 A 
ATOM     10  C   UNL     1       6.006   6.247  16.802  0.00  0.00    +0.000 A 
ATOM     11  C   UNL     1       4.933   7.017  16.374  0.00  0.00    +0.000 A 
ATOM     12  C   UNL     1       3.799   7.156  17.205  0.00  0.00    +0.000 A 
ATOM     13  C   UNL     1       3.675   6.425  18.422  0.00  0.00    +0.000 A 
ENDROOT
BRANCH   1  18
ATOM     14 CL   UNL     1      -0.226  11.162  21.514  0.00  0.00    +0.000 Cl
ATOM     15  C   UNL     1       0.609   9.830  20.813  0.00  0.00    +0.000 A 
ATOM     16  C   UNL     1       0.864   8.717  21.581  0.00  0.00    +0.000 A 
ATOM     17  C   UNL     1       1.499   7.622  20.990  0.00  0.00    +0.000 A 
ATOM     18  C   UNL     1       1.861   7.602  19.606  0.00  0.00    +0.000 A 
ATOM     19  C   UNL     1       1.615   8.753  18.855  0.00  0.00    +0.000 A 
ATOM     20  C   UNL     1       0.982   9.853  19.461  0.00  0.00    +0.000 A 
ENDBRANCH   1  18
BRANCH  10  21
ATOM     21  O   UNL     1       7.121   5.894  16.109  0.00  0.00    +0.000 OA
BRANCH  21  22
ATOM     22  C   UNL     1       7.564   4.546  16.098  0.00  0.00    +0.000 C 
BRANCH  22  23
ATOM     23  C   UNL     1       6.628   3.813  15.128  0.00  0.00    +0.000 C 
BRANCH  23  24
ATOM     24  C   UNL     1       6.588   4.476  13.751  0.00  0.00    +0.000 C 
BRANCH  24  25
ATOM     25  C   UNL     1       5.892   3.627  12.716  0.00  0.00    +0.000 A 
ATOM     26  C   UNL     1       4.647   3.984  12.183  0.00  0.00    +0.000 A 
ATOM     27  C   UNL     1       4.031   3.167  11.246  0.00  0.00    +0.000 A 
ATOM     28  C   UNL     1       4.693   2.013  10.848  0.00  0.00    +0.000 A 
ATOM     29  N   UNL     1       5.909   1.647  11.313  0.00  0.00    +0.000 NA
ATOM     30  C   UNL     1       6.480   2.462  12.225  0.00  0.00    +0.000 A 
ENDBRANCH  24  25
ENDBRANCH  23  24
ENDBRANCH  22  23
ENDBRANCH  21  22
ENDBRANCH  10  21
TORSDOF 6
ENDMDL
MODEL 8
REMARK VINA RESULT:      -7.7      0.658      1.091
REMARK  Name = 
REMARK  6 active torsions:
REMARK  status: ('A' for Active; 'I' for Inactive)
REMARK    1  A    between atoms: C_5  and  C_6
REMARK    2  A    between atoms: C_15  and  O_16
REMARK    3  A    between atoms: O_16  and  C_17
REMARK    4  A    between atoms: C_17  and  C_18
REMARK    5  A    between atoms: C_18  and  C_19
REMARK    6  A    between atoms: C_19  and  C_20
REMARK                            x       y       z     vdW  Elec       q    Type
REMARK                         _______ _______ _______ _____ _____    ______ ____
ROOT
ATOM      1  C   UNL     1       4.852   4.783  17.436  0.00  0.00    +0.000 C 
ATOM      2  C   UNL     1       4.701   3.177  17.543  0.00  0.00    +0.000 C 
ATOM      3  C   UNL     1       3.621   2.634  18.452  0.00  0.00    +0.000 C 
ATOM      4  N   UNL     1       2.978   3.724  19.155  0.00  0.00    +0.000 NA
ATOM      5  C   UNL     1       4.030   4.587  19.808  0.00  0.00    +0.000 C 
ATOM      6  C   UNL     1       5.298   4.991  18.913  0.00  0.00    +0.000 C 
ATOM      7  C   UNL     1       2.058   4.376  18.181  0.00  0.00    +0.000 C 
ATOM      8  C   UNL     1       2.488   5.752  17.792  0.00  0.00    +0.000 A 
ATOM      9  C   UNL     1       1.624   6.821  18.050  0.00  0.00    +0.000 A 
ATOM     10  C   UNL     1       2.099   8.126  18.140  0.00  0.00    +0.000 A 
ATOM     11  C   UNL     1       3.430   8.380  17.840  0.00  0.00    +0.000 A 
ATOM     12  C   UNL     1       4.266   7.319  17.427  0.00  0.00    +0.000 A 
ATOM     13  C   UNL     1       3.811   5.968  17.428  0.00  0.00    +0.000 A 
ENDROOT
BRANCH   1  18
ATOM     14 CL   UNL     1       7.127   3.773  11.925  0.00  0.00    +0.000 Cl
ATOM     15  C   UNL     1       6.481   4.206  13.461  0.00  0.00    +0.000 A 
ATOM     16  C   UNL     1       5.173   3.894  13.752  0.00  0.00    +0.000 A 
ATOM     17  C   UNL     1       4.672   4.206  15.018  0.00  0.00    +0.000 A 
ATOM     18  C   UNL     1       5.480   4.807  16.034  0.00  0.00    +0.000 A 
ATOM     19  C   UNL     1       6.796   5.138  15.705  0.00  0.00    +0.000 A 
ATOM     20  C   UNL     1       7.289   4.826  14.426  0.00  0.00    +0.000 A 
ENDBRANCH   1  18
BRANCH  10  21
ATOM     21  O   UNL     1       1.175   8.974  18.666  0.00  0.00    +0.000 OA
BRANCH  21  22
ATOM     22  C   UNL     1       1.429  10.369  18.722  0.00  0.00    +0.000 C 
BRANCH  22  23
ATOM     23  C   UNL     1       0.050  11.039  18.649  0.00  0.00    +0.000 C 
BRANCH  23  24
ATOM     24  C   UNL     1      -1.089  10.020  18.642  0.00  0.00    +0.000 C 
BRANCH  24  25
ATOM     25  C   UNL     1      -2.237  10.436  17.755  0.00  0.00    +0.000 A 
ATOM     26  C   UNL     1      -2.356   9.979  16.438  0.00  0.00    +0.000 A 
ATOM     27  C   UNL     1      -3.418  10.398  15.649  0.00  0.00    +0.000 A 
ATOM     28  C   UNL     1      -4.351  11.258  16.211  0.00  0.00    +0.000 A 
ATOM     29  N   UNL     1      -4.291  11.699  17.488  0.00  0.00    +0.000 NA
ATOM     30  C   UNL     1      -3.246  11.274  18.229  0.00  0.00    +0.000 A 
ENDBRANCH  24  25
ENDBRANCH  23  24
ENDBRANCH  22  23
ENDBRANCH  21  22
ENDBRANCH  10  21
TORSDOF 6
ENDMDL
MODEL 9
REMARK VINA RESULT:      -7.7      0.896      1.064
REMARK  Name = 
REMARK  6 active torsions:
REMARK  status: ('A' for Active; 'I' for Inactive)
REMARK    1  A    between atoms: C_5  and  C_6
REMARK    2  A    between atoms: C_15  and  O_16
REMARK    3  A    between atoms: O_16  and  C_17
REMARK    4  A    between atoms: C_17  and  C_18
REMARK    5  A    between atoms: C_18  and  C_19
REMARK    6  A    between atoms: C_19  and  C_20
REMARK                            x       y       z     vdW  Elec       q    Type
REMARK                         _______ _______ _______ _____ _____    ______ ____
ROOT
ATOM      1  C   UNL     1       4.620   4.563  17.805  0.00  0.00    +0.000 C 
ATOM      2  C   UNL     1       4.310   2.996  18.053  0.00  0.00    +0.000 C 
ATOM      3  C   UNL     1       3.101   2.646  18.893  0.00  0.00    +0.000 C 
ATOM      4  N   UNL     1       2.501   3.855  19.416  0.00  0.00    +0.000 NA
ATOM      5  C   UNL     1       3.564   4.691  20.086  0.00  0.00    +0.000 C 
ATOM      6  C   UNL     1       4.943   4.889  19.293  0.00  0.00    +0.000 C 
ATOM      7  C   UNL     1       1.743   4.474  18.293  0.00  0.00    +0.000 C 
ATOM      8  C   UNL     1       2.336   5.760  17.818  0.00  0.00    +0.000 A 
ATOM      9  C   UNL     1       1.556   6.919  17.879  0.00  0.00    +0.000 A 
ATOM     10  C   UNL     1       2.141   8.181  17.890  0.00  0.00    +0.000 A 
ATOM     11  C   UNL     1       3.513   8.289  17.705  0.00  0.00    +0.000 A 
ATOM     12  C   UNL     1       4.280   7.123  17.487  0.00  0.00    +0.000 A 
ATOM     13  C   UNL     1       3.701   5.824  17.573  0.00  0.00    +0.000 A 
ENDROOT
BRANCH   1  18
ATOM     14 CL   UNL     1       7.788   4.959  12.669  0.00  0.00    +0.000 Cl
ATOM     15  C   UNL     1       6.902   4.698  14.121  0.00  0.00    +0.000 A 
ATOM     16  C   UNL     1       7.460   5.063  15.325  0.00  0.00    +0.000 A 
ATOM     17  C   UNL     1       6.714   4.892  16.493  0.00  0.00    +0.000 A 
ATOM     18  C   UNL     1       5.377   4.384  16.480  0.00  0.00    +0.000 A 
ATOM     19  C   UNL     1       4.842   3.997  15.249  0.00  0.00    +0.000 A 
ATOM     20  C   UNL     1       5.604   4.166  14.080  0.00  0.00    +0.000 A 
ENDBRANCH   1  18
BRANCH  10  21
ATOM     21  O   UNL     1       1.257   9.155  18.231  0.00  0.00    +0.000 OA
BRANCH  21  22
ATOM     22  C   UNL     1       0.893   9.354  19.588  0.00  0.00    +0.000 C 
BRANCH  22  23
ATOM     23  C   UNL     1      -0.215  10.415  19.566  0.00  0.00    +0.000 C 
BRANCH  23  24
ATOM     24  C   UNL     1      -0.980  10.424  18.243  0.00  0.00    +0.000 C 
BRANCH  24  25
ATOM     25  C   UNL     1      -2.390  10.942  18.388  0.00  0.00    +0.000 A 
ATOM     26  C   UNL     1      -3.432  10.485  17.573  0.00  0.00    +0.000 A 
ATOM     27  C   UNL     1      -4.712  10.999  17.727  0.00  0.00    +0.000 A 
ATOM     28  C   UNL     1      -4.920  11.953  18.713  0.00  0.00    +0.000 A 
ATOM     29  N   UNL     1      -3.949  12.399  19.542  0.00  0.00    +0.000 NA
ATOM     30  C   UNL     1      -2.715  11.880  19.367  0.00  0.00    +0.000 A 
ENDBRANCH  24  25
ENDBRANCH  23  24
ENDBRANCH  22  23
ENDBRANCH  21  22
ENDBRANCH  10  21
TORSDOF 6
ENDMDL
