MODEL 1
REMARK VINA RESULT:      -8.3      0.000      0.000
REMARK  Name = 
REMARK  10 active torsions:
REMARK  status: ('A' for Active; 'I' for Inactive)
REMARK    1  A    between atoms: C_1  and  C_2
REMARK    2  A    between atoms: C_2  and  C_3
REMARK    3  A    between atoms: C_8  and  N_9
REMARK    4  A    between atoms: C_15  and  C_16
REMARK    5  A    between atoms: C_16  and  O_17
REMARK    6  A    between atoms: O_17  and  C_18
REMARK    7  A    between atoms: C_18  and  C_20
REMARK    8  A    between atoms: C_20  and  C_21
REMARK    9  A    between atoms: C_21  and  S_22
REMARK   10  A    between atoms: S_22  and  C_25
REMARK                            x       y       z     vdW  Elec       q    Type
REMARK                         _______ _______ _______ _____ _____    ______ ____
ROOT
ATOM      1  N   UNL     1       4.817   3.922  18.634  0.00  0.00    +0.000 N 
ATOM      2  C   UNL     1       3.670   4.194  19.395  0.00  0.00    +0.000 A 
ATOM      3  N   UNL     1       3.207   3.257  20.212  0.00  0.00    +0.000 NA
ATOM      4  C   UNL     1       2.206   3.636  21.001  0.00  0.00    +0.000 A 
ATOM      5  N   UNL     1       1.681   2.688  21.856  0.00  0.00    +0.000 N 
ATOM      6  N   UNL     1       1.658   4.846  21.037  0.00  0.00    +0.000 NA
ATOM      7  C   UNL     1       2.189   5.713  20.182  0.00  0.00    +0.000 A 
ATOM      8  N   UNL     1       3.135   5.403  19.303  0.00  0.00    +0.000 NA
ATOM      9  H   UNL     1       5.226   3.061  18.975  0.00  0.00    +0.000 HD
ATOM     10  H   UNL     1       1.859   1.754  21.514  0.00  0.00    +0.000 HD
ATOM     11  H   UNL     1       0.730   2.921  22.104  0.00  0.00    +0.000 HD
ENDROOT
BRANCH   1  17
ATOM     12  C   UNL     1       5.913   5.328  16.932  0.00  0.00    +0.000 A 
ATOM     13  C   UNL     1       6.886   6.295  16.609  0.00  0.00    +0.000 A 
ATOM     14  C   UNL     1       7.744   6.808  17.580  0.00  0.00    +0.000 A 
ATOM     15  C   UNL     1       7.660   6.346  18.884  0.00  0.00    +0.000 A 
ATOM     16  C   UNL     1       6.706   5.386  19.214  0.00  0.00    +0.000 A 
ATOM     17  C   UNL     1       5.794   4.884  18.265  0.00  0.00    +0.000 A 
BRANCH  12  19
ATOM     18  C   UNL     1       5.889   3.989  14.825  0.00  0.00    +0.000 C 
ATOM     19  C   UNL     1       5.051   4.782  15.819  0.00  0.00    +0.000 C 
ENDBRANCH  12  19
ENDBRANCH   1  17
BRANCH   7  20
ATOM     20  C   UNL     1       1.797   7.167  20.166  0.00  0.00    +0.000 C 
BRANCH  20  21
ATOM     21  O   UNL     1       1.572   7.798  21.429  0.00  0.00    +0.000 OA
BRANCH  21  22
ATOM     22  C   UNL     1       0.433   8.538  21.459  0.00  0.00    +0.000 C 
ATOM     23  O   UNL     1      -0.688   8.082  21.630  0.00  0.00    +0.000 OA
BRANCH  22  24
ATOM     24  C   UNL     1       0.746  10.013  21.505  0.00  0.00    +0.000 C 
BRANCH  24  25
ATOM     25  C   UNL     1       0.588  10.700  20.160  0.00  0.00    +0.000 C 
BRANCH  25  26
ATOM     26  S   UNL     1      -0.777  11.834  20.180  0.00  0.00    +0.000 S 
ATOM     27  O   UNL     1      -1.513  11.642  21.417  0.00  0.00    +0.000 OA
ATOM     28  O   UNL     1      -0.280  13.142  19.797  0.00  0.00    +0.000 OA
BRANCH  26  29
ATOM     29  C   UNL     1      -1.787  11.231  18.849  0.00  0.00    +0.000 A 
ATOM     30  C   UNL     1      -1.272  10.273  17.975  0.00  0.00    +0.000 A 
ATOM     31  C   UNL     1      -2.048   9.836  16.901  0.00  0.00    +0.000 A 
ATOM     32  C   UNL     1      -3.332  10.352  16.715  0.00  0.00    +0.000 A 
ATOM     33  C   UNL     1      -3.852  11.292  17.607  0.00  0.00    +0.000 A 
ATOM     34  C   UNL     1      -3.083  11.732  18.685  0.00  0.00    +0.000 A 
ENDBRANCH  26  29
ENDBRANCH  25  26
ENDBRANCH  24  25
ENDBRANCH  22  24
ENDBRANCH  21  22
ENDBRANCH  20  21
ENDBRANCH   7  20
TORSDOF 9
ENDMDL
MODEL 2
REMARK VINA RESULT:      -8.3      1.100      1.500
REMARK  Name = 
REMARK  10 active torsions:
REMARK  status: ('A' for Active; 'I' for Inactive)
REMARK    1  A    between atoms: C_1  and  C_2
REMARK    2  A    between atoms: C_2  and  C_3
REMARK    3  A    between atoms: C_8  and  N_9
REMARK    4  A    between atoms: C_15  and  C_16
REMARK    5  A    between atoms: C_16  and  O_17
REMARK    6  A    between atoms: O_17  and  C_18
REMARK    7  A    between atoms: C_18  and  C_20
REMARK    8  A    between atoms: C_20  and  C_21
REMARK    9  A    between atoms: C_21  and  S_22
REMARK   10  A    between atoms: S_22  and  C_25
REMARK                            x       y       z     vdW  Elec       q    Type
REMARK                         _______ _______ _______ _____ _____    ______ ____
ROOT
ATOM      1  N   UNL     1       5.106   3.703  18.833  0.00  0.00    +0.000 N 
ATOM      2  C   UNL     1       3.924   3.888  19.569  0.00  0.00    +0.000 A 
ATOM      3  N   UNL     1       3.544   2.944  20.418  0.00  0.00    +0.000 NA
ATOM      4  C   UNL     1       2.498   3.252  21.179  0.00  0.00    +0.000 A 
ATOM      5  N   UNL     1       2.056   2.291  22.066  0.00  0.00    +0.000 N 
ATOM      6  N   UNL     1       1.831   4.401  21.156  0.00  0.00    +0.000 NA
ATOM      7  C   UNL     1       2.286   5.282  20.272  0.00  0.00    +0.000 A 
ATOM      8  N   UNL     1       3.272   5.033  19.419  0.00  0.00    +0.000 NA
ATOM      9  H   UNL     1       5.592   2.902  19.216  0.00  0.00    +0.000 HD
ATOM     10  H   UNL     1       2.332   1.367  21.766  0.00  0.00    +0.000 HD
ATOM     11  H   UNL     1       1.083   2.438  22.292  0.00  0.00    +0.000 HD
ENDROOT
BRANCH   1  17
ATOM     12  C   UNL     1       6.017   5.205  17.105  0.00  0.00    +0.000 A 
ATOM     13  C   UNL     1       6.895   6.249  16.754  0.00  0.00    +0.000 A 
ATOM     14  C   UNL     1       7.748   6.822  17.696  0.00  0.00    +0.000 A 
ATOM     15  C   UNL     1       7.755   6.344  18.997  0.00  0.00    +0.000 A 
ATOM     16  C   UNL     1       6.894   5.309  19.354  0.00  0.00    +0.000 A 
ATOM     17  C   UNL     1       5.987   4.743  18.437  0.00  0.00    +0.000 A 
BRANCH  12  19
ATOM     18  C   UNL     1       6.018   3.943  14.951  0.00  0.00    +0.000 C 
ATOM     19  C   UNL     1       5.156   4.600  16.021  0.00  0.00    +0.000 C 
ENDBRANCH  12  19
ENDBRANCH   1  17
BRANCH   7  20
ATOM     20  C   UNL     1       1.750   6.687  20.190  0.00  0.00    +0.000 C 
BRANCH  20  21
ATOM     21  O   UNL     1       2.490   7.625  19.404  0.00  0.00    +0.000 OA
BRANCH  21  22
ATOM     22  C   UNL     1       1.721   8.631  18.914  0.00  0.00    +0.000 C 
ATOM     23  O   UNL     1       1.344   8.717  17.754  0.00  0.00    +0.000 OA
BRANCH  22  24
ATOM     24  C   UNL     1       1.180   9.492  20.028  0.00  0.00    +0.000 C 
BRANCH  24  25
ATOM     25  C   UNL     1      -0.324   9.685  19.959  0.00  0.00    +0.000 C 
BRANCH  25  26
ATOM     26  S   UNL     1      -0.734  11.351  19.507  0.00  0.00    +0.000 S 
ATOM     27  O   UNL     1      -1.360  11.994  20.649  0.00  0.00    +0.000 OA
ATOM     28  O   UNL     1       0.422  11.937  18.855  0.00  0.00    +0.000 OA
BRANCH  26  29
ATOM     29  C   UNL     1      -1.986  11.109  18.270  0.00  0.00    +0.000 A 
ATOM     30  C   UNL     1      -3.250  11.670  18.453  0.00  0.00    +0.000 A 
ATOM     31  C   UNL     1      -4.247  11.437  17.505  0.00  0.00    +0.000 A 
ATOM     32  C   UNL     1      -3.971  10.655  16.382  0.00  0.00    +0.000 A 
ATOM     33  C   UNL     1      -2.697  10.116  16.192  0.00  0.00    +0.000 A 
ATOM     34  C   UNL     1      -1.694  10.347  17.134  0.00  0.00    +0.000 A 
ENDBRANCH  26  29
ENDBRANCH  25  26
ENDBRANCH  24  25
ENDBRANCH  22  24
ENDBRANCH  21  22
ENDBRANCH  20  21
ENDBRANCH   7  20
TORSDOF 9
ENDMDL
MODEL 3
REMARK VINA RESULT:      -8.3      0.876      1.300
REMARK  Name = 
REMARK  10 active torsions:
REMARK  status: ('A' for Active; 'I' for Inactive)
REMARK    1  A    between atoms: C_1  and  C_2
REMARK    2  A    between atoms: C_2  and  C_3
REMARK    3  A    between atoms: C_8  and  N_9
REMARK    4  A    between atoms: C_15  and  C_16
REMARK    5  A    between atoms: C_16  and  O_17
REMARK    6  A    between atoms: O_17  and  C_18
REMARK    7  A    between atoms: C_18  and  C_20
REMARK    8  A    between atoms: C_20  and  C_21
REMARK    9  A    between atoms: C_21  and  S_22
REMARK   10  A    between atoms: S_22  and  C_25
REMARK                            x       y       z     vdW  Elec       q    Type
REMARK                         _______ _______ _______ _____ _____    ______ ____
ROOT
ATOM      1  N   UNL     1       4.515   4.340  18.221  0.00  0.00    +0.000 N 
ATOM      2  C   UNL     1       3.336   4.615  18.932  0.00  0.00    +0.000 A 
ATOM      3  N   UNL     1       2.622   3.602  19.404  0.00  0.00    +0.000 NA
ATOM      4  C   UNL     1       1.601   3.943  20.185  0.00  0.00    +0.000 A 
ATOM      5  N   UNL     1       0.819   2.922  20.685  0.00  0.00    +0.000 N 
ATOM      6  N   UNL     1       1.258   5.182  20.522  0.00  0.00    +0.000 NA
ATOM      7  C   UNL     1       2.032   6.126  19.998  0.00  0.00    +0.000 A 
ATOM      8  N   UNL     1       3.023   5.885  19.148  0.00  0.00    +0.000 NA
ATOM      9  H   UNL     1       4.728   3.357  18.333  0.00  0.00    +0.000 HD
ATOM     10  H   UNL     1       0.886   2.097  20.105  0.00  0.00    +0.000 HD
ATOM     11  H   UNL     1      -0.105   3.260  20.911  0.00  0.00    +0.000 HD
ENDROOT
BRANCH   1  17
ATOM     12  C   UNL     1       6.008   5.958  17.114  0.00  0.00    +0.000 A 
ATOM     13  C   UNL     1       7.162   6.766  17.163  0.00  0.00    +0.000 A 
ATOM     14  C   UNL     1       7.989   6.776  18.284  0.00  0.00    +0.000 A 
ATOM     15  C   UNL     1       7.692   5.960  19.364  0.00  0.00    +0.000 A 
ATOM     16  C   UNL     1       6.556   5.152  19.325  0.00  0.00    +0.000 A 
ATOM     17  C   UNL     1       5.676   5.157  18.226  0.00  0.00    +0.000 A 
BRANCH  12  19
ATOM     18  C   UNL     1       5.743   4.968  14.838  0.00  0.00    +0.000 C 
ATOM     19  C   UNL     1       5.186   5.962  15.847  0.00  0.00    +0.000 C 
ENDBRANCH  12  19
ENDBRANCH   1  17
BRANCH   7  20
ATOM     20  C   UNL     1       1.889   7.579  20.369  0.00  0.00    +0.000 C 
BRANCH  20  21
ATOM     21  O   UNL     1       1.130   7.883  21.543  0.00  0.00    +0.000 OA
BRANCH  21  22
ATOM     22  C   UNL     1       1.231   9.184  21.918  0.00  0.00    +0.000 C 
ATOM     23  O   UNL     1       1.846   9.580  22.897  0.00  0.00    +0.000 OA
BRANCH  22  24
ATOM     24  C   UNL     1       0.704  10.101  20.843  0.00  0.00    +0.000 C 
BRANCH  24  25
ATOM     25  C   UNL     1      -0.803  10.277  20.893  0.00  0.00    +0.000 C 
BRANCH  25  26
ATOM     26  S   UNL     1      -1.293  11.803  20.130  0.00  0.00    +0.000 S 
ATOM     27  O   UNL     1      -2.280  12.443  20.982  0.00  0.00    +0.000 OA
ATOM     28  O   UNL     1      -0.093  12.503  19.715  0.00  0.00    +0.000 OA
BRANCH  26  29
ATOM     29  C   UNL     1      -2.125  11.241  18.664  0.00  0.00    +0.000 A 
ATOM     30  C   UNL     1      -3.431  11.663  18.411  0.00  0.00    +0.000 A 
ATOM     31  C   UNL     1      -4.101  11.182  17.286  0.00  0.00    +0.000 A 
ATOM     32  C   UNL     1      -3.459  10.293  16.421  0.00  0.00    +0.000 A 
ATOM     33  C   UNL     1      -2.145   9.894  16.667  0.00  0.00    +0.000 A 
ATOM     34  C   UNL     1      -1.467  10.372  17.788  0.00  0.00    +0.000 A 
ENDBRANCH  26  29
ENDBRANCH  25  26
ENDBRANCH  24  25
ENDBRANCH  22  24
ENDBRANCH  21  22
ENDBRANCH  20  21
ENDBRANCH   7  20
TORSDOF 9
ENDMDL
MODEL 4
REMARK VINA RESULT:      -8.1      1.872      2.521
REMARK  Name = 
REMARK  10 active torsions:
REMARK  status: ('A' for Active; 'I' for Inactive)
REMARK    1  A    between atoms: C_1  and  C_2
REMARK    2  A    between atoms: C_2  and  C_3
REMARK    3  A    between atoms: C_8  and  N_9
REMARK    4  A    between atoms: C_15  and  C_16
REMARK    5  A    between atoms: C_16  and  O_17
REMARK    6  A    between atoms: O_17  and  C_18
REMARK    7  A    between atoms: C_18  and  C_20
REMARK    8  A    between atoms: C_20  and  C_21
REMARK    9  A    between atoms: C_21  and  S_22
REMARK   10  A    between atoms: S_22  and  C_25
REMARK                            x       y       z     vdW  Elec       q    Type
REMARK                         _______ _______ _______ _____ _____    ______ ____
ROOT
ATOM      1  N   UNL     1       5.117   3.529  18.801  0.00  0.00    +0.000 N 
ATOM      2  C   UNL     1       3.939   3.712  19.543  0.00  0.00    +0.000 A 
ATOM      3  N   UNL     1       3.583   2.781  20.418  0.00  0.00    +0.000 NA
ATOM      4  C   UNL     1       2.538   3.090  21.181  0.00  0.00    +0.000 A 
ATOM      5  N   UNL     1       2.121   2.142  22.094  0.00  0.00    +0.000 N 
ATOM      6  N   UNL     1       1.852   4.226  21.138  0.00  0.00    +0.000 NA
ATOM      7  C   UNL     1       2.283   5.093  20.229  0.00  0.00    +0.000 A 
ATOM      8  N   UNL     1       3.266   4.841  19.373  0.00  0.00    +0.000 NA
ATOM      9  H   UNL     1       5.621   2.746  19.198  0.00  0.00    +0.000 HD
ATOM     10  H   UNL     1       2.411   1.216  21.814  0.00  0.00    +0.000 HD
ATOM     11  H   UNL     1       1.148   2.278  22.327  0.00  0.00    +0.000 HD
ENDROOT
BRANCH   1  17
ATOM     12  C   UNL     1       6.002   4.991  17.025  0.00  0.00    +0.000 A 
ATOM     13  C   UNL     1       6.859   6.041  16.641  0.00  0.00    +0.000 A 
ATOM     14  C   UNL     1       7.694   6.666  17.566  0.00  0.00    +0.000 A 
ATOM     15  C   UNL     1       7.705   6.234  18.883  0.00  0.00    +0.000 A 
ATOM     16  C   UNL     1       6.866   5.192  19.273  0.00  0.00    +0.000 A 
ATOM     17  C   UNL     1       5.977   4.574  18.372  0.00  0.00    +0.000 A 
BRANCH  12  19
ATOM     18  C   UNL     1       5.610   4.761  14.570  0.00  0.00    +0.000 C 
ATOM     19  C   UNL     1       5.161   4.329  15.959  0.00  0.00    +0.000 C 
ENDBRANCH  12  19
ENDBRANCH   1  17
BRANCH   7  20
ATOM     20  C   UNL     1       1.723   6.487  20.119  0.00  0.00    +0.000 C 
BRANCH  20  21
ATOM     21  O   UNL     1       2.417   7.407  19.272  0.00  0.00    +0.000 OA
BRANCH  21  22
ATOM     22  C   UNL     1       1.790   8.606  19.165  0.00  0.00    +0.000 C 
ATOM     23  O   UNL     1       1.548   9.173  18.109  0.00  0.00    +0.000 OA
BRANCH  22  24
ATOM     24  C   UNL     1       1.207   9.034  20.489  0.00  0.00    +0.000 C 
BRANCH  24  25
ATOM     25  C   UNL     1      -0.132   9.736  20.354  0.00  0.00    +0.000 C 
BRANCH  25  26
ATOM     26  S   UNL     1       0.045  11.491  20.549  0.00  0.00    +0.000 S 
ATOM     27  O   UNL     1       1.140  11.740  21.469  0.00  0.00    +0.000 OA
ATOM     28  O   UNL     1       0.020  12.094  19.230  0.00  0.00    +0.000 OA
BRANCH  26  29
ATOM     29  C   UNL     1      -1.466  11.933  21.372  0.00  0.00    +0.000 A 
ATOM     30  C   UNL     1      -2.475  12.579  20.656  0.00  0.00    +0.000 A 
ATOM     31  C   UNL     1      -3.641  12.969  21.315  0.00  0.00    +0.000 A 
ATOM     32  C   UNL     1      -3.792  12.705  22.678  0.00  0.00    +0.000 A 
ATOM     33  C   UNL     1      -2.789  12.037  23.383  0.00  0.00    +0.000 A 
ATOM     34  C   UNL     1      -1.622  11.641  22.730  0.00  0.00    +0.000 A 
ENDBRANCH  26  29
ENDBRANCH  25  26
ENDBRANCH  24  25
ENDBRANCH  22  24
ENDBRANCH  21  22
ENDBRANCH  20  21
ENDBRANCH   7  20
TORSDOF 9
ENDMDL
MODEL 5
REMARK VINA RESULT:      -8.1      1.820      2.709
REMARK  Name = 
REMARK  10 active torsions:
REMARK  status: ('A' for Active; 'I' for Inactive)
REMARK    1  A    between atoms: C_1  and  C_2
REMARK    2  A    between atoms: C_2  and  C_3
REMARK    3  A    between atoms: C_8  and  N_9
REMARK    4  A    between atoms: C_15  and  C_16
REMARK    5  A    between atoms: C_16  and  O_17
REMARK    6  A    between atoms: O_17  and  C_18
REMARK    7  A    between atoms: C_18  and  C_20
REMARK    8  A    between atoms: C_20  and  C_21
REMARK    9  A    between atoms: C_21  and  S_22
REMARK   10  A    between atoms: S_22  and  C_25
REMARK                            x       y       z     vdW  Elec       q    Type
REMARK                         _______ _______ _______ _____ _____    ______ ____
ROOT
ATOM      1  N   UNL     1       5.048   3.736  18.744  0.00  0.00    +0.000 N 
ATOM      2  C   UNL     1       3.869   3.943  19.477  0.00  0.00    +0.000 A 
ATOM      3  N   UNL     1       3.469   3.004  20.324  0.00  0.00    +0.000 NA
ATOM      4  C   UNL     1       2.427   3.331  21.082  0.00  0.00    +0.000 A 
ATOM      5  N   UNL     1       1.965   2.377  21.966  0.00  0.00    +0.000 N 
ATOM      6  N   UNL     1       1.783   4.492  21.061  0.00  0.00    +0.000 NA
ATOM      7  C   UNL     1       2.257   5.366  20.180  0.00  0.00    +0.000 A 
ATOM      8  N   UNL     1       3.240   5.099  19.329  0.00  0.00    +0.000 NA
ATOM      9  H   UNL     1       5.519   2.925  19.126  0.00  0.00    +0.000 HD
ATOM     10  H   UNL     1       2.224   1.448  21.665  0.00  0.00    +0.000 HD
ATOM     11  H   UNL     1       0.994   2.541  22.191  0.00  0.00    +0.000 HD
ENDROOT
BRANCH   1  17
ATOM     12  C   UNL     1       5.978   5.239  17.026  0.00  0.00    +0.000 A 
ATOM     13  C   UNL     1       6.878   6.266  16.679  0.00  0.00    +0.000 A 
ATOM     14  C   UNL     1       7.755   6.805  17.619  0.00  0.00    +0.000 A 
ATOM     15  C   UNL     1       7.763   6.310  18.913  0.00  0.00    +0.000 A 
ATOM     16  C   UNL     1       6.881   5.290  19.266  0.00  0.00    +0.000 A 
ATOM     17  C   UNL     1       5.951   4.759  18.352  0.00  0.00    +0.000 A 
BRANCH  12  19
ATOM     18  C   UNL     1       5.922   3.961  14.881  0.00  0.00    +0.000 C 
ATOM     19  C   UNL     1       5.092   4.669  15.943  0.00  0.00    +0.000 C 
ENDBRANCH  12  19
ENDBRANCH   1  17
BRANCH   7  20
ATOM     20  C   UNL     1       1.749   6.781  20.100  0.00  0.00    +0.000 C 
BRANCH  20  21
ATOM     21  O   UNL     1       2.602   7.750  19.483  0.00  0.00    +0.000 OA
BRANCH  21  22
ATOM     22  C   UNL     1       2.149   8.163  18.273  0.00  0.00    +0.000 C 
ATOM     23  O   UNL     1       1.857   7.419  17.348  0.00  0.00    +0.000 OA
BRANCH  22  24
ATOM     24  C   UNL     1       1.810   9.633  18.293  0.00  0.00    +0.000 C 
BRANCH  24  25
ATOM     25  C   UNL     1       0.322   9.906  18.167  0.00  0.00    +0.000 C 
BRANCH  25  26
ATOM     26  S   UNL     1      -0.112  11.444  18.938  0.00  0.00    +0.000 S 
ATOM     27  O   UNL     1       1.048  12.318  18.901  0.00  0.00    +0.000 OA
ATOM     28  O   UNL     1      -1.391  11.871  18.403  0.00  0.00    +0.000 OA
BRANCH  26  29
ATOM     29  C   UNL     1      -0.370  10.959  20.628  0.00  0.00    +0.000 A 
ATOM     30  C   UNL     1      -0.132   9.637  21.006  0.00  0.00    +0.000 A 
ATOM     31  C   UNL     1      -0.382   9.245  22.322  0.00  0.00    +0.000 A 
ATOM     32  C   UNL     1      -0.858  10.176  23.247  0.00  0.00    +0.000 A 
ATOM     33  C   UNL     1      -1.070  11.503  22.868  0.00  0.00    +0.000 A 
ATOM     34  C   UNL     1      -0.820  11.903  21.556  0.00  0.00    +0.000 A 
ENDBRANCH  26  29
ENDBRANCH  25  26
ENDBRANCH  24  25
ENDBRANCH  22  24
ENDBRANCH  21  22
ENDBRANCH  20  21
ENDBRANCH   7  20
TORSDOF 9
ENDMDL
MODEL 6
REMARK VINA RESULT:      -8.1      5.147      8.109
REMARK  Name = 
REMARK  10 active torsions:
REMARK  status: ('A' for Active; 'I' for Inactive)
REMARK    1  A    between atoms: C_1  and  C_2
REMARK    2  A    between atoms: C_2  and  C_3
REMARK    3  A    between atoms: C_8  and  N_9
REMARK    4  A    between atoms: C_15  and  C_16
REMARK    5  A    between atoms: C_16  and  O_17
REMARK    6  A    between atoms: O_17  and  C_18
REMARK    7  A    between atoms: C_18  and  C_20
REMARK    8  A    between atoms: C_20  and  C_21
REMARK    9  A    between atoms: C_21  and  S_22
REMARK   10  A    between atoms: S_22  and  C_25
REMARK                            x       y       z     vdW  Elec       q    Type
REMARK                         _______ _______ _______ _____ _____    ______ ____
ROOT
ATOM      1  N   UNL     1       3.314   4.465  17.415  0.00  0.00    +0.000 N 
ATOM      2  C   UNL     1       4.644   4.366  16.979  0.00  0.00    +0.000 A 
ATOM      3  N   UNL     1       4.882   3.989  15.730  0.00  0.00    +0.000 NA
ATOM      4  C   UNL     1       6.155   4.056  15.350  0.00  0.00    +0.000 A 
ATOM      5  N   UNL     1       6.452   3.656  14.062  0.00  0.00    +0.000 N 
ATOM      6  N   UNL     1       7.171   4.465  16.101  0.00  0.00    +0.000 NA
ATOM      7  C   UNL     1       6.832   4.819  17.335  0.00  0.00    +0.000 A 
ATOM      8  N   UNL     1       5.604   4.712  17.826  0.00  0.00    +0.000 NA
ATOM      9  H   UNL     1       2.710   4.386  16.606  0.00  0.00    +0.000 HD
ATOM     10  H   UNL     1       5.749   3.023  13.708  0.00  0.00    +0.000 HD
ATOM     11  H   UNL     1       7.417   3.369  13.993  0.00  0.00    +0.000 HD
ENDROOT
BRANCH   1  17
ATOM     12  C   UNL     1       2.366   4.994  19.628  0.00  0.00    +0.000 A 
ATOM     13  C   UNL     1       1.916   5.961  20.549  0.00  0.00    +0.000 A 
ATOM     14  C   UNL     1       1.913   7.317  20.227  0.00  0.00    +0.000 A 
ATOM     15  C   UNL     1       2.336   7.727  18.973  0.00  0.00    +0.000 A 
ATOM     16  C   UNL     1       2.779   6.779  18.052  0.00  0.00    +0.000 A 
ATOM     17  C   UNL     1       2.838   5.407  18.365  0.00  0.00    +0.000 A 
BRANCH  12  19
ATOM     18  C   UNL     1       0.882   3.000  19.854  0.00  0.00    +0.000 C 
ATOM     19  C   UNL     1       2.295   3.539  20.027  0.00  0.00    +0.000 C 
ENDBRANCH  12  19
ENDBRANCH   1  17
BRANCH   7  20
ATOM     20  C   UNL     1       7.818   5.436  18.292  0.00  0.00    +0.000 C 
BRANCH  20  21
ATOM     21  O   UNL     1       7.501   6.729  18.816  0.00  0.00    +0.000 OA
BRANCH  21  22
ATOM     22  C   UNL     1       7.800   7.738  17.958  0.00  0.00    +0.000 C 
ATOM     23  O   UNL     1       7.294   7.887  16.856  0.00  0.00    +0.000 OA
BRANCH  22  24
ATOM     24  C   UNL     1       8.646   8.790  18.632  0.00  0.00    +0.000 C 
BRANCH  24  25
ATOM     25  C   UNL     1       8.689  10.102  17.869  0.00  0.00    +0.000 C 
BRANCH  25  26
ATOM     26  S   UNL     1       9.819  11.243  18.625  0.00  0.00    +0.000 S 
ATOM     27  O   UNL     1      10.058  10.811  19.991  0.00  0.00    +0.000 OA
ATOM     28  O   UNL     1      10.917  11.465  17.704  0.00  0.00    +0.000 OA
BRANCH  26  29
ATOM     29  C   UNL     1       8.858  12.736  18.689  0.00  0.00    +0.000 A 
ATOM     30  C   UNL     1       8.127  13.132  17.568  0.00  0.00    +0.000 A 
ATOM     31  C   UNL     1       7.413  14.330  17.603  0.00  0.00    +0.000 A 
ATOM     32  C   UNL     1       7.429  15.116  18.757  0.00  0.00    +0.000 A 
ATOM     33  C   UNL     1       8.142  14.703  19.883  0.00  0.00    +0.000 A 
ATOM     34  C   UNL     1       8.856  13.505  19.857  0.00  0.00    +0.000 A 
ENDBRANCH  26  29
ENDBRANCH  25  26
ENDBRANCH  24  25
ENDBRANCH  22  24
ENDBRANCH  21  22
ENDBRANCH  20  21
ENDBRANCH   7  20
TORSDOF 9
ENDMDL
MODEL 7
REMARK VINA RESULT:      -8.1      4.255      8.085
REMARK  Name = 
REMARK  10 active torsions:
REMARK  status: ('A' for Active; 'I' for Inactive)
REMARK    1  A    between atoms: C_1  and  C_2
REMARK    2  A    between atoms: C_2  and  C_3
REMARK    3  A    between atoms: C_8  and  N_9
REMARK    4  A    between atoms: C_15  and  C_16
REMARK    5  A    between atoms: C_16  and  O_17
REMARK    6  A    between atoms: O_17  and  C_18
REMARK    7  A    between atoms: C_18  and  C_20
REMARK    8  A    between atoms: C_20  and  C_21
REMARK    9  A    between atoms: C_21  and  S_22
REMARK   10  A    between atoms: S_22  and  C_25
REMARK                            x       y       z     vdW  Elec       q    Type
REMARK                         _______ _______ _______ _____ _____    ______ ____
ROOT
ATOM      1  N   UNL     1       2.450   6.727  20.720  0.00  0.00    +0.000 N 
ATOM      2  C   UNL     1       2.197   5.367  20.484  0.00  0.00    +0.000 A 
ATOM      3  N   UNL     1       2.054   4.553  21.522  0.00  0.00    +0.000 NA
ATOM      4  C   UNL     1       1.677   3.313  21.224  0.00  0.00    +0.000 A 
ATOM      5  N   UNL     1       1.533   2.427  22.272  0.00  0.00    +0.000 N 
ATOM      6  N   UNL     1       1.434   2.846  20.004  0.00  0.00    +0.000 NA
ATOM      7  C   UNL     1       1.606   3.735  19.032  0.00  0.00    +0.000 A 
ATOM      8  N   UNL     1       2.054   4.969  19.228  0.00  0.00    +0.000 NA
ATOM      9  H   UNL     1       2.310   6.907  21.706  0.00  0.00    +0.000 HD
ATOM     10  H   UNL     1       2.084   2.714  23.068  0.00  0.00    +0.000 HD
ATOM     11  H   UNL     1       1.638   1.475  21.949  0.00  0.00    +0.000 HD
ENDROOT
BRANCH   1  17
ATOM     12  C   UNL     1       1.255   8.863  20.437  0.00  0.00    +0.000 A 
ATOM     13  C   UNL     1       0.834   9.909  19.592  0.00  0.00    +0.000 A 
ATOM     14  C   UNL     1       1.123   9.895  18.228  0.00  0.00    +0.000 A 
ATOM     15  C   UNL     1       1.816   8.825  17.684  0.00  0.00    +0.000 A 
ATOM     16  C   UNL     1       2.232   7.783  18.510  0.00  0.00    +0.000 A 
ATOM     17  C   UNL     1       1.996   7.792  19.898  0.00  0.00    +0.000 A 
BRANCH  12  19
ATOM     18  C   UNL     1      -0.619   8.616  22.069  0.00  0.00    +0.000 C 
ATOM     19  C   UNL     1       0.862   8.922  21.895  0.00  0.00    +0.000 C 
ENDBRANCH  12  19
ENDBRANCH   1  17
BRANCH   7  20
ATOM     20  C   UNL     1       1.251   3.437  17.599  0.00  0.00    +0.000 C 
BRANCH  20  21
ATOM     21  O   UNL     1       2.326   3.367  16.659  0.00  0.00    +0.000 OA
BRANCH  21  22
ATOM     22  C   UNL     1       3.506   3.008  17.227  0.00  0.00    +0.000 C 
ATOM     23  O   UNL     1       3.765   1.889  17.644  0.00  0.00    +0.000 OA
BRANCH  22  24
ATOM     24  C   UNL     1       4.543   4.089  17.051  0.00  0.00    +0.000 C 
BRANCH  24  25
ATOM     25  C   UNL     1       5.638   3.713  16.067  0.00  0.00    +0.000 C 
BRANCH  25  26
ATOM     26  S   UNL     1       6.438   5.159  15.420  0.00  0.00    +0.000 S 
ATOM     27  O   UNL     1       7.534   4.732  14.569  0.00  0.00    +0.000 OA
ATOM     28  O   UNL     1       5.412   6.059  14.929  0.00  0.00    +0.000 OA
BRANCH  26  29
ATOM     29  C   UNL     1       7.140   5.887  16.882  0.00  0.00    +0.000 A 
ATOM     30  C   UNL     1       7.351   7.265  16.929  0.00  0.00    +0.000 A 
ATOM     31  C   UNL     1       7.948   7.829  18.057  0.00  0.00    +0.000 A 
ATOM     32  C   UNL     1       8.320   7.014  19.128  0.00  0.00    +0.000 A 
ATOM     33  C   UNL     1       8.083   5.639  19.085  0.00  0.00    +0.000 A 
ATOM     34  C   UNL     1       7.484   5.068  17.962  0.00  0.00    +0.000 A 
ENDBRANCH  26  29
ENDBRANCH  25  26
ENDBRANCH  24  25
ENDBRANCH  22  24
ENDBRANCH  21  22
ENDBRANCH  20  21
ENDBRANCH   7  20
TORSDOF 9
ENDMDL
MODEL 8
REMARK VINA RESULT:      -8.1      2.407      3.131
REMARK  Name = 
REMARK  10 active torsions:
REMARK  status: ('A' for Active; 'I' for Inactive)
REMARK    1  A    between atoms: C_1  and  C_2
REMARK    2  A    between atoms: C_2  and  C_3
REMARK    3  A    between atoms: C_8  and  N_9
REMARK    4  A    between atoms: C_15  and  C_16
REMARK    5  A    between atoms: C_16  and  O_17
REMARK    6  A    between atoms: O_17  and  C_18
REMARK    7  A    between atoms: C_18  and  C_20
REMARK    8  A    between atoms: C_20  and  C_21
REMARK    9  A    between atoms: C_21  and  S_22
REMARK   10  A    between atoms: S_22  and  C_25
REMARK                            x       y       z     vdW  Elec       q    Type
REMARK                         _______ _______ _______ _____ _____    ______ ____
ROOT
ATOM      1  N   UNL     1       5.085   3.585  18.860  0.00  0.00    +0.000 N 
ATOM      2  C   UNL     1       3.902   3.851  19.567  0.00  0.00    +0.000 A 
ATOM      3  N   UNL     1       3.485   2.974  20.470  0.00  0.00    +0.000 NA
ATOM      4  C   UNL     1       2.440   3.361  21.196  0.00  0.00    +0.000 A 
ATOM      5  N   UNL     1       1.961   2.472  22.137  0.00  0.00    +0.000 N 
ATOM      6  N   UNL     1       1.809   4.525  21.093  0.00  0.00    +0.000 NA
ATOM      7  C   UNL     1       2.299   5.334  20.160  0.00  0.00    +0.000 A 
ATOM      8  N   UNL     1       3.287   5.002  19.337  0.00  0.00    +0.000 NA
ATOM      9  H   UNL     1       5.544   2.796  19.298  0.00  0.00    +0.000 HD
ATOM     10  H   UNL     1       2.213   1.523  21.899  0.00  0.00    +0.000 HD
ATOM     11  H   UNL     1       0.990   2.660  22.341  0.00  0.00    +0.000 HD
ENDROOT
BRANCH   1  17
ATOM     12  C   UNL     1       6.179   4.828  17.034  0.00  0.00    +0.000 A 
ATOM     13  C   UNL     1       7.087   5.825  16.627  0.00  0.00    +0.000 A 
ATOM     14  C   UNL     1       7.827   6.551  17.559  0.00  0.00    +0.000 A 
ATOM     15  C   UNL     1       7.689   6.275  18.910  0.00  0.00    +0.000 A 
ATOM     16  C   UNL     1       6.798   5.288  19.324  0.00  0.00    +0.000 A 
ATOM     17  C   UNL     1       6.002   4.571  18.409  0.00  0.00    +0.000 A 
BRANCH  12  19
ATOM     18  C   UNL     1       5.620   4.705  14.604  0.00  0.00    +0.000 C 
ATOM     19  C   UNL     1       5.448   4.049  15.966  0.00  0.00    +0.000 C 
ENDBRANCH  12  19
ENDBRANCH   1  17
BRANCH   7  20
ATOM     20  C   UNL     1       1.807   6.746  19.983  0.00  0.00    +0.000 C 
BRANCH  20  21
ATOM     21  O   UNL     1       1.445   7.466  21.164  0.00  0.00    +0.000 OA
BRANCH  21  22
ATOM     22  C   UNL     1       1.147   8.769  20.922  0.00  0.00    +0.000 C 
ATOM     23  O   UNL     1       0.857   9.224  19.826  0.00  0.00    +0.000 OA
BRANCH  22  24
ATOM     24  C   UNL     1       0.973   9.533  22.211  0.00  0.00    +0.000 C 
BRANCH  24  25
ATOM     25  C   UNL     1      -0.430  10.087  22.393  0.00  0.00    +0.000 C 
BRANCH  25  26
ATOM     26  S   UNL     1      -0.593  11.678  21.624  0.00  0.00    +0.000 S 
ATOM     27  O   UNL     1       0.715  12.310  21.600  0.00  0.00    +0.000 OA
ATOM     28  O   UNL     1      -1.369  11.513  20.410  0.00  0.00    +0.000 OA
BRANCH  26  29
ATOM     29  C   UNL     1      -1.599  12.560  22.793  0.00  0.00    +0.000 A 
ATOM     30  C   UNL     1      -2.838  12.037  23.164  0.00  0.00    +0.000 A 
ATOM     31  C   UNL     1      -3.649  12.754  24.044  0.00  0.00    +0.000 A 
ATOM     32  C   UNL     1      -3.212  13.980  24.550  0.00  0.00    +0.000 A 
ATOM     33  C   UNL     1      -1.961  14.486  24.195  0.00  0.00    +0.000 A 
ATOM     34  C   UNL     1      -1.143  13.773  23.317  0.00  0.00    +0.000 A 
ENDBRANCH  26  29
ENDBRANCH  25  26
ENDBRANCH  24  25
ENDBRANCH  22  24
ENDBRANCH  21  22
ENDBRANCH  20  21
ENDBRANCH   7  20
TORSDOF 9
ENDMDL
MODEL 9
REMARK VINA RESULT:      -8.0      1.509      1.753
REMARK  Name = 
REMARK  10 active torsions:
REMARK  status: ('A' for Active; 'I' for Inactive)
REMARK    1  A    between atoms: C_1  and  C_2
REMARK    2  A    between atoms: C_2  and  C_3
REMARK    3  A    between atoms: C_8  and  N_9
REMARK    4  A    between atoms: C_15  and  C_16
REMARK    5  A    between atoms: C_16  and  O_17
REMARK    6  A    between atoms: O_17  and  C_18
REMARK    7  A    between atoms: C_18  and  C_20
REMARK    8  A    between atoms: C_20  and  C_21
REMARK    9  A    between atoms: C_21  and  S_22
REMARK   10  A    between atoms: S_22  and  C_25
REMARK                            x       y       z     vdW  Elec       q    Type
REMARK                         _______ _______ _______ _____ _____    ______ ____
ROOT
ATOM      1  N   UNL     1       5.702   3.520  18.914  0.00  0.00    +0.000 N 
ATOM      2  C   UNL     1       4.350   3.520  19.290  0.00  0.00    +0.000 A 
ATOM      3  N   UNL     1       3.979   2.808  20.346  0.00  0.00    +0.000 NA
ATOM      4  C   UNL     1       2.714   2.969  20.723  0.00  0.00    +0.000 A 
ATOM      5  N   UNL     1       2.279   2.233  21.807  0.00  0.00    +0.000 N 
ATOM      6  N   UNL     1       1.825   3.769  20.145  0.00  0.00    +0.000 NA
ATOM      7  C   UNL     1       2.291   4.439  19.096  0.00  0.00    +0.000 A 
ATOM      8  N   UNL     1       3.513   4.282  18.601  0.00  0.00    +0.000 NA
ATOM      9  H   UNL     1       6.235   3.081  19.655  0.00  0.00    +0.000 HD
ATOM     10  H   UNL     1       2.846   1.407  21.936  0.00  0.00    +0.000 HD
ATOM     11  H   UNL     1       1.277   2.112  21.776  0.00  0.00    +0.000 HD
ENDROOT
BRANCH   1  17
ATOM     12  C   UNL     1       6.406   4.801  16.930  0.00  0.00    +0.000 A 
ATOM     13  C   UNL     1       7.079   5.913  16.386  0.00  0.00    +0.000 A 
ATOM     14  C   UNL     1       7.735   6.830  17.206  0.00  0.00    +0.000 A 
ATOM     15  C   UNL     1       7.751   6.636  18.578  0.00  0.00    +0.000 A 
ATOM     16  C   UNL     1       7.093   5.537  19.126  0.00  0.00    +0.000 A 
ATOM     17  C   UNL     1       6.382   4.620  18.328  0.00  0.00    +0.000 A 
BRANCH  12  19
ATOM     18  C   UNL     1       6.311   3.992  14.569  0.00  0.00    +0.000 C 
ATOM     19  C   UNL     1       5.758   3.822  15.978  0.00  0.00    +0.000 C 
ENDBRANCH  12  19
ENDBRANCH   1  17
BRANCH   7  20
ATOM     20  C   UNL     1       1.479   5.493  18.392  0.00  0.00    +0.000 C 
BRANCH  20  21
ATOM     21  O   UNL     1       2.160   6.686  17.993  0.00  0.00    +0.000 OA
BRANCH  21  22
ATOM     22  C   UNL     1       2.136   7.655  18.943  0.00  0.00    +0.000 C 
ATOM     23  O   UNL     1       2.289   7.459  20.140  0.00  0.00    +0.000 OA
BRANCH  22  24
ATOM     24  C   UNL     1       2.149   9.028  18.319  0.00  0.00    +0.000 C 
BRANCH  24  25
ATOM     25  C   UNL     1       0.803   9.439  17.749  0.00  0.00    +0.000 C 
BRANCH  25  26
ATOM     26  S   UNL     1      -0.036  10.561  18.840  0.00  0.00    +0.000 S 
ATOM     27  O   UNL     1      -0.178   9.917  20.134  0.00  0.00    +0.000 OA
ATOM     28  O   UNL     1       0.590  11.863  18.713  0.00  0.00    +0.000 OA
BRANCH  26  29
ATOM     29  C   UNL     1      -1.650  10.663  18.105  0.00  0.00    +0.000 A 
ATOM     30  C   UNL     1      -1.934   9.912  16.963  0.00  0.00    +0.000 A 
ATOM     31  C   UNL     1      -3.185  10.031  16.359  0.00  0.00    +0.000 A 
ATOM     32  C   UNL     1      -4.142  10.890  16.903  0.00  0.00    +0.000 A 
ATOM     33  C   UNL     1      -3.861  11.620  18.059  0.00  0.00    +0.000 A 
ATOM     34  C   UNL     1      -2.613  11.504  18.671  0.00  0.00    +0.000 A 
ENDBRANCH  26  29
ENDBRANCH  25  26
ENDBRANCH  24  25
ENDBRANCH  22  24
ENDBRANCH  21  22
ENDBRANCH  20  21
ENDBRANCH   7  20
TORSDOF 9
ENDMDL
