MODEL 1
REMARK VINA RESULT:      -6.3      0.000      0.000
REMARK  Name = 
REMARK  9 active torsions:
REMARK  status: ('A' for Active; 'I' for Inactive)
REMARK    1  A    between atoms: C_1  and  N_2
REMARK    2  A    between atoms: N_2  and  C_3
REMARK    3  A    between atoms: N_2  and  C_4
REMARK    4  A    between atoms: C_4  and  C_5
REMARK    5  A    between atoms: C_5  and  C_6
REMARK    6  A    between atoms: C_6  and  N_7
REMARK    7  A    between atoms: N_10  and  N_11
REMARK    8  A    between atoms: C_12  and  C_13
REMARK    9  A    between atoms: C_16  and  O_17
REMARK                            x       y       z     vdW  Elec       q    Type
REMARK                         _______ _______ _______ _____ _____    ______ ____
ROOT
ATOM      1  N   UNL     1       7.560   5.993  18.787  0.00  0.00    +0.000 N 
ATOM      2  C   UNL     1       7.773   7.174  18.114  0.00  0.00    +0.000 C 
ATOM      3  O   UNL     1       7.332   7.378  16.986  0.00  0.00    +0.000 OA
ATOM      4  N   UNL     1       8.517   8.083  18.848  0.00  0.00    +0.000 N 
ATOM      5  H   UNL     1       7.935   5.855  19.712  0.00  0.00    +0.000 HD
ATOM      6  H   UNL     1       8.948   7.816  19.720  0.00  0.00    +0.000 HD
ENDROOT
BRANCH   4   7
ATOM      7  N   UNL     1       8.781   9.297  18.297  0.00  0.00    +0.000 NA
ATOM      8  C   UNL     1       9.418  10.160  19.018  0.00  0.00    +0.000 C 
BRANCH   8   9
ATOM      9  C   UNL     1       9.747  11.489  18.460  0.00  0.00    +0.000 A 
ATOM     10  C   UNL     1       8.872  12.567  18.655  0.00  0.00    +0.000 A 
ATOM     11  C   UNL     1       9.166  13.816  18.109  0.00  0.00    +0.000 A 
ATOM     12  C   UNL     1      10.335  13.979  17.372  0.00  0.00    +0.000 A 
ATOM     13  C   UNL     1      11.216  12.917  17.183  0.00  0.00    +0.000 A 
ATOM     14  C   UNL     1      10.924  11.663  17.728  0.00  0.00    +0.000 A 
BRANCH  12  15
ATOM     15  O   UNL     1      10.654  15.178  16.809  0.00  0.00    +0.000 OA
ATOM     16  H   UNL     1      10.792  15.826  17.521  0.00  0.00    +0.000 HD
ENDBRANCH  12  15
ENDBRANCH   8   9
ENDBRANCH   4   7
BRANCH   1  17
ATOM     17  C   UNL     1       6.805   4.913  18.181  0.00  0.00    +0.000 C 
BRANCH  17  18
ATOM     18  C   UNL     1       5.497   4.619  18.912  0.00  0.00    +0.000 C 
BRANCH  18  19
ATOM     19  C   UNL     1       4.451   3.902  18.047  0.00  0.00    +0.000 C 
BRANCH  19  21
ATOM     20  C   UNL     1       2.929   2.002  17.918  0.00  0.00    +0.000 C 
ATOM     21  N   UNL     1       3.556   2.997  18.793  0.00  0.00    +0.000 NA
ATOM     22  C   UNL     1       4.304   2.314  19.853  0.00  0.00    +0.000 C 
ENDBRANCH  19  21
ENDBRANCH  18  19
ENDBRANCH  17  18
ENDBRANCH   1  17
TORSDOF 7
ENDMDL
MODEL 2
REMARK VINA RESULT:      -6.2      1.949      2.437
REMARK  Name = 
REMARK  9 active torsions:
REMARK  status: ('A' for Active; 'I' for Inactive)
REMARK    1  A    between atoms: C_1  and  N_2
REMARK    2  A    between atoms: N_2  and  C_3
REMARK    3  A    between atoms: N_2  and  C_4
REMARK    4  A    between atoms: C_4  and  C_5
REMARK    5  A    between atoms: C_5  and  C_6
REMARK    6  A    between atoms: C_6  and  N_7
REMARK    7  A    between atoms: N_10  and  N_11
REMARK    8  A    between atoms: C_12  and  C_13
REMARK    9  A    between atoms: C_16  and  O_17
REMARK                            x       y       z     vdW  Elec       q    Type
REMARK                         _______ _______ _______ _____ _____    ______ ____
ROOT
ATOM      1  N   UNL     1       7.241   6.006  16.410  0.00  0.00    +0.000 N 
ATOM      2  C   UNL     1       7.551   6.811  17.482  0.00  0.00    +0.000 C 
ATOM      3  O   UNL     1       7.602   6.384  18.632  0.00  0.00    +0.000 OA
ATOM      4  N   UNL     1       7.803   8.122  17.114  0.00  0.00    +0.000 N 
ATOM      5  H   UNL     1       7.208   6.386  15.477  0.00  0.00    +0.000 HD
ATOM      6  H   UNL     1       7.633   8.438  16.170  0.00  0.00    +0.000 HD
ENDROOT
BRANCH   4   7
ATOM      7  N   UNL     1       8.137   9.014  18.084  0.00  0.00    +0.000 NA
ATOM      8  C   UNL     1       8.735  10.101  17.723  0.00  0.00    +0.000 C 
BRANCH   8   9
ATOM      9  C   UNL     1       9.105  11.112  18.736  0.00  0.00    +0.000 A 
ATOM     10  C   UNL     1       9.059  12.476  18.414  0.00  0.00    +0.000 A 
ATOM     11  C   UNL     1       9.431  13.432  19.359  0.00  0.00    +0.000 A 
ATOM     12  C   UNL     1       9.846  13.017  20.620  0.00  0.00    +0.000 A 
ATOM     13  C   UNL     1       9.884  11.665  20.952  0.00  0.00    +0.000 A 
ATOM     14  C   UNL     1       9.512  10.704  20.008  0.00  0.00    +0.000 A 
BRANCH  12  15
ATOM     15  O   UNL     1      10.233  13.916  21.568  0.00  0.00    +0.000 OA
ATOM     16  H   UNL     1       9.463  14.459  21.810  0.00  0.00    +0.000 HD
ENDBRANCH  12  15
ENDBRANCH   8   9
ENDBRANCH   4   7
BRANCH   1  17
ATOM     17  C   UNL     1       6.941   4.600  16.593  0.00  0.00    +0.000 C 
BRANCH  17  18
ATOM     18  C   UNL     1       5.565   4.210  16.057  0.00  0.00    +0.000 C 
BRANCH  18  19
ATOM     19  C   UNL     1       4.412   4.532  17.017  0.00  0.00    +0.000 C 
BRANCH  19  21
ATOM     20  C   UNL     1       4.194   5.415  19.279  0.00  0.00    +0.000 C 
ATOM     21  N   UNL     1       4.731   4.336  18.444  0.00  0.00    +0.000 NA
ATOM     22  C   UNL     1       4.199   3.051  18.905  0.00  0.00    +0.000 C 
ENDBRANCH  19  21
ENDBRANCH  18  19
ENDBRANCH  17  18
ENDBRANCH   1  17
TORSDOF 7
ENDMDL
MODEL 3
REMARK VINA RESULT:      -6.1      2.934      9.909
REMARK  Name = 
REMARK  9 active torsions:
REMARK  status: ('A' for Active; 'I' for Inactive)
REMARK    1  A    between atoms: C_1  and  N_2
REMARK    2  A    between atoms: N_2  and  C_3
REMARK    3  A    between atoms: N_2  and  C_4
REMARK    4  A    between atoms: C_4  and  C_5
REMARK    5  A    between atoms: C_5  and  C_6
REMARK    6  A    between atoms: C_6  and  N_7
REMARK    7  A    between atoms: N_10  and  N_11
REMARK    8  A    between atoms: C_12  and  C_13
REMARK    9  A    between atoms: C_16  and  O_17
REMARK                            x       y       z     vdW  Elec       q    Type
REMARK                         _______ _______ _______ _____ _____    ______ ____
ROOT
ATOM      1  N   UNL     1       7.453   8.157  17.357  0.00  0.00    +0.000 N 
ATOM      2  C   UNL     1       6.750   7.019  17.679  0.00  0.00    +0.000 C 
ATOM      3  O   UNL     1       7.047   6.311  18.637  0.00  0.00    +0.000 OA
ATOM      4  N   UNL     1       5.690   6.782  16.819  0.00  0.00    +0.000 N 
ATOM      5  H   UNL     1       7.186   8.718  16.564  0.00  0.00    +0.000 HD
ATOM      6  H   UNL     1       5.567   7.334  15.983  0.00  0.00    +0.000 HD
ENDROOT
BRANCH   4   7
ATOM      7  N   UNL     1       4.907   5.694  17.042  0.00  0.00    +0.000 NA
ATOM      8  C   UNL     1       3.852   5.850  17.771  0.00  0.00    +0.000 C 
BRANCH   8   9
ATOM      9  C   UNL     1       2.956   4.703  18.029  0.00  0.00    +0.000 A 
ATOM     10  C   UNL     1       1.966   4.795  19.018  0.00  0.00    +0.000 A 
ATOM     11  C   UNL     1       1.136   3.707  19.283  0.00  0.00    +0.000 A 
ATOM     12  C   UNL     1       1.301   2.532  18.556  0.00  0.00    +0.000 A 
ATOM     13  C   UNL     1       2.273   2.435  17.563  0.00  0.00    +0.000 A 
ATOM     14  C   UNL     1       3.108   3.524  17.296  0.00  0.00    +0.000 A 
BRANCH  12  15
ATOM     15  O   UNL     1       0.521   1.440  18.791  0.00  0.00    +0.000 OA
ATOM     16  H   UNL     1       0.991   0.852  19.407  0.00  0.00    +0.000 HD
ENDBRANCH  12  15
ENDBRANCH   8   9
ENDBRANCH   4   7
BRANCH   1  17
ATOM     17  C   UNL     1       8.602   8.571  18.138  0.00  0.00    +0.000 C 
BRANCH  17  18
ATOM     18  C   UNL     1       8.724  10.089  18.258  0.00  0.00    +0.000 C 
BRANCH  18  19
ATOM     19  C   UNL     1       9.472  10.554  19.515  0.00  0.00    +0.000 C 
BRANCH  19  21
ATOM     20  C   UNL     1      11.422  11.906  20.075  0.00  0.00    +0.000 C 
ATOM     21  N   UNL     1      10.129  11.868  19.385  0.00  0.00    +0.000 NA
ATOM     22  C   UNL     1      10.321  12.195  17.969  0.00  0.00    +0.000 C 
ENDBRANCH  19  21
ENDBRANCH  18  19
ENDBRANCH  17  18
ENDBRANCH   1  17
TORSDOF 7
ENDMDL
MODEL 4
REMARK VINA RESULT:      -6.1      2.220      9.683
REMARK  Name = 
REMARK  9 active torsions:
REMARK  status: ('A' for Active; 'I' for Inactive)
REMARK    1  A    between atoms: C_1  and  N_2
REMARK    2  A    between atoms: N_2  and  C_3
REMARK    3  A    between atoms: N_2  and  C_4
REMARK    4  A    between atoms: C_4  and  C_5
REMARK    5  A    between atoms: C_5  and  C_6
REMARK    6  A    between atoms: C_6  and  N_7
REMARK    7  A    between atoms: N_10  and  N_11
REMARK    8  A    between atoms: C_12  and  C_13
REMARK    9  A    between atoms: C_16  and  O_17
REMARK                            x       y       z     vdW  Elec       q    Type
REMARK                         _______ _______ _______ _____ _____    ______ ____
ROOT
ATOM      1  N   UNL     1       8.876   8.649  18.698  0.00  0.00    +0.000 N 
ATOM      2  C   UNL     1       7.888   7.850  18.170  0.00  0.00    +0.000 C 
ATOM      3  O   UNL     1       7.110   8.249  17.308  0.00  0.00    +0.000 OA
ATOM      4  N   UNL     1       7.885   6.574  18.707  0.00  0.00    +0.000 N 
ATOM      5  H   UNL     1       9.500   8.293  19.405  0.00  0.00    +0.000 HD
ATOM      6  H   UNL     1       8.473   6.341  19.494  0.00  0.00    +0.000 HD
ENDROOT
BRANCH   4   7
ATOM      7  N   UNL     1       6.965   5.683  18.254  0.00  0.00    +0.000 NA
ATOM      8  C   UNL     1       6.083   5.247  19.092  0.00  0.00    +0.000 C 
BRANCH   8   9
ATOM      9  C   UNL     1       5.048   4.291  18.646  0.00  0.00    +0.000 A 
ATOM     10  C   UNL     1       4.460   4.434  17.381  0.00  0.00    +0.000 A 
ATOM     11  C   UNL     1       3.465   3.549  16.967  0.00  0.00    +0.000 A 
ATOM     12  C   UNL     1       3.066   2.525  17.820  0.00  0.00    +0.000 A 
ATOM     13  C   UNL     1       3.652   2.369  19.073  0.00  0.00    +0.000 A 
ATOM     14  C   UNL     1       4.649   3.254  19.493  0.00  0.00    +0.000 A 
BRANCH  12  15
ATOM     15  O   UNL     1       2.088   1.648  17.461  0.00  0.00    +0.000 OA
ATOM     16  H   UNL     1       2.336   1.238  16.615  0.00  0.00    +0.000 HD
ENDBRANCH  12  15
ENDBRANCH   8   9
ENDBRANCH   4   7
BRANCH   1  17
ATOM     17  C   UNL     1       9.037  10.023  18.265  0.00  0.00    +0.000 C 
BRANCH  17  18
ATOM     18  C   UNL     1       9.675  10.912  19.331  0.00  0.00    +0.000 C 
BRANCH  18  19
ATOM     19  C   UNL     1      10.701  11.909  18.775  0.00  0.00    +0.000 C 
BRANCH  19  21
ATOM     20  C   UNL     1       9.357  13.804  18.036  0.00  0.00    +0.000 C 
ATOM     21  N   UNL     1      10.225  12.697  17.622  0.00  0.00    +0.000 NA
ATOM     22  C   UNL     1      11.367  13.226  16.871  0.00  0.00    +0.000 C 
ENDBRANCH  19  21
ENDBRANCH  18  19
ENDBRANCH  17  18
ENDBRANCH   1  17
TORSDOF 7
ENDMDL
MODEL 5
REMARK VINA RESULT:      -6.1      1.194      1.831
REMARK  Name = 
REMARK  9 active torsions:
REMARK  status: ('A' for Active; 'I' for Inactive)
REMARK    1  A    between atoms: C_1  and  N_2
REMARK    2  A    between atoms: N_2  and  C_3
REMARK    3  A    between atoms: N_2  and  C_4
REMARK    4  A    between atoms: C_4  and  C_5
REMARK    5  A    between atoms: C_5  and  C_6
REMARK    6  A    between atoms: C_6  and  N_7
REMARK    7  A    between atoms: N_10  and  N_11
REMARK    8  A    between atoms: C_12  and  C_13
REMARK    9  A    between atoms: C_16  and  O_17
REMARK                            x       y       z     vdW  Elec       q    Type
REMARK                         _______ _______ _______ _____ _____    ______ ____
ROOT
ATOM      1  N   UNL     1       8.109   6.696  19.066  0.00  0.00    +0.000 N 
ATOM      2  C   UNL     1       8.240   7.854  18.336  0.00  0.00    +0.000 C 
ATOM      3  O   UNL     1       7.827   7.956  17.184  0.00  0.00    +0.000 OA
ATOM      4  N   UNL     1       8.867   8.867  19.043  0.00  0.00    +0.000 N 
ATOM      5  H   UNL     1       8.458   6.642  20.010  0.00  0.00    +0.000 HD
ATOM      6  H   UNL     1       9.287   8.687  19.943  0.00  0.00    +0.000 HD
ENDROOT
BRANCH   4   7
ATOM      7  N   UNL     1       9.041  10.069  18.435  0.00  0.00    +0.000 NA
ATOM      8  C   UNL     1      10.081  10.764  18.759  0.00  0.00    +0.000 C 
BRANCH   8   9
ATOM      9  C   UNL     1      10.327  12.071  18.114  0.00  0.00    +0.000 A 
ATOM     10  C   UNL     1      11.464  12.255  17.314  0.00  0.00    +0.000 A 
ATOM     11  C   UNL     1      11.713  13.494  16.725  0.00  0.00    +0.000 A 
ATOM     12  C   UNL     1      10.822  14.541  16.938  0.00  0.00    +0.000 A 
ATOM     13  C   UNL     1       9.684  14.364  17.722  0.00  0.00    +0.000 A 
ATOM     14  C   UNL     1       9.431  13.125  18.315  0.00  0.00    +0.000 A 
BRANCH  12  15
ATOM     15  O   UNL     1      11.035  15.772  16.393  0.00  0.00    +0.000 OA
ATOM     16  H   UNL     1      11.971  15.841  16.143  0.00  0.00    +0.000 HD
ENDBRANCH  12  15
ENDBRANCH   8   9
ENDBRANCH   4   7
BRANCH   1  17
ATOM     17  C   UNL     1       7.481   5.520  18.495  0.00  0.00    +0.000 C 
BRANCH  17  18
ATOM     18  C   UNL     1       6.120   5.212  19.117  0.00  0.00    +0.000 C 
BRANCH  18  19
ATOM     19  C   UNL     1       5.294   4.190  18.325  0.00  0.00    +0.000 C 
BRANCH  19  21
ATOM     20  C   UNL     1       3.109   4.256  19.405  0.00  0.00    +0.000 C 
ATOM     21  N   UNL     1       3.867   4.536  18.182  0.00  0.00    +0.000 NA
ATOM     22  C   UNL     1       3.728   5.953  17.835  0.00  0.00    +0.000 C 
ENDBRANCH  19  21
ENDBRANCH  18  19
ENDBRANCH  17  18
ENDBRANCH   1  17
TORSDOF 7
ENDMDL
MODEL 6
REMARK VINA RESULT:      -6.0      1.113      1.362
REMARK  Name = 
REMARK  9 active torsions:
REMARK  status: ('A' for Active; 'I' for Inactive)
REMARK    1  A    between atoms: C_1  and  N_2
REMARK    2  A    between atoms: N_2  and  C_3
REMARK    3  A    between atoms: N_2  and  C_4
REMARK    4  A    between atoms: C_4  and  C_5
REMARK    5  A    between atoms: C_5  and  C_6
REMARK    6  A    between atoms: C_6  and  N_7
REMARK    7  A    between atoms: N_10  and  N_11
REMARK    8  A    between atoms: C_12  and  C_13
REMARK    9  A    between atoms: C_16  and  O_17
REMARK                            x       y       z     vdW  Elec       q    Type
REMARK                         _______ _______ _______ _____ _____    ______ ____
ROOT
ATOM      1  N   UNL     1       7.996   6.636  18.970  0.00  0.00    +0.000 N 
ATOM      2  C   UNL     1       8.180   7.791  18.246  0.00  0.00    +0.000 C 
ATOM      3  O   UNL     1       7.828   7.896  17.074  0.00  0.00    +0.000 OA
ATOM      4  N   UNL     1       8.784   8.796  18.982  0.00  0.00    +0.000 N 
ATOM      5  H   UNL     1       8.295   6.580  19.931  0.00  0.00    +0.000 HD
ATOM      6  H   UNL     1       9.154   8.613  19.904  0.00  0.00    +0.000 HD
ENDROOT
BRANCH   4   7
ATOM      7  N   UNL     1       9.005   9.995  18.382  0.00  0.00    +0.000 NA
ATOM      8  C   UNL     1       9.936  10.749  18.866  0.00  0.00    +0.000 C 
BRANCH   8   9
ATOM      9  C   UNL     1      10.230  12.055  18.239  0.00  0.00    +0.000 A 
ATOM     10  C   UNL     1       9.389  13.152  18.477  0.00  0.00    +0.000 A 
ATOM     11  C   UNL     1       9.648  14.379  17.867  0.00  0.00    +0.000 A 
ATOM     12  C   UNL     1      10.748  14.501  17.024  0.00  0.00    +0.000 A 
ATOM     13  C   UNL     1      11.595  13.420  16.791  0.00  0.00    +0.000 A 
ATOM     14  C   UNL     1      11.338  12.189  17.399  0.00  0.00    +0.000 A 
BRANCH  12  15
ATOM     15  O   UNL     1      11.030  15.677  16.396  0.00  0.00    +0.000 OA
ATOM     16  H   UNL     1      11.952  15.916  16.588  0.00  0.00    +0.000 HD
ENDBRANCH  12  15
ENDBRANCH   8   9
ENDBRANCH   4   7
BRANCH   1  17
ATOM     17  C   UNL     1       7.382   5.467  18.370  0.00  0.00    +0.000 C 
BRANCH  17  18
ATOM     18  C   UNL     1       5.857   5.548  18.337  0.00  0.00    +0.000 C 
BRANCH  18  19
ATOM     19  C   UNL     1       5.158   4.347  18.988  0.00  0.00    +0.000 C 
BRANCH  19  21
ATOM     20  C   UNL     1       3.281   5.886  19.213  0.00  0.00    +0.000 C 
ATOM     21  N   UNL     1       3.935   4.685  19.741  0.00  0.00    +0.000 NA
ATOM     22  C   UNL     1       2.996   3.560  19.703  0.00  0.00    +0.000 C 
ENDBRANCH  19  21
ENDBRANCH  18  19
ENDBRANCH  17  18
ENDBRANCH   1  17
TORSDOF 7
ENDMDL
MODEL 7
REMARK VINA RESULT:      -6.0      2.836      9.838
REMARK  Name = 
REMARK  9 active torsions:
REMARK  status: ('A' for Active; 'I' for Inactive)
REMARK    1  A    between atoms: C_1  and  N_2
REMARK    2  A    between atoms: N_2  and  C_3
REMARK    3  A    between atoms: N_2  and  C_4
REMARK    4  A    between atoms: C_4  and  C_5
REMARK    5  A    between atoms: C_5  and  C_6
REMARK    6  A    between atoms: C_6  and  N_7
REMARK    7  A    between atoms: N_10  and  N_11
REMARK    8  A    between atoms: C_12  and  C_13
REMARK    9  A    between atoms: C_16  and  O_17
REMARK                            x       y       z     vdW  Elec       q    Type
REMARK                         _______ _______ _______ _____ _____    ______ ____
ROOT
ATOM      1  N   UNL     1       7.860   8.592  17.411  0.00  0.00    +0.000 N 
ATOM      2  C   UNL     1       7.217   7.408  17.691  0.00  0.00    +0.000 C 
ATOM      3  O   UNL     1       7.523   6.704  18.650  0.00  0.00    +0.000 OA
ATOM      4  N   UNL     1       6.204   7.122  16.791  0.00  0.00    +0.000 N 
ATOM      5  H   UNL     1       7.587   9.149  16.617  0.00  0.00    +0.000 HD
ATOM      6  H   UNL     1       6.077   7.679  15.959  0.00  0.00    +0.000 HD
ENDROOT
BRANCH   4   7
ATOM      7  N   UNL     1       5.481   5.985  16.971  0.00  0.00    +0.000 NA
ATOM      8  C   UNL     1       4.373   6.073  17.628  0.00  0.00    +0.000 C 
BRANCH   8   9
ATOM      9  C   UNL     1       3.539   4.870  17.836  0.00  0.00    +0.000 A 
ATOM     10  C   UNL     1       4.133   3.599  17.844  0.00  0.00    +0.000 A 
ATOM     11  C   UNL     1       3.347   2.460  18.014  0.00  0.00    +0.000 A 
ATOM     12  C   UNL     1       1.972   2.599  18.177  0.00  0.00    +0.000 A 
ATOM     13  C   UNL     1       1.376   3.858  18.182  0.00  0.00    +0.000 A 
ATOM     14  C   UNL     1       2.160   5.002  18.011  0.00  0.00    +0.000 A 
BRANCH  12  15
ATOM     15  O   UNL     1       1.165   1.512  18.332  0.00  0.00    +0.000 OA
ATOM     16  H   UNL     1       1.662   0.825  18.807  0.00  0.00    +0.000 HD
ENDBRANCH  12  15
ENDBRANCH   8   9
ENDBRANCH   4   7
BRANCH   1  17
ATOM     17  C   UNL     1       8.954   9.062  18.239  0.00  0.00    +0.000 C 
BRANCH  17  18
ATOM     18  C   UNL     1       8.976  10.582  18.388  0.00  0.00    +0.000 C 
BRANCH  18  19
ATOM     19  C   UNL     1      10.270  11.236  17.886  0.00  0.00    +0.000 C 
BRANCH  19  21
ATOM     20  C   UNL     1      11.739  13.030  18.637  0.00  0.00    +0.000 C 
ATOM     21  N   UNL     1      11.166  11.718  18.953  0.00  0.00    +0.000 NA
ATOM     22  C   UNL     1      10.437  11.797  20.222  0.00  0.00    +0.000 C 
ENDBRANCH  19  21
ENDBRANCH  18  19
ENDBRANCH  17  18
ENDBRANCH   1  17
TORSDOF 7
ENDMDL
MODEL 8
REMARK VINA RESULT:      -6.0      2.116      2.634
REMARK  Name = 
REMARK  9 active torsions:
REMARK  status: ('A' for Active; 'I' for Inactive)
REMARK    1  A    between atoms: C_1  and  N_2
REMARK    2  A    between atoms: N_2  and  C_3
REMARK    3  A    between atoms: N_2  and  C_4
REMARK    4  A    between atoms: C_4  and  C_5
REMARK    5  A    between atoms: C_5  and  C_6
REMARK    6  A    between atoms: C_6  and  N_7
REMARK    7  A    between atoms: N_10  and  N_11
REMARK    8  A    between atoms: C_12  and  C_13
REMARK    9  A    between atoms: C_16  and  O_17
REMARK                            x       y       z     vdW  Elec       q    Type
REMARK                         _______ _______ _______ _____ _____    ______ ____
ROOT
ATOM      1  N   UNL     1       7.327   6.213  16.598  0.00  0.00    +0.000 N 
ATOM      2  C   UNL     1       7.691   7.071  17.610  0.00  0.00    +0.000 C 
ATOM      3  O   UNL     1       8.013   6.673  18.727  0.00  0.00    +0.000 OA
ATOM      4  N   UNL     1       7.661   8.401  17.224  0.00  0.00    +0.000 N 
ATOM      5  H   UNL     1       7.068   6.570  15.692  0.00  0.00    +0.000 HD
ATOM      6  H   UNL     1       7.278   8.672  16.330  0.00  0.00    +0.000 HD
ENDROOT
BRANCH   4   7
ATOM      7  N   UNL     1       8.017   9.347  18.132  0.00  0.00    +0.000 NA
ATOM      8  C   UNL     1       8.940  10.187  17.797  0.00  0.00    +0.000 C 
BRANCH   8   9
ATOM      9  C   UNL     1       9.352  11.247  18.741  0.00  0.00    +0.000 A 
ATOM     10  C   UNL     1      10.010  10.909  19.932  0.00  0.00    +0.000 A 
ATOM     11  C   UNL     1      10.377  11.904  20.838  0.00  0.00    +0.000 A 
ATOM     12  C   UNL     1      10.084  13.232  20.545  0.00  0.00    +0.000 A 
ATOM     13  C   UNL     1       9.442  13.579  19.359  0.00  0.00    +0.000 A 
ATOM     14  C   UNL     1       9.071  12.585  18.449  0.00  0.00    +0.000 A 
BRANCH  12  15
ATOM     15  O   UNL     1      10.412  14.234  21.408  0.00  0.00    +0.000 OA
ATOM     16  H   UNL     1      10.424  15.073  20.916  0.00  0.00    +0.000 HD
ENDBRANCH  12  15
ENDBRANCH   8   9
ENDBRANCH   4   7
BRANCH   1  17
ATOM     17  C   UNL     1       7.292   4.779  16.811  0.00  0.00    +0.000 C 
BRANCH  17  18
ATOM     18  C   UNL     1       5.910   4.176  16.568  0.00  0.00    +0.000 C 
BRANCH  18  19
ATOM     19  C   UNL     1       4.770   5.202  16.607  0.00  0.00    +0.000 C 
BRANCH  19  21
ATOM     20  C   UNL     1       3.489   6.833  17.888  0.00  0.00    +0.000 C 
ATOM     21  N   UNL     1       4.559   5.832  17.924  0.00  0.00    +0.000 NA
ATOM     22  C   UNL     1       4.237   4.808  18.923  0.00  0.00    +0.000 C 
ENDBRANCH  19  21
ENDBRANCH  18  19
ENDBRANCH  17  18
ENDBRANCH   1  17
TORSDOF 7
ENDMDL
MODEL 9
REMARK VINA RESULT:      -6.0      1.671      2.237
REMARK  Name = 
REMARK  9 active torsions:
REMARK  status: ('A' for Active; 'I' for Inactive)
REMARK    1  A    between atoms: C_1  and  N_2
REMARK    2  A    between atoms: N_2  and  C_3
REMARK    3  A    between atoms: N_2  and  C_4
REMARK    4  A    between atoms: C_4  and  C_5
REMARK    5  A    between atoms: C_5  and  C_6
REMARK    6  A    between atoms: C_6  and  N_7
REMARK    7  A    between atoms: N_10  and  N_11
REMARK    8  A    between atoms: C_12  and  C_13
REMARK    9  A    between atoms: C_16  and  O_17
REMARK                            x       y       z     vdW  Elec       q    Type
REMARK                         _______ _______ _______ _____ _____    ______ ____
ROOT
ATOM      1  N   UNL     1       6.265   5.659  17.751  0.00  0.00    +0.000 N 
ATOM      2  C   UNL     1       7.319   6.390  18.249  0.00  0.00    +0.000 C 
ATOM      3  O   UNL     1       8.042   5.972  19.149  0.00  0.00    +0.000 OA
ATOM      4  N   UNL     1       7.467   7.616  17.621  0.00  0.00    +0.000 N 
ATOM      5  H   UNL     1       5.689   6.028  17.011  0.00  0.00    +0.000 HD
ATOM      6  H   UNL     1       6.773   7.951  16.969  0.00  0.00    +0.000 HD
ENDROOT
BRANCH   4   7
ATOM      7  N   UNL     1       8.485   8.425  18.013  0.00  0.00    +0.000 NA
ATOM      8  C   UNL     1       8.225   9.678  18.191  0.00  0.00    +0.000 C 
BRANCH   8   9
ATOM      9  C   UNL     1       9.293  10.599  18.635  0.00  0.00    +0.000 A 
ATOM     10  C   UNL     1      10.131  11.207  17.690  0.00  0.00    +0.000 A 
ATOM     11  C   UNL     1      11.156  12.056  18.106  0.00  0.00    +0.000 A 
ATOM     12  C   UNL     1      11.335  12.292  19.466  0.00  0.00    +0.000 A 
ATOM     13  C   UNL     1      10.500  11.701  20.411  0.00  0.00    +0.000 A 
ATOM     14  C   UNL     1       9.472  10.849  19.998  0.00  0.00    +0.000 A 
BRANCH  12  15
ATOM     15  O   UNL     1      12.333  13.103  19.917  0.00  0.00    +0.000 OA
ATOM     16  H   UNL     1      12.437  12.961  20.873  0.00  0.00    +0.000 HD
ENDBRANCH  12  15
ENDBRANCH   8   9
ENDBRANCH   4   7
BRANCH   1  17
ATOM     17  C   UNL     1       5.946   4.349  18.284  0.00  0.00    +0.000 C 
BRANCH  17  18
ATOM     18  C   UNL     1       4.443   4.103  18.398  0.00  0.00    +0.000 C 
BRANCH  18  19
ATOM     19  C   UNL     1       4.075   2.921  19.305  0.00  0.00    +0.000 C 
BRANCH  19  21
ATOM     20  C   UNL     1       1.773   2.293  19.806  0.00  0.00    +0.000 C 
ATOM     21  N   UNL     1       2.891   2.159  18.866  0.00  0.00    +0.000 NA
ATOM     22  C   UNL     1       2.468   2.611  17.537  0.00  0.00    +0.000 C 
ENDBRANCH  19  21
ENDBRANCH  18  19
ENDBRANCH  17  18
ENDBRANCH   1  17
TORSDOF 7
ENDMDL
