MODEL 1
REMARK VINA RESULT:      -7.0      0.000      0.000
REMARK  Name = 
REMARK  9 active torsions:
REMARK  status: ('A' for Active; 'I' for Inactive)
REMARK    1  A    between atoms: C_1  and  C_2
REMARK    2  A    between atoms: C_2  and  O_3
REMARK    3  A    between atoms: O_3  and  C_4
REMARK    4  A    between atoms: C_7  and  N_8
REMARK    5  A    between atoms: C_10  and  C_11
REMARK    6  A    between atoms: N_12  and  O_13
REMARK    7  A    between atoms: N_14  and  C_15
REMARK    8  A    between atoms: C_16  and  S_17
REMARK    9  A    between atoms: S_17  and  C_18
REMARK                            x       y       z     vdW  Elec       q    Type
REMARK                         _______ _______ _______ _____ _____    ______ ____
ROOT
ATOM      1  N   UNL     1       3.238   6.258  18.937  0.00  0.00    +0.000 N 
ATOM      2  C   UNL     1       4.306   6.137  18.114  0.00  0.00    +0.000 A 
ATOM      3  C   UNL     1       4.885   4.899  18.305  0.00  0.00    +0.000 A 
ATOM      4  N   UNL     1       4.158   4.229  19.228  0.00  0.00    +0.000 N 
ATOM      5  C   UNL     1       4.372   2.879  19.748  0.00  0.00    +0.000 C 
ATOM      6  C   UNL     1       3.168   5.074  19.611  0.00  0.00    +0.000 A 
ENDROOT
BRANCH   1  10
ATOM      7  C   UNL     1       0.824   9.791  19.184  0.00  0.00    +0.000 A 
ATOM      8  C   UNL     1       1.430   9.426  17.982  0.00  0.00    +0.000 A 
ATOM      9  C   UNL     1       2.222   8.272  17.904  0.00  0.00    +0.000 A 
ATOM     10  C   UNL     1       2.417   7.450  19.032  0.00  0.00    +0.000 A 
ATOM     11  C   UNL     1       1.815   7.838  20.244  0.00  0.00    +0.000 A 
ATOM     12  C   UNL     1       1.030   8.989  20.320  0.00  0.00    +0.000 A 
BRANCH   7  13
ATOM     13  O   UNL     1       0.058  10.913  19.209  0.00  0.00    +0.000 OA
BRANCH  13  15
ATOM     14  C   UNL     1      -1.982  10.130  18.271  0.00  0.00    +0.000 C 
ATOM     15  C   UNL     1      -0.929  11.227  18.293  0.00  0.00    +0.000 C 
ENDBRANCH  13  15
ENDBRANCH   7  13
ENDBRANCH   1  10
BRANCH   3  16
ATOM     16  C   UNL     1       6.122   4.420  17.646  0.00  0.00    +0.000 C 
ATOM     17  N   UNL     1       7.256   4.514  18.245  0.00  0.00    +0.000 NA
BRANCH  17  18
ATOM     18  O   UNL     1       8.349   4.048  17.679  0.00  0.00    +0.000 OA
ATOM     19  H   UNL     1       8.560   3.106  17.729  0.00  0.00    +0.000 HD
ENDBRANCH  17  18
ENDBRANCH   3  16
BRANCH   6  20
ATOM     20  S   UNL     1       1.959   4.623  20.887  0.00  0.00    +0.000 S 
ATOM     21  C   UNL     1       0.858   3.583  19.872  0.00  0.00    +0.000 C 
ENDBRANCH   6  20
TORSDOF 6
ENDMDL
MODEL 2
REMARK VINA RESULT:      -6.9      0.134      1.087
REMARK  Name = 
REMARK  9 active torsions:
REMARK  status: ('A' for Active; 'I' for Inactive)
REMARK    1  A    between atoms: C_1  and  C_2
REMARK    2  A    between atoms: C_2  and  O_3
REMARK    3  A    between atoms: O_3  and  C_4
REMARK    4  A    between atoms: C_7  and  N_8
REMARK    5  A    between atoms: C_10  and  C_11
REMARK    6  A    between atoms: N_12  and  O_13
REMARK    7  A    between atoms: N_14  and  C_15
REMARK    8  A    between atoms: C_16  and  S_17
REMARK    9  A    between atoms: S_17  and  C_18
REMARK                            x       y       z     vdW  Elec       q    Type
REMARK                         _______ _______ _______ _____ _____    ______ ____
ROOT
ATOM      1  N   UNL     1       3.261   6.202  18.954  0.00  0.00    +0.000 N 
ATOM      2  C   UNL     1       4.335   6.097  18.136  0.00  0.00    +0.000 A 
ATOM      3  C   UNL     1       4.921   4.862  18.318  0.00  0.00    +0.000 A 
ATOM      4  N   UNL     1       4.194   4.177  19.230  0.00  0.00    +0.000 N 
ATOM      5  C   UNL     1       4.415   2.824  19.738  0.00  0.00    +0.000 C 
ATOM      6  C   UNL     1       3.196   5.011  19.616  0.00  0.00    +0.000 A 
ENDROOT
BRANCH   1  10
ATOM      7  C   UNL     1       0.799   9.695  19.293  0.00  0.00    +0.000 A 
ATOM      8  C   UNL     1       1.055   8.895  20.406  0.00  0.00    +0.000 A 
ATOM      9  C   UNL     1       1.858   7.751  20.293  0.00  0.00    +0.000 A 
ATOM     10  C   UNL     1       2.431   7.388  19.057  0.00  0.00    +0.000 A 
ATOM     11  C   UNL     1       2.150   8.193  17.936  0.00  0.00    +0.000 A 
ATOM     12  C   UNL     1       1.349   9.329  18.051  0.00  0.00    +0.000 A 
BRANCH   7  13
ATOM     13  O   UNL     1       0.023  10.799  19.453  0.00  0.00    +0.000 OA
BRANCH  13  15
ATOM     14  C   UNL     1      -1.992  10.430  18.246  0.00  0.00    +0.000 C 
ATOM     15  C   UNL     1      -0.801  11.343  18.484  0.00  0.00    +0.000 C 
ENDBRANCH  13  15
ENDBRANCH   7  13
ENDBRANCH   1  10
BRANCH   3  16
ATOM     16  C   UNL     1       6.165   4.398  17.661  0.00  0.00    +0.000 C 
ATOM     17  N   UNL     1       7.296   4.498  18.265  0.00  0.00    +0.000 NA
BRANCH  17  18
ATOM     18  O   UNL     1       8.396   4.046  17.701  0.00  0.00    +0.000 OA
ATOM     19  H   UNL     1       9.244   4.128  18.155  0.00  0.00    +0.000 HD
ENDBRANCH  17  18
ENDBRANCH   3  16
BRANCH   6  20
ATOM     20  S   UNL     1       1.983   4.539  20.881  0.00  0.00    +0.000 S 
ATOM     21  C   UNL     1       0.857   3.559  19.834  0.00  0.00    +0.000 C 
ENDBRANCH   6  20
TORSDOF 6
ENDMDL
MODEL 3
REMARK VINA RESULT:      -6.7      1.196      1.315
REMARK  Name = 
REMARK  9 active torsions:
REMARK  status: ('A' for Active; 'I' for Inactive)
REMARK    1  A    between atoms: C_1  and  C_2
REMARK    2  A    between atoms: C_2  and  O_3
REMARK    3  A    between atoms: O_3  and  C_4
REMARK    4  A    between atoms: C_7  and  N_8
REMARK    5  A    between atoms: C_10  and  C_11
REMARK    6  A    between atoms: N_12  and  O_13
REMARK    7  A    between atoms: N_14  and  C_15
REMARK    8  A    between atoms: C_16  and  S_17
REMARK    9  A    between atoms: S_17  and  C_18
REMARK                            x       y       z     vdW  Elec       q    Type
REMARK                         _______ _______ _______ _____ _____    ______ ____
ROOT
ATOM      1  N   UNL     1       3.119   6.049  18.668  0.00  0.00    +0.000 N 
ATOM      2  C   UNL     1       4.341   6.027  18.086  0.00  0.00    +0.000 A 
ATOM      3  C   UNL     1       4.758   4.718  17.962  0.00  0.00    +0.000 A 
ATOM      4  N   UNL     1       3.781   3.914  18.438  0.00  0.00    +0.000 N 
ATOM      5  C   UNL     1       3.757   2.453  18.504  0.00  0.00    +0.000 C 
ATOM      6  C   UNL     1       2.796   4.740  18.875  0.00  0.00    +0.000 A 
ENDROOT
BRANCH   1  10
ATOM      7  C   UNL     1       0.990   9.653  19.591  0.00  0.00    +0.000 A 
ATOM      8  C   UNL     1       1.469   9.420  18.303  0.00  0.00    +0.000 A 
ATOM      9  C   UNL     1       2.168   8.243  18.003  0.00  0.00    +0.000 A 
ATOM     10  C   UNL     1       2.395   7.264  18.992  0.00  0.00    +0.000 A 
ATOM     11  C   UNL     1       1.922   7.517  20.293  0.00  0.00    +0.000 A 
ATOM     12  C   UNL     1       1.228   8.692  20.590  0.00  0.00    +0.000 A 
BRANCH   7  13
ATOM     13  O   UNL     1       0.310  10.804  19.832  0.00  0.00    +0.000 OA
BRANCH  13  15
ATOM     14  C   UNL     1      -0.445  11.703  21.900  0.00  0.00    +0.000 C 
ATOM     15  C   UNL     1      -0.801  10.920  20.647  0.00  0.00    +0.000 C 
ENDBRANCH  13  15
ENDBRANCH   7  13
ENDBRANCH   1  10
BRANCH   3  16
ATOM     16  C   UNL     1       6.077   4.284  17.443  0.00  0.00    +0.000 C 
ATOM     17  N   UNL     1       7.145   4.497  18.125  0.00  0.00    +0.000 NA
BRANCH  17  18
ATOM     18  O   UNL     1       8.311   4.072  17.687  0.00  0.00    +0.000 OA
ATOM     19  H   UNL     1       8.880   4.658  17.170  0.00  0.00    +0.000 HD
ENDBRANCH  17  18
ENDBRANCH   3  16
BRANCH   6  20
ATOM     20  S   UNL     1       1.284   4.105  19.653  0.00  0.00    +0.000 S 
ATOM     21  C   UNL     1       1.925   3.852  21.340  0.00  0.00    +0.000 C 
ENDBRANCH   6  20
TORSDOF 6
ENDMDL
MODEL 4
REMARK VINA RESULT:      -6.7      1.178      1.811
REMARK  Name = 
REMARK  9 active torsions:
REMARK  status: ('A' for Active; 'I' for Inactive)
REMARK    1  A    between atoms: C_1  and  C_2
REMARK    2  A    between atoms: C_2  and  O_3
REMARK    3  A    between atoms: O_3  and  C_4
REMARK    4  A    between atoms: C_7  and  N_8
REMARK    5  A    between atoms: C_10  and  C_11
REMARK    6  A    between atoms: N_12  and  O_13
REMARK    7  A    between atoms: N_14  and  C_15
REMARK    8  A    between atoms: C_16  and  S_17
REMARK    9  A    between atoms: S_17  and  C_18
REMARK                            x       y       z     vdW  Elec       q    Type
REMARK                         _______ _______ _______ _____ _____    ______ ____
ROOT
ATOM      1  N   UNL     1       3.166   6.267  18.530  0.00  0.00    +0.000 N 
ATOM      2  C   UNL     1       4.391   6.299  17.953  0.00  0.00    +0.000 A 
ATOM      3  C   UNL     1       4.875   5.011  17.850  0.00  0.00    +0.000 A 
ATOM      4  N   UNL     1       3.937   4.165  18.334  0.00  0.00    +0.000 N 
ATOM      5  C   UNL     1       3.988   2.706  18.423  0.00  0.00    +0.000 C 
ATOM      6  C   UNL     1       2.910   4.946  18.755  0.00  0.00    +0.000 A 
ENDROOT
BRANCH   1  10
ATOM      7  C   UNL     1       0.835   9.741  19.460  0.00  0.00    +0.000 A 
ATOM      8  C   UNL     1       1.161   8.818  20.452  0.00  0.00    +0.000 A 
ATOM      9  C   UNL     1       1.921   7.680  20.146  0.00  0.00    +0.000 A 
ATOM     10  C   UNL     1       2.380   7.447  18.833  0.00  0.00    +0.000 A 
ATOM     11  C   UNL     1       2.029   8.378  17.837  0.00  0.00    +0.000 A 
ATOM     12  C   UNL     1       1.271   9.508  18.144  0.00  0.00    +0.000 A 
BRANCH   7  13
ATOM     13  O   UNL     1       0.105  10.834  19.807  0.00  0.00    +0.000 OA
BRANCH  13  15
ATOM     14  C   UNL     1       1.444  12.658  20.536  0.00  0.00    +0.000 C 
ATOM     15  C   UNL     1       0.360  11.654  20.891  0.00  0.00    +0.000 C 
ENDBRANCH  13  15
ENDBRANCH   7  13
ENDBRANCH   1  10
BRANCH   3  16
ATOM     16  C   UNL     1       6.216   4.637  17.343  0.00  0.00    +0.000 C 
ATOM     17  N   UNL     1       7.184   4.423  18.162  0.00  0.00    +0.000 NA
BRANCH  17  18
ATOM     18  O   UNL     1       8.363   4.047  17.716  0.00  0.00    +0.000 OA
ATOM     19  H   UNL     1       8.543   4.035  16.767  0.00  0.00    +0.000 HD
ENDBRANCH  17  18
ENDBRANCH   3  16
BRANCH   6  20
ATOM     20  S   UNL     1       1.429   4.247  19.537  0.00  0.00    +0.000 S 
ATOM     21  C   UNL     1       2.060   4.091  21.240  0.00  0.00    +0.000 C 
ENDBRANCH   6  20
TORSDOF 6
ENDMDL
MODEL 5
REMARK VINA RESULT:      -6.6      1.917      2.152
REMARK  Name = 
REMARK  9 active torsions:
REMARK  status: ('A' for Active; 'I' for Inactive)
REMARK    1  A    between atoms: C_1  and  C_2
REMARK    2  A    between atoms: C_2  and  O_3
REMARK    3  A    between atoms: O_3  and  C_4
REMARK    4  A    between atoms: C_7  and  N_8
REMARK    5  A    between atoms: C_10  and  C_11
REMARK    6  A    between atoms: N_12  and  O_13
REMARK    7  A    between atoms: N_14  and  C_15
REMARK    8  A    between atoms: C_16  and  S_17
REMARK    9  A    between atoms: S_17  and  C_18
REMARK                            x       y       z     vdW  Elec       q    Type
REMARK                         _______ _______ _______ _____ _____    ______ ____
ROOT
ATOM      1  N   UNL     1       3.273   6.672  17.992  0.00  0.00    +0.000 N 
ATOM      2  C   UNL     1       4.459   6.986  17.418  0.00  0.00    +0.000 A 
ATOM      3  C   UNL     1       5.059   5.831  16.962  0.00  0.00    +0.000 A 
ATOM      4  N   UNL     1       4.232   4.792  17.221  0.00  0.00    +0.000 N 
ATOM      5  C   UNL     1       4.427   3.376  16.912  0.00  0.00    +0.000 C 
ATOM      6  C   UNL     1       3.156   5.320  17.859  0.00  0.00    +0.000 A 
ENDROOT
BRANCH   1  10
ATOM      7  C   UNL     1       0.673   9.553  19.811  0.00  0.00    +0.000 A 
ATOM      8  C   UNL     1       0.988   9.636  18.456  0.00  0.00    +0.000 A 
ATOM      9  C   UNL     1       1.840   8.695  17.863  0.00  0.00    +0.000 A 
ATOM     10  C   UNL     1       2.392   7.640  18.618  0.00  0.00    +0.000 A 
ATOM     11  C   UNL     1       2.082   7.578  19.990  0.00  0.00    +0.000 A 
ATOM     12  C   UNL     1       1.235   8.517  20.579  0.00  0.00    +0.000 A 
BRANCH   7  13
ATOM     13  O   UNL     1      -0.166  10.483  20.340  0.00  0.00    +0.000 OA
BRANCH  13  15
ATOM     14  C   UNL     1      -0.725  10.807  22.628  0.00  0.00    +0.000 C 
ATOM     15  C   UNL     1       0.108  11.269  21.444  0.00  0.00    +0.000 C 
ENDBRANCH  13  15
ENDBRANCH   7  13
ENDBRANCH   1  10
BRANCH   3  16
ATOM     16  C   UNL     1       6.403   5.749  16.344  0.00  0.00    +0.000 C 
ATOM     17  N   UNL     1       6.526   5.525  15.084  0.00  0.00    +0.000 NA
BRANCH  17  18
ATOM     18  O   UNL     1       7.717   5.497  14.525  0.00  0.00    +0.000 OA
ATOM     19  H   UNL     1       7.870   4.965  13.733  0.00  0.00    +0.000 HD
ENDBRANCH  17  18
ENDBRANCH   3  16
BRANCH   6  20
ATOM     20  S   UNL     1       1.790   4.285  18.455  0.00  0.00    +0.000 S 
ATOM     21  C   UNL     1       2.474   3.832  20.083  0.00  0.00    +0.000 C 
ENDBRANCH   6  20
TORSDOF 6
ENDMDL
MODEL 6
REMARK VINA RESULT:      -6.6      1.843      2.281
REMARK  Name = 
REMARK  9 active torsions:
REMARK  status: ('A' for Active; 'I' for Inactive)
REMARK    1  A    between atoms: C_1  and  C_2
REMARK    2  A    between atoms: C_2  and  O_3
REMARK    3  A    between atoms: O_3  and  C_4
REMARK    4  A    between atoms: C_7  and  N_8
REMARK    5  A    between atoms: C_10  and  C_11
REMARK    6  A    between atoms: N_12  and  O_13
REMARK    7  A    between atoms: N_14  and  C_15
REMARK    8  A    between atoms: C_16  and  S_17
REMARK    9  A    between atoms: S_17  and  C_18
REMARK                            x       y       z     vdW  Elec       q    Type
REMARK                         _______ _______ _______ _____ _____    ______ ____
ROOT
ATOM      1  N   UNL     1       3.242   6.571  18.045  0.00  0.00    +0.000 N 
ATOM      2  C   UNL     1       4.430   6.794  17.433  0.00  0.00    +0.000 A 
ATOM      3  C   UNL     1       4.990   5.585  17.080  0.00  0.00    +0.000 A 
ATOM      4  N   UNL     1       4.137   4.600  17.442  0.00  0.00    +0.000 N 
ATOM      5  C   UNL     1       4.286   3.156  17.264  0.00  0.00    +0.000 C 
ATOM      6  C   UNL     1       3.085   5.216  18.039  0.00  0.00    +0.000 A 
ENDROOT
BRANCH   1  10
ATOM      7  C   UNL     1       0.746   9.647  19.681  0.00  0.00    +0.000 A 
ATOM      8  C   UNL     1       1.243   8.629  20.493  0.00  0.00    +0.000 A 
ATOM      9  C   UNL     1       2.057   7.622  19.956  0.00  0.00    +0.000 A 
ATOM     10  C   UNL     1       2.398   7.619  18.587  0.00  0.00    +0.000 A 
ATOM     11  C   UNL     1       1.875   8.642  17.774  0.00  0.00    +0.000 A 
ATOM     12  C   UNL     1       1.063   9.642  18.311  0.00  0.00    +0.000 A 
BRANCH   7  13
ATOM     13  O   UNL     1      -0.031  10.607  20.248  0.00  0.00    +0.000 OA
BRANCH  13  15
ATOM     14  C   UNL     1      -0.806  10.986  22.463  0.00  0.00    +0.000 C 
ATOM     15  C   UNL     1       0.259  11.279  21.421  0.00  0.00    +0.000 C 
ENDBRANCH  13  15
ENDBRANCH   7  13
ENDBRANCH   1  10
BRANCH   3  16
ATOM     16  C   UNL     1       6.324   5.405  16.459  0.00  0.00    +0.000 C 
ATOM     17  N   UNL     1       6.492   5.632  15.205  0.00  0.00    +0.000 NA
BRANCH  17  18
ATOM     18  O   UNL     1       7.685   5.517  14.661  0.00  0.00    +0.000 OA
ATOM     19  H   UNL     1       7.860   4.819  14.017  0.00  0.00    +0.000 HD
ENDBRANCH  17  18
ENDBRANCH   3  16
BRANCH   6  20
ATOM     20  S   UNL     1       1.696   4.283  18.742  0.00  0.00    +0.000 S 
ATOM     21  C   UNL     1       2.394   3.947  20.392  0.00  0.00    +0.000 C 
ENDBRANCH   6  20
TORSDOF 6
ENDMDL
MODEL 7
REMARK VINA RESULT:      -6.5      1.513      1.513
REMARK  Name = 
REMARK  9 active torsions:
REMARK  status: ('A' for Active; 'I' for Inactive)
REMARK    1  A    between atoms: C_1  and  C_2
REMARK    2  A    between atoms: C_2  and  O_3
REMARK    3  A    between atoms: O_3  and  C_4
REMARK    4  A    between atoms: C_7  and  N_8
REMARK    5  A    between atoms: C_10  and  C_11
REMARK    6  A    between atoms: N_12  and  O_13
REMARK    7  A    between atoms: N_14  and  C_15
REMARK    8  A    between atoms: C_16  and  S_17
REMARK    9  A    between atoms: S_17  and  C_18
REMARK                            x       y       z     vdW  Elec       q    Type
REMARK                         _______ _______ _______ _____ _____    ______ ____
ROOT
ATOM      1  N   UNL     1       3.129   6.404  18.152  0.00  0.00    +0.000 N 
ATOM      2  C   UNL     1       4.284   6.532  17.456  0.00  0.00    +0.000 A 
ATOM      3  C   UNL     1       4.788   5.278  17.182  0.00  0.00    +0.000 A 
ATOM      4  N   UNL     1       3.929   4.358  17.678  0.00  0.00    +0.000 N 
ATOM      5  C   UNL     1       4.026   2.900  17.621  0.00  0.00    +0.000 C 
ATOM      6  C   UNL     1       2.933   5.060  18.275  0.00  0.00    +0.000 A 
ENDROOT
BRANCH   1  10
ATOM      7  C   UNL     1       0.830   9.729  19.577  0.00  0.00    +0.000 A 
ATOM      8  C   UNL     1       1.186   9.634  18.232  0.00  0.00    +0.000 A 
ATOM      9  C   UNL     1       1.940   8.548  17.768  0.00  0.00    +0.000 A 
ATOM     10  C   UNL     1       2.350   7.523  18.645  0.00  0.00    +0.000 A 
ATOM     11  C   UNL     1       2.001   7.639  20.004  0.00  0.00    +0.000 A 
ATOM     12  C   UNL     1       1.251   8.722  20.464  0.00  0.00    +0.000 A 
BRANCH   7  13
ATOM     13  O   UNL     1       0.090  10.795  19.979  0.00  0.00    +0.000 OA
BRANCH  13  15
ATOM     14  C   UNL     1      -1.927  11.726  19.131  0.00  0.00    +0.000 C 
ATOM     15  C   UNL     1      -0.408  11.781  19.146  0.00  0.00    +0.000 C 
ENDBRANCH  13  15
ENDBRANCH   7  13
ENDBRANCH   1  10
BRANCH   3  16
ATOM     16  C   UNL     1       6.076   5.000  16.505  0.00  0.00    +0.000 C 
ATOM     17  N   UNL     1       6.449   5.711  15.501  0.00  0.00    +0.000 NA
BRANCH  17  18
ATOM     18  O   UNL     1       7.614   5.494  14.927  0.00  0.00    +0.000 OA
ATOM     19  H   UNL     1       7.903   6.047  14.190  0.00  0.00    +0.000 HD
ENDBRANCH  17  18
ENDBRANCH   3  16
BRANCH   6  20
ATOM     20  S   UNL     1       1.562   4.240  19.136  0.00  0.00    +0.000 S 
ATOM     21  C   UNL     1       2.325   4.077  20.783  0.00  0.00    +0.000 C 
ENDBRANCH   6  20
TORSDOF 6
ENDMDL
MODEL 8
REMARK VINA RESULT:      -6.4      2.836      6.576
REMARK  Name = 
REMARK  9 active torsions:
REMARK  status: ('A' for Active; 'I' for Inactive)
REMARK    1  A    between atoms: C_1  and  C_2
REMARK    2  A    between atoms: C_2  and  O_3
REMARK    3  A    between atoms: O_3  and  C_4
REMARK    4  A    between atoms: C_7  and  N_8
REMARK    5  A    between atoms: C_10  and  C_11
REMARK    6  A    between atoms: N_12  and  O_13
REMARK    7  A    between atoms: N_14  and  C_15
REMARK    8  A    between atoms: C_16  and  S_17
REMARK    9  A    between atoms: S_17  and  C_18
REMARK                            x       y       z     vdW  Elec       q    Type
REMARK                         _______ _______ _______ _____ _____    ______ ____
ROOT
ATOM      1  N   UNL     1       4.033   5.150  18.809  0.00  0.00    +0.000 N 
ATOM      2  C   UNL     1       3.333   6.241  19.201  0.00  0.00    +0.000 A 
ATOM      3  C   UNL     1       2.478   5.885  20.222  0.00  0.00    +0.000 A 
ATOM      4  N   UNL     1       2.664   4.574  20.495  0.00  0.00    +0.000 N 
ATOM      5  C   UNL     1       1.998   3.751  21.504  0.00  0.00    +0.000 C 
ATOM      6  C   UNL     1       3.604   4.139  19.618  0.00  0.00    +0.000 A 
ENDROOT
BRANCH   1  10
ATOM      7  C   UNL     1       6.850   5.159  15.578  0.00  0.00    +0.000 A 
ATOM      8  C   UNL     1       5.579   5.709  15.415  0.00  0.00    +0.000 A 
ATOM      9  C   UNL     1       4.658   5.703  16.472  0.00  0.00    +0.000 A 
ATOM     10  C   UNL     1       4.996   5.149  17.724  0.00  0.00    +0.000 A 
ATOM     11  C   UNL     1       6.275   4.580  17.871  0.00  0.00    +0.000 A 
ATOM     12  C   UNL     1       7.189   4.585  16.816  0.00  0.00    +0.000 A 
BRANCH   7  13
ATOM     13  O   UNL     1       7.712   5.197  14.529  0.00  0.00    +0.000 OA
BRANCH  13  15
ATOM     14  C   UNL     1       6.528   3.767  13.043  0.00  0.00    +0.000 C 
ATOM     15  C   UNL     1       7.362   5.027  13.201  0.00  0.00    +0.000 C 
ENDBRANCH  13  15
ENDBRANCH   7  13
ENDBRANCH   1  10
BRANCH   3  16
ATOM     16  C   UNL     1       1.490   6.783  20.866  0.00  0.00    +0.000 C 
ATOM     17  N   UNL     1       1.458   8.033  20.568  0.00  0.00    +0.000 NA
BRANCH  17  18
ATOM     18  O   UNL     1       0.552   8.823  21.106  0.00  0.00    +0.000 OA
ATOM     19  H   UNL     1       0.823   9.604  21.605  0.00  0.00    +0.000 HD
ENDBRANCH  17  18
ENDBRANCH   3  16
BRANCH   6  20
ATOM     20  S   UNL     1       4.148   2.408  19.571  0.00  0.00    +0.000 S 
ATOM     21  C   UNL     1       3.192   1.856  18.121  0.00  0.00    +0.000 C 
ENDBRANCH   6  20
TORSDOF 6
ENDMDL
MODEL 9
REMARK VINA RESULT:      -6.4      1.098      1.645
REMARK  Name = 
REMARK  9 active torsions:
REMARK  status: ('A' for Active; 'I' for Inactive)
REMARK    1  A    between atoms: C_1  and  C_2
REMARK    2  A    between atoms: C_2  and  O_3
REMARK    3  A    between atoms: O_3  and  C_4
REMARK    4  A    between atoms: C_7  and  N_8
REMARK    5  A    between atoms: C_10  and  C_11
REMARK    6  A    between atoms: N_12  and  O_13
REMARK    7  A    between atoms: N_14  and  C_15
REMARK    8  A    between atoms: C_16  and  S_17
REMARK    9  A    between atoms: S_17  and  C_18
REMARK                            x       y       z     vdW  Elec       q    Type
REMARK                         _______ _______ _______ _____ _____    ______ ____
ROOT
ATOM      1  N   UNL     1       3.168   6.640  18.651  0.00  0.00    +0.000 N 
ATOM      2  C   UNL     1       4.136   6.631  17.703  0.00  0.00    +0.000 A 
ATOM      3  C   UNL     1       4.835   5.445  17.785  0.00  0.00    +0.000 A 
ATOM      4  N   UNL     1       4.284   4.694  18.766  0.00  0.00    +0.000 N 
ATOM      5  C   UNL     1       4.672   3.357  19.214  0.00  0.00    +0.000 C 
ATOM      6  C   UNL     1       3.280   5.441  19.290  0.00  0.00    +0.000 A 
ENDROOT
BRANCH   1  10
ATOM      7  C   UNL     1       0.501   9.919  19.366  0.00  0.00    +0.000 A 
ATOM      8  C   UNL     1       0.924   9.104  20.415  0.00  0.00    +0.000 A 
ATOM      9  C   UNL     1       1.793   8.031  20.180  0.00  0.00    +0.000 A 
ATOM     10  C   UNL     1       2.267   7.754  18.881  0.00  0.00    +0.000 A 
ATOM     11  C   UNL     1       1.820   8.572  17.826  0.00  0.00    +0.000 A 
ATOM     12  C   UNL     1       0.952   9.639  18.063  0.00  0.00    +0.000 A 
BRANCH   7  13
ATOM     13  O   UNL     1      -0.335  10.953  19.644  0.00  0.00    +0.000 OA
BRANCH  13  15
ATOM     14  C   UNL     1      -0.546  13.008  18.468  0.00  0.00    +0.000 C 
ATOM     15  C   UNL     1      -1.114  11.622  18.718  0.00  0.00    +0.000 C 
ENDBRANCH  13  15
ENDBRANCH   7  13
ENDBRANCH   1  10
BRANCH   3  16
ATOM     16  C   UNL     1       6.020   5.090  16.969  0.00  0.00    +0.000 C 
ATOM     17  N   UNL     1       6.489   5.922  16.109  0.00  0.00    +0.000 NA
BRANCH  17  18
ATOM     18  O   UNL     1       7.568   5.626  15.415  0.00  0.00    +0.000 OA
ATOM     19  H   UNL     1       8.181   4.951  15.734  0.00  0.00    +0.000 HD
ENDBRANCH  17  18
ENDBRANCH   3  16
BRANCH   6  20
ATOM     20  S   UNL     1       2.276   4.858  20.686  0.00  0.00    +0.000 S 
ATOM     21  C   UNL     1       1.076   3.845  19.761  0.00  0.00    +0.000 C 
ENDBRANCH   6  20
TORSDOF 6
ENDMDL
