MODEL 1
REMARK VINA RESULT:      -8.4      0.000      0.000
REMARK  Name = 
REMARK  6 active torsions:
REMARK  status: ('A' for Active; 'I' for Inactive)
REMARK    1  A    between atoms: C_1  and  C_2
REMARK    2  A    between atoms: C_4  and  C_5
REMARK    3  A    between atoms: N_10  and  C_11
REMARK    4  A    between atoms: C_14  and  C_15
REMARK    5  A    between atoms: N_17  and  C_18
REMARK    6  A    between atoms: C_23  and  C_24
REMARK                            x       y       z     vdW  Elec       q    Type
REMARK                         _______ _______ _______ _____ _____    ______ ____
ROOT
ATOM      1  C   UNL     1       0.537  10.406  19.627  0.00  0.00    +0.000 C 
ATOM      2  O   UNL     1       1.086  11.265  20.311  0.00  0.00    +0.000 OA
ATOM      3  N   UNL     1      -0.839  10.452  19.591  0.00  0.00    +0.000 N 
ATOM      4  H   UNL     1      -1.055  11.177  20.265  0.00  0.00    +0.000 HD
ENDROOT
BRANCH   1  11
ATOM      5  C   UNL     1       1.023   8.054  21.439  0.00  0.00    +0.000 C 
ATOM      6  C   UNL     1       1.603   8.171  20.057  0.00  0.00    +0.000 A 
ATOM      7  C   UNL     1       2.433   7.133  19.615  0.00  0.00    +0.000 A 
ATOM      8  C   UNL     1       2.859   7.081  18.293  0.00  0.00    +0.000 A 
ATOM      9  C   UNL     1       2.555   8.188  17.497  0.00  0.00    +0.000 A 
ATOM     10  N   UNL     1       1.814   9.261  17.894  0.00  0.00    +0.000 NA
ATOM     11  C   UNL     1       1.338   9.230  19.164  0.00  0.00    +0.000 A 
BRANCH   8  12
ATOM     12  C   UNL     1       3.480   5.868  17.756  0.00  0.00    +0.000 A 
ATOM     13  C   UNL     1       3.056   4.557  17.693  0.00  0.00    +0.000 A 
ATOM     14 BR   UNL     1       1.422   3.805  18.207  0.00  0.00    +0.000 Br
ATOM     15  C   UNL     1       4.114   3.817  17.153  0.00  0.00    +0.000 A 
ATOM     16  N   UNL     1       5.163   4.589  16.864  0.00  0.00    +0.000 NA
ATOM     17  N   UNL     1       4.770   5.821  17.245  0.00  0.00    +0.000 N 
ATOM     18  C   UNL     1       5.741   6.895  17.175  0.00  0.00    +0.000 C 
ENDBRANCH   8  12
ENDBRANCH   1  11
BRANCH   3  19
ATOM     19  C   UNL     1      -1.886  10.466  18.550  0.00  0.00    +0.000 C 
ATOM     20  C   UNL     1      -1.602   9.974  17.116  0.00  0.00    +0.000 C 
ATOM     21  N   UNL     1      -2.876   9.677  16.408  0.00  0.00    +0.000 NA
ATOM     22  C   UNL     1      -3.753  10.850  16.326  0.00  0.00    +0.000 C 
ATOM     23  C   UNL     1      -4.019  11.489  17.682  0.00  0.00    +0.000 C 
ATOM     24  C   UNL     1      -2.712  11.785  18.455  0.00  0.00    +0.000 C 
ATOM     25  H   UNL     1      -3.367   8.934  16.911  0.00  0.00    +0.000 HD
BRANCH  24  26
ATOM     26  C   UNL     1      -3.128  12.430  19.768  0.00  0.00    +0.000 A 
ATOM     27  C   UNL     1      -2.212  13.247  20.447  0.00  0.00    +0.000 A 
ATOM     28  C   UNL     1      -2.605  13.973  21.579  0.00  0.00    +0.000 A 
ATOM     29  C   UNL     1      -3.914  13.876  22.044  0.00  0.00    +0.000 A 
ATOM     30  C   UNL     1      -4.815  13.054  21.386  0.00  0.00    +0.000 A 
ATOM     31  F   UNL     1      -6.078  12.965  21.825  0.00  0.00    +0.000 F 
ATOM     32  C   UNL     1      -4.441  12.339  20.252  0.00  0.00    +0.000 A 
ENDBRANCH  24  26
ENDBRANCH   3  19
TORSDOF 4
ENDMDL
MODEL 2
REMARK VINA RESULT:      -8.4      0.843      1.210
REMARK  Name = 
REMARK  6 active torsions:
REMARK  status: ('A' for Active; 'I' for Inactive)
REMARK    1  A    between atoms: C_1  and  C_2
REMARK    2  A    between atoms: C_4  and  C_5
REMARK    3  A    between atoms: N_10  and  C_11
REMARK    4  A    between atoms: C_14  and  C_15
REMARK    5  A    between atoms: N_17  and  C_18
REMARK    6  A    between atoms: C_23  and  C_24
REMARK                            x       y       z     vdW  Elec       q    Type
REMARK                         _______ _______ _______ _____ _____    ______ ____
ROOT
ATOM      1  C   UNL     1       0.506  10.415  19.615  0.00  0.00    +0.000 C 
ATOM      2  O   UNL     1       1.046  11.276  20.302  0.00  0.00    +0.000 OA
ATOM      3  N   UNL     1      -0.869  10.456  19.567  0.00  0.00    +0.000 N 
ATOM      4  H   UNL     1      -1.094  11.181  20.238  0.00  0.00    +0.000 HD
ENDROOT
BRANCH   1  11
ATOM      5  C   UNL     1       0.998   8.075  21.441  0.00  0.00    +0.000 C 
ATOM      6  C   UNL     1       1.583   8.187  20.061  0.00  0.00    +0.000 A 
ATOM      7  C   UNL     1       2.419   7.151  19.628  0.00  0.00    +0.000 A 
ATOM      8  C   UNL     1       2.849   7.095  18.307  0.00  0.00    +0.000 A 
ATOM      9  C   UNL     1       2.543   8.195  17.504  0.00  0.00    +0.000 A 
ATOM     10  N   UNL     1       1.795   9.266  17.893  0.00  0.00    +0.000 NA
ATOM     11  C   UNL     1       1.315   9.240  19.162  0.00  0.00    +0.000 A 
BRANCH   8  12
ATOM     12  C   UNL     1       3.479   5.882  17.779  0.00  0.00    +0.000 A 
ATOM     13  C   UNL     1       3.059   4.570  17.716  0.00  0.00    +0.000 A 
ATOM     14 BR   UNL     1       1.423   3.814  18.219  0.00  0.00    +0.000 Br
ATOM     15  C   UNL     1       4.125   3.831  17.186  0.00  0.00    +0.000 A 
ATOM     16  N   UNL     1       5.173   4.606  16.904  0.00  0.00    +0.000 NA
ATOM     17  N   UNL     1       4.773   5.838  17.278  0.00  0.00    +0.000 N 
ATOM     18  C   UNL     1       5.741   6.914  17.214  0.00  0.00    +0.000 C 
ENDBRANCH   8  12
ENDBRANCH   1  11
BRANCH   3  19
ATOM     19  C   UNL     1      -1.907  10.465  18.517  0.00  0.00    +0.000 C 
ATOM     20  C   UNL     1      -1.604   9.991  17.081  0.00  0.00    +0.000 C 
ATOM     21  N   UNL     1      -2.867   9.682  16.359  0.00  0.00    +0.000 NA
ATOM     22  C   UNL     1      -3.761  10.843  16.281  0.00  0.00    +0.000 C 
ATOM     23  C   UNL     1      -4.048  11.465  17.641  0.00  0.00    +0.000 C 
ATOM     24  C   UNL     1      -2.752  11.773  18.428  0.00  0.00    +0.000 C 
ATOM     25  H   UNL     1      -3.352   8.928  16.851  0.00  0.00    +0.000 HD
BRANCH  24  26
ATOM     26  C   UNL     1      -3.189  12.399  19.743  0.00  0.00    +0.000 A 
ATOM     27  C   UNL     1      -4.547  12.373  20.094  0.00  0.00    +0.000 A 
ATOM     28  C   UNL     1      -4.967  12.807  21.358  0.00  0.00    +0.000 A 
ATOM     29  C   UNL     1      -4.031  13.282  22.273  0.00  0.00    +0.000 A 
ATOM     30  C   UNL     1      -2.691  13.327  21.921  0.00  0.00    +0.000 A 
ATOM     31  F   UNL     1      -1.786  13.774  22.802  0.00  0.00    +0.000 F 
ATOM     32  C   UNL     1      -2.259  12.885  20.674  0.00  0.00    +0.000 A 
ENDBRANCH  24  26
ENDBRANCH   3  19
TORSDOF 4
ENDMDL
MODEL 3
REMARK VINA RESULT:      -8.3      3.980      8.785
REMARK  Name = 
REMARK  6 active torsions:
REMARK  status: ('A' for Active; 'I' for Inactive)
REMARK    1  A    between atoms: C_1  and  C_2
REMARK    2  A    between atoms: C_4  and  C_5
REMARK    3  A    between atoms: N_10  and  C_11
REMARK    4  A    between atoms: C_14  and  C_15
REMARK    5  A    between atoms: N_17  and  C_18
REMARK    6  A    between atoms: C_23  and  C_24
REMARK                            x       y       z     vdW  Elec       q    Type
REMARK                         _______ _______ _______ _____ _____    ______ ____
ROOT
ATOM      1  C   UNL     1       2.427   6.607  19.763  0.00  0.00    +0.000 C 
ATOM      2  O   UNL     1       1.828   5.860  20.532  0.00  0.00    +0.000 OA
ATOM      3  N   UNL     1       3.703   6.221  19.420  0.00  0.00    +0.000 N 
ATOM      4  H   UNL     1       3.858   5.414  20.011  0.00  0.00    +0.000 HD
ENDROOT
BRANCH   1  11
ATOM      5  C   UNL     1       1.293   8.246  22.016  0.00  0.00    +0.000 C 
ATOM      6  C   UNL     1       1.299   8.699  20.583  0.00  0.00    +0.000 A 
ATOM      7  C   UNL     1       0.720   9.941  20.295  0.00  0.00    +0.000 A 
ATOM      8  C   UNL     1       0.847  10.504  19.031  0.00  0.00    +0.000 A 
ATOM      9  C   UNL     1       1.427   9.703  18.046  0.00  0.00    +0.000 A 
ATOM     10  N   UNL     1       1.942   8.457  18.251  0.00  0.00    +0.000 NA
ATOM     11  C   UNL     1       1.882   7.979  19.519  0.00  0.00    +0.000 A 
BRANCH   8  12
ATOM     12  C   UNL     1       0.498  11.909  18.802  0.00  0.00    +0.000 A 
ATOM     13  C   UNL     1      -0.712  12.565  18.728  0.00  0.00    +0.000 A 
ATOM     14 BR   UNL     1      -2.445  11.909  18.991  0.00  0.00    +0.000 Br
ATOM     15  C   UNL     1      -0.430  13.896  18.394  0.00  0.00    +0.000 A 
ATOM     16  N   UNL     1       0.882  14.108  18.270  0.00  0.00    +0.000 NA
ATOM     17  N   UNL     1       1.427  12.898  18.506  0.00  0.00    +0.000 N 
ATOM     18  C   UNL     1       2.858  12.752  18.329  0.00  0.00    +0.000 C 
ENDBRANCH   8  12
ENDBRANCH   1  11
BRANCH   3  19
ATOM     19  C   UNL     1       4.468   6.031  18.172  0.00  0.00    +0.000 C 
ATOM     20  C   UNL     1       5.042   7.228  17.388  0.00  0.00    +0.000 C 
ATOM     21  N   UNL     1       6.108   6.775  16.455  0.00  0.00    +0.000 NA
ATOM     22  C   UNL     1       5.617   5.786  15.488  0.00  0.00    +0.000 C 
ATOM     23  C   UNL     1       4.930   4.599  16.150  0.00  0.00    +0.000 C 
ATOM     24  C   UNL     1       3.833   5.040  17.147  0.00  0.00    +0.000 C 
ATOM     25  H   UNL     1       6.865   6.354  16.999  0.00  0.00    +0.000 HD
BRANCH  24  26
ATOM     26  C   UNL     1       3.229   3.764  17.711  0.00  0.00    +0.000 A 
ATOM     27  C   UNL     1       4.081   2.766  18.206  0.00  0.00    +0.000 A 
ATOM     28  C   UNL     1       3.560   1.644  18.864  0.00  0.00    +0.000 A 
ATOM     29  C   UNL     1       2.183   1.508  19.018  0.00  0.00    +0.000 A 
ATOM     30  C   UNL     1       1.338   2.484  18.512  0.00  0.00    +0.000 A 
ATOM     31  F   UNL     1       0.013   2.362  18.666  0.00  0.00    +0.000 F 
ATOM     32  C   UNL     1       1.844   3.610  17.869  0.00  0.00    +0.000 A 
ENDBRANCH  24  26
ENDBRANCH   3  19
TORSDOF 4
ENDMDL
MODEL 4
REMARK VINA RESULT:      -8.3      3.705      8.913
REMARK  Name = 
REMARK  6 active torsions:
REMARK  status: ('A' for Active; 'I' for Inactive)
REMARK    1  A    between atoms: C_1  and  C_2
REMARK    2  A    between atoms: C_4  and  C_5
REMARK    3  A    between atoms: N_10  and  C_11
REMARK    4  A    between atoms: C_14  and  C_15
REMARK    5  A    between atoms: N_17  and  C_18
REMARK    6  A    between atoms: C_23  and  C_24
REMARK                            x       y       z     vdW  Elec       q    Type
REMARK                         _______ _______ _______ _____ _____    ______ ____
ROOT
ATOM      1  C   UNL     1       2.354   6.689  19.763  0.00  0.00    +0.000 C 
ATOM      2  O   UNL     1       1.743   5.949  20.528  0.00  0.00    +0.000 OA
ATOM      3  N   UNL     1       3.630   6.292  19.431  0.00  0.00    +0.000 N 
ATOM      4  H   UNL     1       3.774   5.484  20.024  0.00  0.00    +0.000 HD
ENDROOT
BRANCH   1  11
ATOM      5  C   UNL     1       1.335   8.390  22.026  0.00  0.00    +0.000 C 
ATOM      6  C   UNL     1       1.294   8.815  20.585  0.00  0.00    +0.000 A 
ATOM      7  C   UNL     1       0.724  10.061  20.295  0.00  0.00    +0.000 A 
ATOM      8  C   UNL     1       0.812  10.599  19.017  0.00  0.00    +0.000 A 
ATOM      9  C   UNL     1       1.340   9.769  18.026  0.00  0.00    +0.000 A 
ATOM     10  N   UNL     1       1.843   8.519  18.235  0.00  0.00    +0.000 NA
ATOM     11  C   UNL     1       1.824   8.066  19.514  0.00  0.00    +0.000 A 
BRANCH   8  12
ATOM     12  C   UNL     1       0.478  12.005  18.774  0.00  0.00    +0.000 A 
ATOM     13  C   UNL     1       1.259  13.124  18.574  0.00  0.00    +0.000 A 
ATOM     14 BR   UNL     1       3.119  13.273  18.440  0.00  0.00    +0.000 Br
ATOM     15  C   UNL     1       0.385  14.215  18.488  0.00  0.00    +0.000 A 
ATOM     16  N   UNL     1      -0.890  13.840  18.607  0.00  0.00    +0.000 NA
ATOM     17  N   UNL     1      -0.817  12.506  18.792  0.00  0.00    +0.000 N 
ATOM     18  C   UNL     1      -2.045  11.794  19.081  0.00  0.00    +0.000 C 
ENDBRANCH   8  12
ENDBRANCH   1  11
BRANCH   3  19
ATOM     19  C   UNL     1       4.403   6.093  18.188  0.00  0.00    +0.000 C 
ATOM     20  C   UNL     1       4.957   7.287  17.385  0.00  0.00    +0.000 C 
ATOM     21  N   UNL     1       6.035   6.837  16.464  0.00  0.00    +0.000 NA
ATOM     22  C   UNL     1       5.566   5.822  15.514  0.00  0.00    +0.000 C 
ATOM     23  C   UNL     1       4.899   4.635  16.194  0.00  0.00    +0.000 C 
ATOM     24  C   UNL     1       3.790   5.073  17.180  0.00  0.00    +0.000 C 
ATOM     25  H   UNL     1       6.798   6.441  17.018  0.00  0.00    +0.000 HD
BRANCH  24  26
ATOM     26  C   UNL     1       3.208   3.796  17.764  0.00  0.00    +0.000 A 
ATOM     27  C   UNL     1       4.073   2.846  18.327  0.00  0.00    +0.000 A 
ATOM     28  C   UNL     1       3.566   1.729  19.003  0.00  0.00    +0.000 A 
ATOM     29  C   UNL     1       2.189   1.550  19.110  0.00  0.00    +0.000 A 
ATOM     30  C   UNL     1       1.332   2.478  18.538  0.00  0.00    +0.000 A 
ATOM     31  F   UNL     1       0.006   2.315  18.646  0.00  0.00    +0.000 F 
ATOM     32  C   UNL     1       1.824   3.599  17.876  0.00  0.00    +0.000 A 
ENDBRANCH  24  26
ENDBRANCH   3  19
TORSDOF 4
ENDMDL
MODEL 5
REMARK VINA RESULT:      -8.3      1.252      1.548
REMARK  Name = 
REMARK  6 active torsions:
REMARK  status: ('A' for Active; 'I' for Inactive)
REMARK    1  A    between atoms: C_1  and  C_2
REMARK    2  A    between atoms: C_4  and  C_5
REMARK    3  A    between atoms: N_10  and  C_11
REMARK    4  A    between atoms: C_14  and  C_15
REMARK    5  A    between atoms: N_17  and  C_18
REMARK    6  A    between atoms: C_23  and  C_24
REMARK                            x       y       z     vdW  Elec       q    Type
REMARK                         _______ _______ _______ _____ _____    ______ ____
ROOT
ATOM      1  C   UNL     1       0.521  10.414  19.643  0.00  0.00    +0.000 C 
ATOM      2  O   UNL     1       1.058  11.278  20.331  0.00  0.00    +0.000 OA
ATOM      3  N   UNL     1      -0.854  10.451  19.595  0.00  0.00    +0.000 N 
ATOM      4  H   UNL     1      -1.081  11.175  20.266  0.00  0.00    +0.000 HD
ENDROOT
BRANCH   1  11
ATOM      5  C   UNL     1       0.963   8.045  21.444  0.00  0.00    +0.000 C 
ATOM      6  C   UNL     1       1.578   8.176  20.079  0.00  0.00    +0.000 A 
ATOM      7  C   UNL     1       2.419   7.142  19.648  0.00  0.00    +0.000 A 
ATOM      8  C   UNL     1       2.878   7.104  18.336  0.00  0.00    +0.000 A 
ATOM      9  C   UNL     1       2.594   8.218  17.544  0.00  0.00    +0.000 A 
ATOM     10  N   UNL     1       1.842   9.286  17.933  0.00  0.00    +0.000 NA
ATOM     11  C   UNL     1       1.335   9.243  19.190  0.00  0.00    +0.000 A 
BRANCH   8  12
ATOM     12  C   UNL     1       3.513   5.896  17.803  0.00  0.00    +0.000 A 
ATOM     13  C   UNL     1       4.780   5.651  17.314  0.00  0.00    +0.000 A 
ATOM     14 BR   UNL     1       6.264   6.786  17.223  0.00  0.00    +0.000 Br
ATOM     15  C   UNL     1       4.786   4.328  16.855  0.00  0.00    +0.000 A 
ATOM     16  N   UNL     1       3.606   3.733  17.042  0.00  0.00    +0.000 NA
ATOM     17  N   UNL     1       2.845   4.695  17.602  0.00  0.00    +0.000 N 
ATOM     18  C   UNL     1       1.444   4.407  17.827  0.00  0.00    +0.000 C 
ENDBRANCH   8  12
ENDBRANCH   1  11
BRANCH   3  19
ATOM     19  C   UNL     1      -1.892  10.456  18.545  0.00  0.00    +0.000 C 
ATOM     20  C   UNL     1      -1.597   9.948  17.119  0.00  0.00    +0.000 C 
ATOM     21  N   UNL     1      -2.865   9.646  16.403  0.00  0.00    +0.000 NA
ATOM     22  C   UNL     1      -3.739  10.820  16.301  0.00  0.00    +0.000 C 
ATOM     23  C   UNL     1      -4.016  11.474  17.648  0.00  0.00    +0.000 C 
ATOM     24  C   UNL     1      -2.715  11.776  18.429  0.00  0.00    +0.000 C 
ATOM     25  H   UNL     1      -3.363   8.910  16.910  0.00  0.00    +0.000 HD
BRANCH  24  26
ATOM     26  C   UNL     1      -3.141  12.436  19.731  0.00  0.00    +0.000 A 
ATOM     27  C   UNL     1      -2.245  13.295  20.385  0.00  0.00    +0.000 A 
ATOM     28  C   UNL     1      -2.652  14.033  21.505  0.00  0.00    +0.000 A 
ATOM     29  C   UNL     1      -3.953  13.905  21.983  0.00  0.00    +0.000 A 
ATOM     30  C   UNL     1      -4.834  13.042  21.349  0.00  0.00    +0.000 A 
ATOM     31  F   UNL     1      -6.090  12.923  21.800  0.00  0.00    +0.000 F 
ATOM     32  C   UNL     1      -4.446  12.314  20.228  0.00  0.00    +0.000 A 
ENDBRANCH  24  26
ENDBRANCH   3  19
TORSDOF 4
ENDMDL
MODEL 6
REMARK VINA RESULT:      -8.3      1.508      1.957
REMARK  Name = 
REMARK  6 active torsions:
REMARK  status: ('A' for Active; 'I' for Inactive)
REMARK    1  A    between atoms: C_1  and  C_2
REMARK    2  A    between atoms: C_4  and  C_5
REMARK    3  A    between atoms: N_10  and  C_11
REMARK    4  A    between atoms: C_14  and  C_15
REMARK    5  A    between atoms: N_17  and  C_18
REMARK    6  A    between atoms: C_23  and  C_24
REMARK                            x       y       z     vdW  Elec       q    Type
REMARK                         _______ _______ _______ _____ _____    ______ ____
ROOT
ATOM      1  C   UNL     1       0.524  10.401  19.607  0.00  0.00    +0.000 C 
ATOM      2  O   UNL     1       1.054  11.264  20.301  0.00  0.00    +0.000 OA
ATOM      3  N   UNL     1      -0.851  10.438  19.545  0.00  0.00    +0.000 N 
ATOM      4  H   UNL     1      -1.085  11.162  20.214  0.00  0.00    +0.000 HD
ENDROOT
BRANCH   1  11
ATOM      5  C   UNL     1       0.986   8.052  21.428  0.00  0.00    +0.000 C 
ATOM      6  C   UNL     1       1.594   8.172  20.059  0.00  0.00    +0.000 A 
ATOM      7  C   UNL     1       2.438   7.139  19.634  0.00  0.00    +0.000 A 
ATOM      8  C   UNL     1       2.892   7.091  18.321  0.00  0.00    +0.000 A 
ATOM      9  C   UNL     1       2.598   8.195  17.519  0.00  0.00    +0.000 A 
ATOM     10  N   UNL     1       1.843   9.264  17.901  0.00  0.00    +0.000 NA
ATOM     11  C   UNL     1       1.341   9.230  19.161  0.00  0.00    +0.000 A 
BRANCH   8  12
ATOM     12  C   UNL     1       3.531   5.881  17.797  0.00  0.00    +0.000 A 
ATOM     13  C   UNL     1       4.801   5.634  17.320  0.00  0.00    +0.000 A 
ATOM     14 BR   UNL     1       6.288   6.767  17.241  0.00  0.00    +0.000 Br
ATOM     15  C   UNL     1       4.811   4.310  16.864  0.00  0.00    +0.000 A 
ATOM     16  N   UNL     1       3.628   3.717  17.041  0.00  0.00    +0.000 NA
ATOM     17  N   UNL     1       2.864   4.681  17.592  0.00  0.00    +0.000 N 
ATOM     18  C   UNL     1       1.459   4.394  17.803  0.00  0.00    +0.000 C 
ENDBRANCH   8  12
ENDBRANCH   1  11
BRANCH   3  19
ATOM     19  C   UNL     1      -1.878  10.445  18.484  0.00  0.00    +0.000 C 
ATOM     20  C   UNL     1      -1.553   9.994  17.046  0.00  0.00    +0.000 C 
ATOM     21  N   UNL     1      -2.804   9.675  16.307  0.00  0.00    +0.000 NA
ATOM     22  C   UNL     1      -3.714  10.823  16.233  0.00  0.00    +0.000 C 
ATOM     23  C   UNL     1      -4.025  11.423  17.598  0.00  0.00    +0.000 C 
ATOM     24  C   UNL     1      -2.742  11.741  18.403  0.00  0.00    +0.000 C 
ATOM     25  H   UNL     1      -3.282   8.907  16.784  0.00  0.00    +0.000 HD
BRANCH  24  26
ATOM     26  C   UNL     1      -3.202  12.343  19.720  0.00  0.00    +0.000 A 
ATOM     27  C   UNL     1      -4.575  12.401  20.003  0.00  0.00    +0.000 A 
ATOM     28  C   UNL     1      -5.029  12.814  21.262  0.00  0.00    +0.000 A 
ATOM     29  C   UNL     1      -4.111  13.182  22.243  0.00  0.00    +0.000 A 
ATOM     30  C   UNL     1      -2.755  13.144  21.960  0.00  0.00    +0.000 A 
ATOM     31  F   UNL     1      -1.868  13.489  22.903  0.00  0.00    +0.000 F 
ATOM     32  C   UNL     1      -2.291  12.723  20.717  0.00  0.00    +0.000 A 
ENDBRANCH  24  26
ENDBRANCH   3  19
TORSDOF 4
ENDMDL
MODEL 7
REMARK VINA RESULT:      -8.1      4.325      9.088
REMARK  Name = 
REMARK  6 active torsions:
REMARK  status: ('A' for Active; 'I' for Inactive)
REMARK    1  A    between atoms: C_1  and  C_2
REMARK    2  A    between atoms: C_4  and  C_5
REMARK    3  A    between atoms: N_10  and  C_11
REMARK    4  A    between atoms: C_14  and  C_15
REMARK    5  A    between atoms: N_17  and  C_18
REMARK    6  A    between atoms: C_23  and  C_24
REMARK                            x       y       z     vdW  Elec       q    Type
REMARK                         _______ _______ _______ _____ _____    ______ ____
ROOT
ATOM      1  C   UNL     1       2.275   6.879  19.889  0.00  0.00    +0.000 C 
ATOM      2  O   UNL     1       1.642   6.158  20.655  0.00  0.00    +0.000 OA
ATOM      3  N   UNL     1       3.532   6.436  19.545  0.00  0.00    +0.000 N 
ATOM      4  H   UNL     1       3.649   5.620  20.132  0.00  0.00    +0.000 HD
ENDROOT
BRANCH   1  11
ATOM      5  C   UNL     1       1.161   8.538  22.139  0.00  0.00    +0.000 C 
ATOM      6  C   UNL     1       1.220   9.008  20.712  0.00  0.00    +0.000 A 
ATOM      7  C   UNL     1       0.701  10.277  20.428  0.00  0.00    +0.000 A 
ATOM      8  C   UNL     1       0.880  10.850  19.175  0.00  0.00    +0.000 A 
ATOM      9  C   UNL     1       1.448  10.036  18.192  0.00  0.00    +0.000 A 
ATOM     10  N   UNL     1       1.904   8.768  18.392  0.00  0.00    +0.000 NA
ATOM     11  C   UNL     1       1.796   8.277  19.652  0.00  0.00    +0.000 A 
BRANCH   8  12
ATOM     12  C   UNL     1       0.597  12.271  18.957  0.00  0.00    +0.000 A 
ATOM     13  C   UNL     1       1.258  13.419  19.340  0.00  0.00    +0.000 A 
ATOM     14 BR   UNL     1       2.884  13.615  20.244  0.00  0.00    +0.000 Br
ATOM     15  C   UNL     1       0.466  14.498  18.926  0.00  0.00    +0.000 A 
ATOM     16  N   UNL     1      -0.638  14.089  18.298  0.00  0.00    +0.000 NA
ATOM     17  N   UNL     1      -0.551  12.744  18.336  0.00  0.00    +0.000 N 
ATOM     18  C   UNL     1      -1.674  11.978  17.834  0.00  0.00    +0.000 C 
ENDBRANCH   8  12
ENDBRANCH   1  11
BRANCH   3  19
ATOM     19  C   UNL     1       4.287   6.215  18.295  0.00  0.00    +0.000 C 
ATOM     20  C   UNL     1       4.861   7.393  17.482  0.00  0.00    +0.000 C 
ATOM     21  N   UNL     1       5.918   6.916  16.552  0.00  0.00    +0.000 NA
ATOM     22  C   UNL     1       5.416   5.909  15.610  0.00  0.00    +0.000 C 
ATOM     23  C   UNL     1       4.729   4.739  16.301  0.00  0.00    +0.000 C 
ATOM     24  C   UNL     1       3.641   5.206  17.297  0.00  0.00    +0.000 C 
ATOM     25  H   UNL     1       6.677   6.503  17.099  0.00  0.00    +0.000 HD
BRANCH  24  26
ATOM     26  C   UNL     1       3.035   3.945  17.891  0.00  0.00    +0.000 A 
ATOM     27  C   UNL     1       1.649   3.886  18.100  0.00  0.00    +0.000 A 
ATOM     28  C   UNL     1       1.037   2.694  18.508  0.00  0.00    +0.000 A 
ATOM     29  C   UNL     1       1.811   1.556  18.721  0.00  0.00    +0.000 A 
ATOM     30  C   UNL     1       3.184   1.617  18.534  0.00  0.00    +0.000 A 
ATOM     31  F   UNL     1       3.931   0.522  18.729  0.00  0.00    +0.000 F 
ATOM     32  C   UNL     1       3.801   2.792  18.115  0.00  0.00    +0.000 A 
ENDBRANCH  24  26
ENDBRANCH   3  19
TORSDOF 4
ENDMDL
MODEL 8
REMARK VINA RESULT:      -8.0      4.405      8.970
REMARK  Name = 
REMARK  6 active torsions:
REMARK  status: ('A' for Active; 'I' for Inactive)
REMARK    1  A    between atoms: C_1  and  C_2
REMARK    2  A    between atoms: C_4  and  C_5
REMARK    3  A    between atoms: N_10  and  C_11
REMARK    4  A    between atoms: C_14  and  C_15
REMARK    5  A    between atoms: N_17  and  C_18
REMARK    6  A    between atoms: C_23  and  C_24
REMARK                            x       y       z     vdW  Elec       q    Type
REMARK                         _______ _______ _______ _____ _____    ______ ____
ROOT
ATOM      1  C   UNL     1       2.256   6.827  19.913  0.00  0.00    +0.000 C 
ATOM      2  O   UNL     1       1.641   6.091  20.680  0.00  0.00    +0.000 OA
ATOM      3  N   UNL     1       3.520   6.410  19.561  0.00  0.00    +0.000 N 
ATOM      4  H   UNL     1       3.656   5.595  20.146  0.00  0.00    +0.000 HD
ENDROOT
BRANCH   1  11
ATOM      5  C   UNL     1       1.389   8.562  22.213  0.00  0.00    +0.000 C 
ATOM      6  C   UNL     1       1.289   8.982  20.773  0.00  0.00    +0.000 A 
ATOM      7  C   UNL     1       0.736  10.240  20.505  0.00  0.00    +0.000 A 
ATOM      8  C   UNL     1       0.774  10.770  19.220  0.00  0.00    +0.000 A 
ATOM      9  C   UNL     1       1.234   9.923  18.210  0.00  0.00    +0.000 A 
ATOM     10  N   UNL     1       1.715   8.662  18.402  0.00  0.00    +0.000 NA
ATOM     11  C   UNL     1       1.748   8.215  19.682  0.00  0.00    +0.000 A 
BRANCH   8  12
ATOM     12  C   UNL     1       0.463  12.183  18.986  0.00  0.00    +0.000 A 
ATOM     13  C   UNL     1      -0.723  12.887  18.996  0.00  0.00    +0.000 A 
ATOM     14 BR   UNL     1      -2.451  12.308  19.419  0.00  0.00    +0.000 Br
ATOM     15  C   UNL     1      -0.417  14.197  18.607  0.00  0.00    +0.000 A 
ATOM     16  N   UNL     1       0.887  14.352  18.369  0.00  0.00    +0.000 NA
ATOM     17  N   UNL     1       1.402  13.126  18.590  0.00  0.00    +0.000 N 
ATOM     18  C   UNL     1       2.806  12.918  18.298  0.00  0.00    +0.000 C 
ENDBRANCH   8  12
ENDBRANCH   1  11
BRANCH   3  19
ATOM     19  C   UNL     1       4.273   6.208  18.307  0.00  0.00    +0.000 C 
ATOM     20  C   UNL     1       4.834   7.399  17.504  0.00  0.00    +0.000 C 
ATOM     21  N   UNL     1       5.893   6.940  16.566  0.00  0.00    +0.000 NA
ATOM     22  C   UNL     1       5.397   5.937  15.616  0.00  0.00    +0.000 C 
ATOM     23  C   UNL     1       4.723   4.755  16.298  0.00  0.00    +0.000 C 
ATOM     24  C   UNL     1       3.633   5.203  17.301  0.00  0.00    +0.000 C 
ATOM     25  H   UNL     1       6.657   6.529  17.107  0.00  0.00    +0.000 HD
BRANCH  24  26
ATOM     26  C   UNL     1       3.041   3.931  17.886  0.00  0.00    +0.000 A 
ATOM     27  C   UNL     1       1.655   3.855  18.093  0.00  0.00    +0.000 A 
ATOM     28  C   UNL     1       1.056   2.653  18.491  0.00  0.00    +0.000 A 
ATOM     29  C   UNL     1       1.843   1.522  18.696  0.00  0.00    +0.000 A 
ATOM     30  C   UNL     1       3.214   1.599  18.511  0.00  0.00    +0.000 A 
ATOM     31  F   UNL     1       3.974   0.511  18.698  0.00  0.00    +0.000 F 
ATOM     32  C   UNL     1       3.819   2.784  18.102  0.00  0.00    +0.000 A 
ENDBRANCH  24  26
ENDBRANCH   3  19
TORSDOF 4
ENDMDL
MODEL 9
REMARK VINA RESULT:      -8.0      1.747      2.196
REMARK  Name = 
REMARK  6 active torsions:
REMARK  status: ('A' for Active; 'I' for Inactive)
REMARK    1  A    between atoms: C_1  and  C_2
REMARK    2  A    between atoms: C_4  and  C_5
REMARK    3  A    between atoms: N_10  and  C_11
REMARK    4  A    between atoms: C_14  and  C_15
REMARK    5  A    between atoms: N_17  and  C_18
REMARK    6  A    between atoms: C_23  and  C_24
REMARK                            x       y       z     vdW  Elec       q    Type
REMARK                         _______ _______ _______ _____ _____    ______ ____
ROOT
ATOM      1  C   UNL     1       0.862   9.764  20.466  0.00  0.00    +0.000 C 
ATOM      2  O   UNL     1       1.509  10.497  21.208  0.00  0.00    +0.000 OA
ATOM      3  N   UNL     1      -0.454  10.114  20.271  0.00  0.00    +0.000 N 
ATOM      4  H   UNL     1      -0.578  10.886  20.915  0.00  0.00    +0.000 HD
ENDROOT
BRANCH   1  11
ATOM      5  C   UNL     1       2.312   9.354  17.862  0.00  0.00    +0.000 C 
ATOM      6  C   UNL     1       2.045   8.249  18.845  0.00  0.00    +0.000 A 
ATOM      7  C   UNL     1       2.478   6.962  18.504  0.00  0.00    +0.000 A 
ATOM      8  C   UNL     1       2.429   5.929  19.433  0.00  0.00    +0.000 A 
ATOM      9  C   UNL     1       1.783   6.207  20.640  0.00  0.00    +0.000 A 
ATOM     10  N   UNL     1       1.276   7.421  20.998  0.00  0.00    +0.000 NA
ATOM     11  C   UNL     1       1.427   8.427  20.100  0.00  0.00    +0.000 A 
BRANCH   8  12
ATOM     12  C   UNL     1       3.134   4.669  19.187  0.00  0.00    +0.000 A 
ATOM     13  C   UNL     1       2.692   3.370  19.046  0.00  0.00    +0.000 A 
ATOM     14 BR   UNL     1       0.946   2.698  19.025  0.00  0.00    +0.000 Br
ATOM     15  C   UNL     1       3.833   2.567  18.920  0.00  0.00    +0.000 A 
ATOM     16  N   UNL     1       4.954   3.290  18.959  0.00  0.00    +0.000 NA
ATOM     17  N   UNL     1       4.516   4.554  19.133  0.00  0.00    +0.000 N 
ATOM     18  C   UNL     1       5.506   5.591  19.340  0.00  0.00    +0.000 C 
ENDBRANCH   8  12
ENDBRANCH   1  11
BRANCH   3  19
ATOM     19  C   UNL     1      -1.348  10.333  19.115  0.00  0.00    +0.000 C 
ATOM     20  C   UNL     1      -0.946   9.894  17.692  0.00  0.00    +0.000 C 
ATOM     21  N   UNL     1      -2.144   9.816  16.815  0.00  0.00    +0.000 NA
ATOM     22  C   UNL     1      -2.847  11.100  16.719  0.00  0.00    +0.000 C 
ATOM     23  C   UNL     1      -3.203  11.686  18.078  0.00  0.00    +0.000 C 
ATOM     24  C   UNL     1      -1.980  11.755  19.023  0.00  0.00    +0.000 C 
ATOM     25  H   UNL     1      -2.787   9.118  17.197  0.00  0.00    +0.000 HD
BRANCH  24  26
ATOM     26  C   UNL     1      -2.477  12.371  20.322  0.00  0.00    +0.000 A 
ATOM     27  C   UNL     1      -3.854  12.571  20.499  0.00  0.00    +0.000 A 
ATOM     28  C   UNL     1      -4.361  12.998  21.734  0.00  0.00    +0.000 A 
ATOM     29  C   UNL     1      -3.491  13.239  22.794  0.00  0.00    +0.000 A 
ATOM     30  C   UNL     1      -2.128  13.060  22.615  0.00  0.00    +0.000 A 
ATOM     31  F   UNL     1      -1.288  13.281  23.635  0.00  0.00    +0.000 F 
ATOM     32  C   UNL     1      -1.613  12.622  21.398  0.00  0.00    +0.000 A 
ENDBRANCH  24  26
ENDBRANCH   3  19
TORSDOF 4
ENDMDL
