MODEL 1
REMARK VINA RESULT:      -7.8      0.000      0.000
REMARK  Name = 
REMARK  4 active torsions:
REMARK  status: ('A' for Active; 'I' for Inactive)
REMARK    1  A    between atoms: N_2  and  C_4
REMARK    2  A    between atoms: C_6  and  C_7
REMARK    3  A    between atoms: N_8  and  N_9
REMARK    4  A    between atoms: C_21  and  O_22
REMARK                            x       y       z     vdW  Elec       q    Type
REMARK                         _______ _______ _______ _____ _____    ______ ____
ROOT
ATOM      1  C   UNL     1       3.083   6.315  18.418  0.00  0.00    +0.000 C 
ATOM      2  N   UNL     1       2.222   6.910  19.182  0.00  0.00    +0.000 NA
ENDROOT
BRANCH   2   3
ATOM      3  N   UNL     1       2.068   8.246  18.957  0.00  0.00    +0.000 N 
ATOM      4  C   UNL     1       1.294   9.007  19.764  0.00  0.00    +0.000 A 
ATOM      5  N   UNL     1       0.658  10.118  19.480  0.00  0.00    +0.000 NA
ATOM      6  C   UNL     1      -0.011  10.453  20.637  0.00  0.00    +0.000 A 
ATOM      7  C   UNL     1      -0.880  11.524  20.896  0.00  0.00    +0.000 A 
ATOM      8  C   UNL     1      -1.428  11.651  22.180  0.00  0.00    +0.000 A 
ATOM      9  C   UNL     1      -1.111  10.736  23.188  0.00  0.00    +0.000 A 
ATOM     10  C   UNL     1      -0.255   9.657  22.948  0.00  0.00    +0.000 A 
ATOM     11  C   UNL     1       0.265   9.547  21.656  0.00  0.00    +0.000 A 
ATOM     12  N   UNL     1       1.091   8.632  21.064  0.00  0.00    +0.000 N 
ATOM     13  H   UNL     1       2.114   8.589  17.997  0.00  0.00    +0.000 HD
ATOM     14  H   UNL     1       1.494   7.802  21.469  0.00  0.00    +0.000 HD
ENDBRANCH   2   3
BRANCH   1  17
ATOM     15  C   UNL     1       3.747   2.845  19.702  0.00  0.00    +0.000 A 
ATOM     16  C   UNL     1       3.550   4.233  19.688  0.00  0.00    +0.000 A 
ATOM     17  C   UNL     1       3.256   4.849  18.472  0.00  0.00    +0.000 A 
ATOM     18  C   UNL     1       3.167   4.086  17.297  0.00  0.00    +0.000 A 
ATOM     19  C   UNL     1       3.375   2.703  17.329  0.00  0.00    +0.000 A 
ATOM     20  C   UNL     1       3.670   2.077  18.538  0.00  0.00    +0.000 A 
BRANCH  15  22
ATOM     21  O   UNL     1       3.162   2.238  21.831  0.00  0.00    +0.000 OA
ATOM     22  N   UNL     1       4.052   2.213  20.969  0.00  0.00    +0.000 N 
ATOM     23  O   UNL     1       5.140   1.630  21.071  0.00  0.00    +0.000 OA
ENDBRANCH  15  22
BRANCH  20  24
ATOM     24  O   UNL     1       3.910   0.735  18.563  0.00  0.00    +0.000 OA
ATOM     25  H   UNL     1       4.661   0.538  19.149  0.00  0.00    +0.000 HD
ENDBRANCH  20  24
ENDBRANCH   1  17
TORSDOF 4
ENDMDL
MODEL 2
REMARK VINA RESULT:      -7.8      2.910      3.497
REMARK  Name = 
REMARK  4 active torsions:
REMARK  status: ('A' for Active; 'I' for Inactive)
REMARK    1  A    between atoms: N_2  and  C_4
REMARK    2  A    between atoms: C_6  and  C_7
REMARK    3  A    between atoms: N_8  and  N_9
REMARK    4  A    between atoms: C_21  and  O_22
REMARK                            x       y       z     vdW  Elec       q    Type
REMARK                         _______ _______ _______ _____ _____    ______ ____
ROOT
ATOM      1  C   UNL     1       3.151   6.070  19.587  0.00  0.00    +0.000 C 
ATOM      2  N   UNL     1       2.487   7.169  19.756  0.00  0.00    +0.000 NA
ENDROOT
BRANCH   2   3
ATOM      3  N   UNL     1       1.582   7.153  20.777  0.00  0.00    +0.000 N 
ATOM      4  C   UNL     1       0.896   8.266  21.122  0.00  0.00    +0.000 A 
ATOM      5  N   UNL     1       0.383   8.584  22.287  0.00  0.00    +0.000 NA
ATOM      6  C   UNL     1      -0.165   9.836  22.106  0.00  0.00    +0.000 A 
ATOM      7  C   UNL     1      -0.807  10.678  23.027  0.00  0.00    +0.000 A 
ATOM      8  C   UNL     1      -1.295  11.914  22.581  0.00  0.00    +0.000 A 
ATOM      9  C   UNL     1      -1.152  12.302  21.245  0.00  0.00    +0.000 A 
ATOM     10  C   UNL     1      -0.506  11.482  20.315  0.00  0.00    +0.000 A 
ATOM     11  C   UNL     1      -0.019  10.262  20.790  0.00  0.00    +0.000 A 
ATOM     12  N   UNL     1       0.671   9.243  20.192  0.00  0.00    +0.000 N 
ATOM     13  H   UNL     1       1.735   6.512  21.556  0.00  0.00    +0.000 HD
ATOM     14  H   UNL     1       0.992   9.183  19.239  0.00  0.00    +0.000 HD
ENDBRANCH   2   3
BRANCH   1  17
ATOM     15  C   UNL     1       6.510   5.422  18.029  0.00  0.00    +0.000 A 
ATOM     16  C   UNL     1       5.475   5.446  18.974  0.00  0.00    +0.000 A 
ATOM     17  C   UNL     1       4.248   5.994  18.600  0.00  0.00    +0.000 A 
ATOM     18  C   UNL     1       4.068   6.508  17.307  0.00  0.00    +0.000 A 
ATOM     19  C   UNL     1       5.116   6.482  16.379  0.00  0.00    +0.000 A 
ATOM     20  C   UNL     1       6.346   5.939  16.742  0.00  0.00    +0.000 A 
BRANCH  15  22
ATOM     21  O   UNL     1       8.326   4.090  17.613  0.00  0.00    +0.000 OA
ATOM     22  N   UNL     1       7.781   4.852  18.425  0.00  0.00    +0.000 N 
ATOM     23  O   UNL     1       8.266   5.226  19.501  0.00  0.00    +0.000 OA
ENDBRANCH  15  22
BRANCH  20  24
ATOM     24  O   UNL     1       7.378   5.948  15.851  0.00  0.00    +0.000 OA
ATOM     25  H   UNL     1       8.166   5.534  16.243  0.00  0.00    +0.000 HD
ENDBRANCH  20  24
ENDBRANCH   1  17
TORSDOF 4
ENDMDL
MODEL 3
REMARK VINA RESULT:      -7.7      2.660      3.238
REMARK  Name = 
REMARK  4 active torsions:
REMARK  status: ('A' for Active; 'I' for Inactive)
REMARK    1  A    between atoms: N_2  and  C_4
REMARK    2  A    between atoms: C_6  and  C_7
REMARK    3  A    between atoms: N_8  and  N_9
REMARK    4  A    between atoms: C_21  and  O_22
REMARK                            x       y       z     vdW  Elec       q    Type
REMARK                         _______ _______ _______ _____ _____    ______ ____
ROOT
ATOM      1  C   UNL     1       3.127   8.060  17.936  0.00  0.00    +0.000 C 
ATOM      2  N   UNL     1       1.906   8.354  17.620  0.00  0.00    +0.000 NA
ENDROOT
BRANCH   2   3
ATOM      3  N   UNL     1       1.543   9.651  17.837  0.00  0.00    +0.000 N 
ATOM      4  C   UNL     1       0.911  10.020  18.974  0.00  0.00    +0.000 A 
ATOM      5  N   UNL     1       0.096  11.030  19.168  0.00  0.00    +0.000 NA
ATOM      6  C   UNL     1      -0.297  10.924  20.485  0.00  0.00    +0.000 A 
ATOM      7  C   UNL     1      -1.194  11.711  21.222  0.00  0.00    +0.000 A 
ATOM      8  C   UNL     1      -1.414  11.398  22.571  0.00  0.00    +0.000 A 
ATOM      9  C   UNL     1      -0.748  10.328  23.175  0.00  0.00    +0.000 A 
ATOM     10  C   UNL     1       0.143   9.525  22.456  0.00  0.00    +0.000 A 
ATOM     11  C   UNL     1       0.332   9.852  21.111  0.00  0.00    +0.000 A 
ATOM     12  N   UNL     1       1.086   9.290  20.118  0.00  0.00    +0.000 N 
ATOM     13  H   UNL     1       1.306  10.234  17.033  0.00  0.00    +0.000 HD
ATOM     14  H   UNL     1       1.673   8.473  20.167  0.00  0.00    +0.000 HD
ENDBRANCH   2   3
BRANCH   1  17
ATOM     15  C   UNL     1       5.383   5.345  16.644  0.00  0.00    +0.000 A 
ATOM     16  C   UNL     1       4.895   6.623  16.949  0.00  0.00    +0.000 A 
ATOM     17  C   UNL     1       3.686   6.726  17.637  0.00  0.00    +0.000 A 
ATOM     18  C   UNL     1       2.983   5.569  18.004  0.00  0.00    +0.000 A 
ATOM     19  C   UNL     1       3.480   4.301  17.684  0.00  0.00    +0.000 A 
ATOM     20  C   UNL     1       4.686   4.187  16.997  0.00  0.00    +0.000 A 
BRANCH  15  22
ATOM     21  O   UNL     1       6.660   5.706  14.777  0.00  0.00    +0.000 OA
ATOM     22  N   UNL     1       6.638   5.247  15.929  0.00  0.00    +0.000 N 
ATOM     23  O   UNL     1       7.612   4.790  16.542  0.00  0.00    +0.000 OA
ENDBRANCH  15  22
BRANCH  20  24
ATOM     24  O   UNL     1       5.153   2.953  16.652  0.00  0.00    +0.000 OA
ATOM     25  H   UNL     1       4.488   2.272  16.855  0.00  0.00    +0.000 HD
ENDBRANCH  20  24
ENDBRANCH   1  17
TORSDOF 4
ENDMDL
MODEL 4
REMARK VINA RESULT:      -7.6      3.590      4.484
REMARK  Name = 
REMARK  4 active torsions:
REMARK  status: ('A' for Active; 'I' for Inactive)
REMARK    1  A    between atoms: N_2  and  C_4
REMARK    2  A    between atoms: C_6  and  C_7
REMARK    3  A    between atoms: N_8  and  N_9
REMARK    4  A    between atoms: C_21  and  O_22
REMARK                            x       y       z     vdW  Elec       q    Type
REMARK                         _______ _______ _______ _____ _____    ______ ____
ROOT
ATOM      1  C   UNL     1       3.152   6.557  17.866  0.00  0.00    +0.000 C 
ATOM      2  N   UNL     1       2.960   7.819  17.645  0.00  0.00    +0.000 NA
ENDROOT
BRANCH   2   3
ATOM      3  N   UNL     1       1.705   8.276  17.922  0.00  0.00    +0.000 N 
ATOM      4  C   UNL     1       1.488   9.571  18.246  0.00  0.00    +0.000 A 
ATOM      5  N   UNL     1       0.522  10.083  18.971  0.00  0.00    +0.000 NA
ATOM      6  C   UNL     1       0.795  11.433  19.027  0.00  0.00    +0.000 A 
ATOM      7  C   UNL     1       0.117  12.460  19.701  0.00  0.00    +0.000 A 
ATOM      8  C   UNL     1       0.596  13.772  19.585  0.00  0.00    +0.000 A 
ATOM      9  C   UNL     1       1.723  14.057  18.808  0.00  0.00    +0.000 A 
ATOM     10  C   UNL     1       2.418  13.046  18.137  0.00  0.00    +0.000 A 
ATOM     11  C   UNL     1       1.926  11.748  18.281  0.00  0.00    +0.000 A 
ATOM     12  N   UNL     1       2.350  10.537  17.806  0.00  0.00    +0.000 N 
ATOM     13  H   UNL     1       1.032   7.634  18.340  0.00  0.00    +0.000 HD
ATOM     14  H   UNL     1       3.159  10.339  17.238  0.00  0.00    +0.000 HD
ENDBRANCH   2   3
BRANCH   1  17
ATOM     15  C   UNL     1       6.254   5.064  16.356  0.00  0.00    +0.000 A 
ATOM     16  C   UNL     1       4.992   5.666  16.457  0.00  0.00    +0.000 A 
ATOM     17  C   UNL     1       4.496   5.960  17.727  0.00  0.00    +0.000 A 
ATOM     18  C   UNL     1       5.250   5.651  18.868  0.00  0.00    +0.000 A 
ATOM     19  C   UNL     1       6.505   5.042  18.750  0.00  0.00    +0.000 A 
ATOM     20  C   UNL     1       7.010   4.743  17.486  0.00  0.00    +0.000 A 
BRANCH  15  22
ATOM     21  O   UNL     1       6.143   3.907  14.383  0.00  0.00    +0.000 OA
ATOM     22  N   UNL     1       6.761   4.762  15.034  0.00  0.00    +0.000 N 
ATOM     23  O   UNL     1       7.718   5.430  14.621  0.00  0.00    +0.000 OA
ENDBRANCH  15  22
BRANCH  20  24
ATOM     24  O   UNL     1       8.215   4.117  17.371  0.00  0.00    +0.000 OA
ATOM     25  H   UNL     1       8.484   4.073  16.437  0.00  0.00    +0.000 HD
ENDBRANCH  20  24
ENDBRANCH   1  17
TORSDOF 4
ENDMDL
MODEL 5
REMARK VINA RESULT:      -7.6      8.183     10.774
REMARK  Name = 
REMARK  4 active torsions:
REMARK  status: ('A' for Active; 'I' for Inactive)
REMARK    1  A    between atoms: N_2  and  C_4
REMARK    2  A    between atoms: C_6  and  C_7
REMARK    3  A    between atoms: N_8  and  N_9
REMARK    4  A    between atoms: C_21  and  O_22
REMARK                            x       y       z     vdW  Elec       q    Type
REMARK                         _______ _______ _______ _____ _____    ______ ____
ROOT
ATOM      1  C   UNL     1       9.401   9.819  18.888  0.00  0.00    +0.000 C 
ATOM      2  N   UNL     1       8.660   9.011  18.199  0.00  0.00    +0.000 NA
ENDROOT
BRANCH   2   3
ATOM      3  N   UNL     1       8.375   7.822  18.804  0.00  0.00    +0.000 N 
ATOM      4  C   UNL     1       7.622   6.885  18.184  0.00  0.00    +0.000 A 
ATOM      5  N   UNL     1       6.872   5.951  18.720  0.00  0.00    +0.000 NA
ATOM      6  C   UNL     1       6.292   5.302  17.651  0.00  0.00    +0.000 A 
ATOM      7  C   UNL     1       5.367   4.248  17.634  0.00  0.00    +0.000 A 
ATOM      8  C   UNL     1       4.937   3.749  16.396  0.00  0.00    +0.000 A 
ATOM      9  C   UNL     1       5.424   4.285  15.200  0.00  0.00    +0.000 A 
ATOM     10  C   UNL     1       6.339   5.342  15.196  0.00  0.00    +0.000 A 
ATOM     11  C   UNL     1       6.739   5.827  16.442  0.00  0.00    +0.000 A 
ATOM     12  N   UNL     1       7.577   6.842  16.818  0.00  0.00    +0.000 N 
ATOM     13  H   UNL     1       8.300   7.796  19.821  0.00  0.00    +0.000 HD
ATOM     14  H   UNL     1       8.084   7.481  16.228  0.00  0.00    +0.000 HD
ENDBRANCH   2   3
BRANCH   1  17
ATOM     15  C   UNL     1       8.960  13.434  17.955  0.00  0.00    +0.000 A 
ATOM     16  C   UNL     1       8.679  12.156  18.457  0.00  0.00    +0.000 A 
ATOM     17  C   UNL     1       9.681  11.187  18.404  0.00  0.00    +0.000 A 
ATOM     18  C   UNL     1      10.935  11.497  17.855  0.00  0.00    +0.000 A 
ATOM     19  C   UNL     1      11.195  12.777  17.352  0.00  0.00    +0.000 A 
ATOM     20  C   UNL     1      10.201  13.752  17.398  0.00  0.00    +0.000 A 
BRANCH  15  22
ATOM     21  O   UNL     1       8.220  15.530  18.506  0.00  0.00    +0.000 OA
ATOM     22  N   UNL     1       7.914  14.434  18.013  0.00  0.00    +0.000 N 
ATOM     23  O   UNL     1       6.824  14.153  17.499  0.00  0.00    +0.000 OA
ENDBRANCH  15  22
BRANCH  20  24
ATOM     24  O   UNL     1      10.442  14.987  16.874  0.00  0.00    +0.000 OA
ATOM     25  H   UNL     1       9.903  15.657  17.329  0.00  0.00    +0.000 HD
ENDBRANCH  20  24
ENDBRANCH   1  17
TORSDOF 4
ENDMDL
MODEL 6
REMARK VINA RESULT:      -7.5      1.787      2.325
REMARK  Name = 
REMARK  4 active torsions:
REMARK  status: ('A' for Active; 'I' for Inactive)
REMARK    1  A    between atoms: N_2  and  C_4
REMARK    2  A    between atoms: C_6  and  C_7
REMARK    3  A    between atoms: N_8  and  N_9
REMARK    4  A    between atoms: C_21  and  O_22
REMARK                            x       y       z     vdW  Elec       q    Type
REMARK                         _______ _______ _______ _____ _____    ______ ____
ROOT
ATOM      1  C   UNL     1       2.868   8.264  17.884  0.00  0.00    +0.000 C 
ATOM      2  N   UNL     1       1.612   8.553  17.764  0.00  0.00    +0.000 NA
ENDROOT
BRANCH   2   3
ATOM      3  N   UNL     1       1.299   9.873  17.916  0.00  0.00    +0.000 N 
ATOM      4  C   UNL     1       0.637  10.314  19.009  0.00  0.00    +0.000 A 
ATOM      5  N   UNL     1      -0.138  11.365  19.130  0.00  0.00    +0.000 NA
ATOM      6  C   UNL     1      -0.592  11.328  20.431  0.00  0.00    +0.000 A 
ATOM      7  C   UNL     1      -1.483  12.183  21.097  0.00  0.00    +0.000 A 
ATOM      8  C   UNL     1      -1.774  11.933  22.446  0.00  0.00    +0.000 A 
ATOM      9  C   UNL     1      -1.184  10.860  23.119  0.00  0.00    +0.000 A 
ATOM     10  C   UNL     1      -0.301   9.991  22.470  0.00  0.00    +0.000 A 
ATOM     11  C   UNL     1      -0.040  10.255  21.124  0.00  0.00    +0.000 A 
ATOM     12  N   UNL     1       0.729   9.622  20.187  0.00  0.00    +0.000 N 
ATOM     13  H   UNL     1       1.124  10.433  17.082  0.00  0.00    +0.000 HD
ATOM     14  H   UNL     1       1.276   8.783  20.293  0.00  0.00    +0.000 HD
ENDBRANCH   2   3
BRANCH   1  17
ATOM     15  C   UNL     1       3.127   4.514  17.836  0.00  0.00    +0.000 A 
ATOM     16  C   UNL     1       2.619   5.801  18.067  0.00  0.00    +0.000 A 
ATOM     17  C   UNL     1       3.358   6.896  17.620  0.00  0.00    +0.000 A 
ATOM     18  C   UNL     1       4.581   6.701  16.961  0.00  0.00    +0.000 A 
ATOM     19  C   UNL     1       5.077   5.410  16.747  0.00  0.00    +0.000 A 
ATOM     20  C   UNL     1       4.348   4.308  17.190  0.00  0.00    +0.000 A 
BRANCH  15  22
ATOM     21  O   UNL     1       1.213   3.258  17.835  0.00  0.00    +0.000 OA
ATOM     22  N   UNL     1       2.354   3.383  18.304  0.00  0.00    +0.000 N 
ATOM     23  O   UNL     1       2.911   2.585  19.069  0.00  0.00    +0.000 OA
ENDBRANCH  15  22
BRANCH  20  24
ATOM     24  O   UNL     1       4.848   3.053  17.015  0.00  0.00    +0.000 OA
ATOM     25  H   UNL     1       4.843   2.816  16.071  0.00  0.00    +0.000 HD
ENDBRANCH  20  24
ENDBRANCH   1  17
TORSDOF 4
ENDMDL
MODEL 7
REMARK VINA RESULT:      -7.5      1.418      1.685
REMARK  Name = 
REMARK  4 active torsions:
REMARK  status: ('A' for Active; 'I' for Inactive)
REMARK    1  A    between atoms: N_2  and  C_4
REMARK    2  A    between atoms: C_6  and  C_7
REMARK    3  A    between atoms: N_8  and  N_9
REMARK    4  A    between atoms: C_21  and  O_22
REMARK                            x       y       z     vdW  Elec       q    Type
REMARK                         _______ _______ _______ _____ _____    ______ ____
ROOT
ATOM      1  C   UNL     1       2.837   7.172  17.913  0.00  0.00    +0.000 C 
ATOM      2  N   UNL     1       2.089   7.687  18.835  0.00  0.00    +0.000 NA
ENDROOT
BRANCH   2   3
ATOM      3  N   UNL     1       1.822   9.018  18.696  0.00  0.00    +0.000 N 
ATOM      4  C   UNL     1       1.030   9.669  19.576  0.00  0.00    +0.000 A 
ATOM      5  N   UNL     1       0.298  10.741  19.384  0.00  0.00    +0.000 NA
ATOM      6  C   UNL     1      -0.342  10.957  20.585  0.00  0.00    +0.000 A 
ATOM      7  C   UNL     1      -1.278  11.940  20.940  0.00  0.00    +0.000 A 
ATOM      8  C   UNL     1      -1.775  11.953  22.251  0.00  0.00    +0.000 A 
ATOM      9  C   UNL     1      -1.343  11.012  23.191  0.00  0.00    +0.000 A 
ATOM     10  C   UNL     1      -0.419  10.018  22.853  0.00  0.00    +0.000 A 
ATOM     11  C   UNL     1       0.049  10.022  21.537  0.00  0.00    +0.000 A 
ATOM     12  N   UNL     1       0.915   9.208  20.859  0.00  0.00    +0.000 N 
ATOM     13  H   UNL     1       1.799   9.415  17.756  0.00  0.00    +0.000 HD
ATOM     14  H   UNL     1       1.398   8.392  21.198  0.00  0.00    +0.000 HD
ENDBRANCH   2   3
BRANCH   1  17
ATOM     15  C   UNL     1       2.482   3.467  18.444  0.00  0.00    +0.000 A 
ATOM     16  C   UNL     1       2.189   4.838  18.460  0.00  0.00    +0.000 A 
ATOM     17  C   UNL     1       3.099   5.718  17.875  0.00  0.00    +0.000 A 
ATOM     18  C   UNL     1       4.279   5.230  17.293  0.00  0.00    +0.000 A 
ATOM     19  C   UNL     1       4.559   3.859  17.293  0.00  0.00    +0.000 A 
ATOM     20  C   UNL     1       3.657   2.971  17.875  0.00  0.00    +0.000 A 
BRANCH  15  22
ATOM     21  O   UNL     1       0.498   2.324  18.411  0.00  0.00    +0.000 OA
ATOM     22  N   UNL     1       1.532   2.560  19.054  0.00  0.00    +0.000 N 
ATOM     23  O   UNL     1       1.853   2.029  20.125  0.00  0.00    +0.000 OA
ENDBRANCH  15  22
BRANCH  20  24
ATOM     24  O   UNL     1       3.948   1.639  17.910  0.00  0.00    +0.000 OA
ATOM     25  H   UNL     1       4.812   1.494  18.332  0.00  0.00    +0.000 HD
ENDBRANCH  20  24
ENDBRANCH   1  17
TORSDOF 4
ENDMDL
MODEL 8
REMARK VINA RESULT:      -7.5      3.792      4.743
REMARK  Name = 
REMARK  4 active torsions:
REMARK  status: ('A' for Active; 'I' for Inactive)
REMARK    1  A    between atoms: N_2  and  C_4
REMARK    2  A    between atoms: C_6  and  C_7
REMARK    3  A    between atoms: N_8  and  N_9
REMARK    4  A    between atoms: C_21  and  O_22
REMARK                            x       y       z     vdW  Elec       q    Type
REMARK                         _______ _______ _______ _____ _____    ______ ____
ROOT
ATOM      1  C   UNL     1       2.219   7.862  18.145  0.00  0.00    +0.000 C 
ATOM      2  N   UNL     1       2.379   9.058  17.674  0.00  0.00    +0.000 NA
ENDROOT
BRANCH   2   3
ATOM      3  N   UNL     1       1.297   9.881  17.790  0.00  0.00    +0.000 N 
ATOM      4  C   UNL     1       1.442  11.189  18.099  0.00  0.00    +0.000 A 
ATOM      5  N   UNL     1       0.592  11.989  18.697  0.00  0.00    +0.000 NA
ATOM      6  C   UNL     1       1.252  13.195  18.806  0.00  0.00    +0.000 A 
ATOM      7  C   UNL     1       0.835  14.397  19.398  0.00  0.00    +0.000 A 
ATOM      8  C   UNL     1       1.701  15.499  19.362  0.00  0.00    +0.000 A 
ATOM      9  C   UNL     1       2.951  15.409  18.744  0.00  0.00    +0.000 A 
ATOM     10  C   UNL     1       3.388  14.217  18.157  0.00  0.00    +0.000 A 
ATOM     11  C   UNL     1       2.511  13.132  18.219  0.00  0.00    +0.000 A 
ATOM     12  N   UNL     1       2.606  11.837  17.788  0.00  0.00    +0.000 N 
ATOM     13  H   UNL     1       0.413   9.484  18.108  0.00  0.00    +0.000 HD
ATOM     14  H   UNL     1       3.383  11.389  17.329  0.00  0.00    +0.000 HD
ENDBRANCH   2   3
BRANCH   1  17
ATOM     15  C   UNL     1       5.345   5.982  17.234  0.00  0.00    +0.000 A 
ATOM     16  C   UNL     1       4.305   6.922  17.181  0.00  0.00    +0.000 A 
ATOM     17  C   UNL     1       3.348   6.911  18.196  0.00  0.00    +0.000 A 
ATOM     18  C   UNL     1       3.434   5.975  19.237  0.00  0.00    +0.000 A 
ATOM     19  C   UNL     1       4.475   5.040  19.270  0.00  0.00    +0.000 A 
ATOM     20  C   UNL     1       5.435   5.040  18.261  0.00  0.00    +0.000 A 
BRANCH  15  22
ATOM     21  O   UNL     1       5.917   5.812  15.024  0.00  0.00    +0.000 OA
ATOM     22  N   UNL     1       6.333   6.000  16.176  0.00  0.00    +0.000 N 
ATOM     23  O   UNL     1       7.499   6.278  16.486  0.00  0.00    +0.000 OA
ENDBRANCH  15  22
BRANCH  20  24
ATOM     24  O   UNL     1       6.427   4.105  18.272  0.00  0.00    +0.000 OA
ATOM     25  H   UNL     1       7.253   4.494  18.611  0.00  0.00    +0.000 HD
ENDBRANCH  20  24
ENDBRANCH   1  17
TORSDOF 4
ENDMDL
MODEL 9
REMARK VINA RESULT:      -7.5      5.724      7.591
REMARK  Name = 
REMARK  4 active torsions:
REMARK  status: ('A' for Active; 'I' for Inactive)
REMARK    1  A    between atoms: N_2  and  C_4
REMARK    2  A    between atoms: C_6  and  C_7
REMARK    3  A    between atoms: N_8  and  N_9
REMARK    4  A    between atoms: C_21  and  O_22
REMARK                            x       y       z     vdW  Elec       q    Type
REMARK                         _______ _______ _______ _____ _____    ______ ____
ROOT
ATOM      1  C   UNL     1       6.159   4.876  16.203  0.00  0.00    +0.000 C 
ATOM      2  N   UNL     1       6.823   4.233  17.110  0.00  0.00    +0.000 NA
ENDROOT
BRANCH   2   3
ATOM      3  N   UNL     1       6.370   4.390  18.388  0.00  0.00    +0.000 N 
ATOM      4  C   UNL     1       5.095   4.087  18.720  0.00  0.00    +0.000 A 
ATOM      5  N   UNL     1       4.361   4.579  19.689  0.00  0.00    +0.000 NA
ATOM      6  C   UNL     1       3.135   3.963  19.557  0.00  0.00    +0.000 A 
ATOM      7  C   UNL     1       1.956   4.140  20.298  0.00  0.00    +0.000 A 
ATOM      8  C   UNL     1       0.832   3.369  19.967  0.00  0.00    +0.000 A 
ATOM      9  C   UNL     1       0.883   2.437  18.926  0.00  0.00    +0.000 A 
ATOM     10  C   UNL     1       2.046   2.254  18.170  0.00  0.00    +0.000 A 
ATOM     11  C   UNL     1       3.145   3.044  18.513  0.00  0.00    +0.000 A 
ATOM     12  N   UNL     1       4.405   3.155  17.993  0.00  0.00    +0.000 N 
ATOM     13  H   UNL     1       6.774   5.130  18.962  0.00  0.00    +0.000 HD
ATOM     14  H   UNL     1       4.799   2.667  17.204  0.00  0.00    +0.000 HD
ENDBRANCH   2   3
BRANCH   1  17
ATOM     15  C   UNL     1       6.013   3.662  12.648  0.00  0.00    +0.000 A 
ATOM     16  C   UNL     1       5.675   3.845  13.997  0.00  0.00    +0.000 A 
ATOM     17  C   UNL     1       6.467   4.695  14.770  0.00  0.00    +0.000 A 
ATOM     18  C   UNL     1       7.574   5.341  14.200  0.00  0.00    +0.000 A 
ATOM     19  C   UNL     1       7.902   5.140  12.854  0.00  0.00    +0.000 A 
ATOM     20  C   UNL     1       7.119   4.293  12.073  0.00  0.00    +0.000 A 
BRANCH  15  22
ATOM     21  O   UNL     1       4.062   3.197  11.545  0.00  0.00    +0.000 OA
ATOM     22  N   UNL     1       5.187   2.778  11.853  0.00  0.00    +0.000 N 
ATOM     23  O   UNL     1       5.689   1.711  11.475  0.00  0.00    +0.000 OA
ENDBRANCH  15  22
BRANCH  20  24
ATOM     24  O   UNL     1       7.459   4.067  10.772  0.00  0.00    +0.000 OA
ATOM     25  H   UNL     1       8.187   4.657  10.507  0.00  0.00    +0.000 HD
ENDBRANCH  20  24
ENDBRANCH   1  17
TORSDOF 4
ENDMDL
