MODEL 1
REMARK VINA RESULT:      -7.3      0.000      0.000
REMARK  Name = 
REMARK  8 active torsions:
REMARK  status: ('A' for Active; 'I' for Inactive)
REMARK    1  A    between atoms: C_1  and  C_2
REMARK    2  A    between atoms: C_2  and  C_3
REMARK    3  A    between atoms: C_3  and  C_4
REMARK    4  A    between atoms: C_4  and  S_5
REMARK    5  A    between atoms: S_5  and  N_8
REMARK    6  A    between atoms: C_11  and  C_12
REMARK    7  A    between atoms: C_12  and  N_13
REMARK    8  A    between atoms: C_18  and  C_19
REMARK                            x       y       z     vdW  Elec       q    Type
REMARK                         _______ _______ _______ _____ _____    ______ ____
ROOT
ATOM      1  N   UNL     1       6.502   6.261  16.288  0.00  0.00    +0.000 NA
ATOM      2  C   UNL     1       7.070   6.647  17.608  0.00  0.00    +0.000 C 
ATOM      3  C   UNL     1       5.917   6.446  18.579  0.00  0.00    +0.000 C 
ATOM      4  C   UNL     1       4.746   7.036  17.803  0.00  0.00    +0.000 C 
ATOM      5  C   UNL     1       5.086   6.783  16.322  0.00  0.00    +0.000 C 
ENDROOT
BRANCH   1   6
ATOM      6  S   UNL     1       6.631   4.599  15.909  0.00  0.00    +0.000 S 
ATOM      7  O   UNL     1       5.384   3.983  16.252  0.00  0.00    +0.000 OA
ATOM      8  O   UNL     1       7.884   4.112  16.465  0.00  0.00    +0.000 OA
BRANCH   6   9
ATOM      9  C   UNL     1       6.783   4.607  14.108  0.00  0.00    +0.000 C 
BRANCH   9  10
ATOM     10  C   UNL     1       6.078   3.372  13.563  0.00  0.00    +0.000 C 
BRANCH  10  12
ATOM     11  C   UNL     1       4.527   3.255  11.605  0.00  0.00    +0.000 C 
ATOM     12  C   UNL     1       5.979   3.375  12.045  0.00  0.00    +0.000 C 
ENDBRANCH  10  12
ENDBRANCH   9  10
ENDBRANCH   6   9
ENDBRANCH   1   6
BRANCH   4  13
ATOM     13  C   UNL     1       3.383   6.463  18.203  0.00  0.00    +0.000 C 
BRANCH  13  14
ATOM     14  N   UNL     1       3.429   6.071  19.603  0.00  0.00    +0.000 N 
ATOM     15  C   UNL     1       2.843   4.856  19.912  0.00  0.00    +0.000 A 
ATOM     16  N   UNL     1       2.300   4.761  21.130  0.00  0.00    +0.000 NA
ATOM     17  C   UNL     1       1.818   3.554  21.489  0.00  0.00    +0.000 A 
ATOM     18  C   UNL     1       1.868   2.449  20.679  0.00  0.00    +0.000 A 
ATOM     19  C   UNL     1       2.438   2.641  19.438  0.00  0.00    +0.000 A 
ATOM     20  N   UNL     1       2.903   3.847  19.039  0.00  0.00    +0.000 NA
ATOM     21  H   UNL     1       3.069   6.730  20.282  0.00  0.00    +0.000 HD
BRANCH  19  22
ATOM     22  C   UNL     1       2.641   1.478  18.500  0.00  0.00    +0.000 C 
ATOM     23  F   UNL     1       2.492   1.832  17.190  0.00  0.00    +0.000 F 
ATOM     24  F   UNL     1       3.886   0.929  18.592  0.00  0.00    +0.000 F 
ENDBRANCH  19  22
ENDBRANCH  13  14
ENDBRANCH   4  13
TORSDOF 7
ENDMDL
MODEL 2
REMARK VINA RESULT:      -7.2      3.030      7.061
REMARK  Name = 
REMARK  8 active torsions:
REMARK  status: ('A' for Active; 'I' for Inactive)
REMARK    1  A    between atoms: C_1  and  C_2
REMARK    2  A    between atoms: C_2  and  C_3
REMARK    3  A    between atoms: C_3  and  C_4
REMARK    4  A    between atoms: C_4  and  S_5
REMARK    5  A    between atoms: S_5  and  N_8
REMARK    6  A    between atoms: C_11  and  C_12
REMARK    7  A    between atoms: C_12  and  N_13
REMARK    8  A    between atoms: C_18  and  C_19
REMARK                            x       y       z     vdW  Elec       q    Type
REMARK                         _______ _______ _______ _____ _____    ______ ____
ROOT
ATOM      1  N   UNL     1       3.366   3.952  18.702  0.00  0.00    +0.000 NA
ATOM      2  C   UNL     1       2.844   3.691  17.333  0.00  0.00    +0.000 C 
ATOM      3  C   UNL     1       4.096   3.567  16.479  0.00  0.00    +0.000 C 
ATOM      4  C   UNL     1       4.949   4.715  17.002  0.00  0.00    +0.000 C 
ATOM      5  C   UNL     1       4.554   4.857  18.483  0.00  0.00    +0.000 C 
ENDROOT
BRANCH   1   6
ATOM      6  S   UNL     1       3.707   2.551  19.620  0.00  0.00    +0.000 S 
ATOM      7  O   UNL     1       5.102   2.583  19.949  0.00  0.00    +0.000 OA
ATOM      8  O   UNL     1       3.129   1.412  18.924  0.00  0.00    +0.000 OA
BRANCH   6   9
ATOM      9  C   UNL     1       2.761   2.821  21.136  0.00  0.00    +0.000 C 
BRANCH   9  10
ATOM     10  C   UNL     1       1.279   2.785  20.787  0.00  0.00    +0.000 C 
BRANCH  10  12
ATOM     11  C   UNL     1       1.545   5.267  20.937  0.00  0.00    +0.000 C 
ATOM     12  C   UNL     1       0.758   4.130  20.303  0.00  0.00    +0.000 C 
ENDBRANCH  10  12
ENDBRANCH   9  10
ENDBRANCH   6   9
ENDBRANCH   1   6
BRANCH   4  13
ATOM     13  C   UNL     1       6.455   4.510  16.808  0.00  0.00    +0.000 C 
BRANCH  13  14
ATOM     14  N   UNL     1       6.939   5.472  15.832  0.00  0.00    +0.000 N 
ATOM     15  C   UNL     1       7.077   5.006  14.536  0.00  0.00    +0.000 A 
ATOM     16  N   UNL     1       8.053   5.565  13.813  0.00  0.00    +0.000 NA
ATOM     17  C   UNL     1       8.135   5.199  12.518  0.00  0.00    +0.000 A 
ATOM     18  C   UNL     1       7.277   4.308  11.927  0.00  0.00    +0.000 A 
ATOM     19  C   UNL     1       6.307   3.775  12.750  0.00  0.00    +0.000 A 
ATOM     20  N   UNL     1       6.218   4.100  14.061  0.00  0.00    +0.000 NA
ATOM     21  H   UNL     1       7.805   5.953  16.044  0.00  0.00    +0.000 HD
BRANCH  19  22
ATOM     22  C   UNL     1       5.245   2.863  12.191  0.00  0.00    +0.000 C 
ATOM     23  F   UNL     1       4.179   3.551  11.688  0.00  0.00    +0.000 F 
ATOM     24  F   UNL     1       5.696   2.084  11.167  0.00  0.00    +0.000 F 
ENDBRANCH  19  22
ENDBRANCH  13  14
ENDBRANCH   4  13
TORSDOF 7
ENDMDL
MODEL 3
REMARK VINA RESULT:      -7.2      3.306      6.961
REMARK  Name = 
REMARK  8 active torsions:
REMARK  status: ('A' for Active; 'I' for Inactive)
REMARK    1  A    between atoms: C_1  and  C_2
REMARK    2  A    between atoms: C_2  and  C_3
REMARK    3  A    between atoms: C_3  and  C_4
REMARK    4  A    between atoms: C_4  and  S_5
REMARK    5  A    between atoms: S_5  and  N_8
REMARK    6  A    between atoms: C_11  and  C_12
REMARK    7  A    between atoms: C_12  and  N_13
REMARK    8  A    between atoms: C_18  and  C_19
REMARK                            x       y       z     vdW  Elec       q    Type
REMARK                         _______ _______ _______ _____ _____    ______ ____
ROOT
ATOM      1  N   UNL     1       3.556   4.463  18.925  0.00  0.00    +0.000 NA
ATOM      2  C   UNL     1       3.187   5.812  18.417  0.00  0.00    +0.000 C 
ATOM      3  C   UNL     1       4.357   6.205  17.530  0.00  0.00    +0.000 C 
ATOM      4  C   UNL     1       5.550   5.764  18.369  0.00  0.00    +0.000 C 
ATOM      5  C   UNL     1       5.043   4.547  19.166  0.00  0.00    +0.000 C 
ENDROOT
BRANCH   1   6
ATOM      6  S   UNL     1       3.077   3.163  17.923  0.00  0.00    +0.000 S 
ATOM      7  O   UNL     1       4.267   2.474  17.517  0.00  0.00    +0.000 OA
ATOM      8  O   UNL     1       2.140   3.681  16.939  0.00  0.00    +0.000 OA
BRANCH   6   9
ATOM      9  C   UNL     1       2.163   2.094  19.059  0.00  0.00    +0.000 C 
BRANCH   9  10
ATOM     10  C   UNL     1       0.982   2.881  19.610  0.00  0.00    +0.000 C 
BRANCH  10  12
ATOM     11  C   UNL     1       2.454   2.706  21.624  0.00  0.00    +0.000 C 
ATOM     12  C   UNL     1       1.079   3.109  21.111  0.00  0.00    +0.000 C 
ENDBRANCH  10  12
ENDBRANCH   9  10
ENDBRANCH   6   9
ENDBRANCH   1   6
BRANCH   4  13
ATOM     13  C   UNL     1       6.806   5.453  17.549  0.00  0.00    +0.000 C 
BRANCH  13  14
ATOM     14  N   UNL     1       6.589   4.224  16.803  0.00  0.00    +0.000 N 
ATOM     15  C   UNL     1       6.608   4.339  15.424  0.00  0.00    +0.000 A 
ATOM     16  N   UNL     1       5.826   3.487  14.754  0.00  0.00    +0.000 NA
ATOM     17  C   UNL     1       5.909   3.513  13.409  0.00  0.00    +0.000 A 
ATOM     18  C   UNL     1       6.747   4.351  12.719  0.00  0.00    +0.000 A 
ATOM     19  C   UNL     1       7.511   5.202  13.491  0.00  0.00    +0.000 A 
ATOM     20  N   UNL     1       7.426   5.219  14.841  0.00  0.00    +0.000 NA
ATOM     21  H   UNL     1       5.759   3.687  17.022  0.00  0.00    +0.000 HD
BRANCH  19  22
ATOM     22  C   UNL     1       8.542   6.098  12.852  0.00  0.00    +0.000 C 
ATOM     23  F   UNL     1       9.793   5.552  12.876  0.00  0.00    +0.000 F 
ATOM     24  F   UNL     1       8.281   6.359  11.539  0.00  0.00    +0.000 F 
ENDBRANCH  19  22
ENDBRANCH  13  14
ENDBRANCH   4  13
TORSDOF 7
ENDMDL
MODEL 4
REMARK VINA RESULT:      -7.1      2.937      6.936
REMARK  Name = 
REMARK  8 active torsions:
REMARK  status: ('A' for Active; 'I' for Inactive)
REMARK    1  A    between atoms: C_1  and  C_2
REMARK    2  A    between atoms: C_2  and  C_3
REMARK    3  A    between atoms: C_3  and  C_4
REMARK    4  A    between atoms: C_4  and  S_5
REMARK    5  A    between atoms: S_5  and  N_8
REMARK    6  A    between atoms: C_11  and  C_12
REMARK    7  A    between atoms: C_12  and  N_13
REMARK    8  A    between atoms: C_18  and  C_19
REMARK                            x       y       z     vdW  Elec       q    Type
REMARK                         _______ _______ _______ _____ _____    ______ ____
ROOT
ATOM      1  N   UNL     1       4.005   4.889  19.229  0.00  0.00    +0.000 NA
ATOM      2  C   UNL     1       4.751   6.177  19.251  0.00  0.00    +0.000 C 
ATOM      3  C   UNL     1       5.659   6.098  18.034  0.00  0.00    +0.000 C 
ATOM      4  C   UNL     1       6.171   4.666  18.116  0.00  0.00    +0.000 C 
ATOM      5  C   UNL     1       5.025   3.874  18.774  0.00  0.00    +0.000 C 
ENDROOT
BRANCH   1   6
ATOM      6  S   UNL     1       2.567   4.906  18.305  0.00  0.00    +0.000 S 
ATOM      7  O   UNL     1       2.632   3.804  17.391  0.00  0.00    +0.000 OA
ATOM      8  O   UNL     1       2.363   6.265  17.826  0.00  0.00    +0.000 OA
BRANCH   6   9
ATOM      9  C   UNL     1       1.293   4.548  19.535  0.00  0.00    +0.000 C 
BRANCH   9  10
ATOM     10  C   UNL     1       1.142   3.037  19.642  0.00  0.00    +0.000 C 
BRANCH  10  12
ATOM     11  C   UNL     1       2.571   2.784  21.678  0.00  0.00    +0.000 C 
ATOM     12  C   UNL     1       1.193   2.542  21.080  0.00  0.00    +0.000 C 
ENDBRANCH  10  12
ENDBRANCH   9  10
ENDBRANCH   6   9
ENDBRANCH   1   6
BRANCH   4  13
ATOM     13  C   UNL     1       6.597   4.079  16.767  0.00  0.00    +0.000 C 
BRANCH  13  14
ATOM     14  N   UNL     1       6.971   5.168  15.877  0.00  0.00    +0.000 N 
ATOM     15  C   UNL     1       7.071   4.847  14.535  0.00  0.00    +0.000 A 
ATOM     16  N   UNL     1       7.972   5.542  13.832  0.00  0.00    +0.000 NA
ATOM     17  C   UNL     1       8.012   5.317  12.504  0.00  0.00    +0.000 A 
ATOM     18  C   UNL     1       7.183   4.435  11.860  0.00  0.00    +0.000 A 
ATOM     19  C   UNL     1       6.291   3.757  12.664  0.00  0.00    +0.000 A 
ATOM     20  N   UNL     1       6.249   3.938  14.004  0.00  0.00    +0.000 NA
ATOM     21  H   UNL     1       7.814   5.682  16.101  0.00  0.00    +0.000 HD
BRANCH  19  22
ATOM     22  C   UNL     1       5.261   2.836  12.059  0.00  0.00    +0.000 C 
ATOM     23  F   UNL     1       4.383   3.498  11.250  0.00  0.00    +0.000 F 
ATOM     24  F   UNL     1       5.810   1.859  11.282  0.00  0.00    +0.000 F 
ENDBRANCH  19  22
ENDBRANCH  13  14
ENDBRANCH   4  13
TORSDOF 7
ENDMDL
MODEL 5
REMARK VINA RESULT:      -7.0      4.165      5.952
REMARK  Name = 
REMARK  8 active torsions:
REMARK  status: ('A' for Active; 'I' for Inactive)
REMARK    1  A    between atoms: C_1  and  C_2
REMARK    2  A    between atoms: C_2  and  C_3
REMARK    3  A    between atoms: C_3  and  C_4
REMARK    4  A    between atoms: C_4  and  S_5
REMARK    5  A    between atoms: S_5  and  N_8
REMARK    6  A    between atoms: C_11  and  C_12
REMARK    7  A    between atoms: C_12  and  N_13
REMARK    8  A    between atoms: C_18  and  C_19
REMARK                            x       y       z     vdW  Elec       q    Type
REMARK                         _______ _______ _______ _____ _____    ______ ____
ROOT
ATOM      1  N   UNL     1       3.855   3.336  18.117  0.00  0.00    +0.000 NA
ATOM      2  C   UNL     1       2.466   3.206  17.598  0.00  0.00    +0.000 C 
ATOM      3  C   UNL     1       1.672   4.217  18.411  0.00  0.00    +0.000 C 
ATOM      4  C   UNL     1       2.221   3.993  19.814  0.00  0.00    +0.000 C 
ATOM      5  C   UNL     1       3.681   3.551  19.601  0.00  0.00    +0.000 C 
ENDROOT
BRANCH   1   6
ATOM      6  S   UNL     1       4.804   4.527  17.340  0.00  0.00    +0.000 S 
ATOM      7  O   UNL     1       3.986   5.694  17.186  0.00  0.00    +0.000 OA
ATOM      8  O   UNL     1       5.444   3.905  16.190  0.00  0.00    +0.000 OA
BRANCH   6   9
ATOM      9  C   UNL     1       6.082   4.887  18.566  0.00  0.00    +0.000 C 
BRANCH   9  10
ATOM     10  C   UNL     1       7.341   5.324  17.829  0.00  0.00    +0.000 C 
BRANCH  10  12
ATOM     11  C   UNL     1       8.014   7.720  18.072  0.00  0.00    +0.000 C 
ATOM     12  C   UNL     1       7.221   6.722  17.240  0.00  0.00    +0.000 C 
ENDBRANCH  10  12
ENDBRANCH   9  10
ENDBRANCH   6   9
ENDBRANCH   1   6
BRANCH   4  13
ATOM     13  C   UNL     1       2.100   5.213  20.731  0.00  0.00    +0.000 C 
BRANCH  13  14
ATOM     14  N   UNL     1       2.639   6.376  20.043  0.00  0.00    +0.000 N 
ATOM     15  C   UNL     1       1.857   7.517  20.076  0.00  0.00    +0.000 A 
ATOM     16  N   UNL     1       1.950   8.321  19.012  0.00  0.00    +0.000 NA
ATOM     17  C   UNL     1       1.277   9.488  19.070  0.00  0.00    +0.000 A 
ATOM     18  C   UNL     1       0.528   9.875  20.151  0.00  0.00    +0.000 A 
ATOM     19  C   UNL     1       0.482   8.980  21.200  0.00  0.00    +0.000 A 
ATOM     20  N   UNL     1       1.122   7.789  21.157  0.00  0.00    +0.000 NA
ATOM     21  H   UNL     1       2.912   6.257  19.075  0.00  0.00    +0.000 HD
BRANCH  19  22
ATOM     22  C   UNL     1      -0.226   9.339  22.482  0.00  0.00    +0.000 C 
ATOM     23  F   UNL     1       0.633   9.454  23.537  0.00  0.00    +0.000 F 
ATOM     24  F   UNL     1      -0.884  10.531  22.413  0.00  0.00    +0.000 F 
ENDBRANCH  19  22
ENDBRANCH  13  14
ENDBRANCH   4  13
TORSDOF 7
ENDMDL
MODEL 6
REMARK VINA RESULT:      -7.0      1.681      2.236
REMARK  Name = 
REMARK  8 active torsions:
REMARK  status: ('A' for Active; 'I' for Inactive)
REMARK    1  A    between atoms: C_1  and  C_2
REMARK    2  A    between atoms: C_2  and  C_3
REMARK    3  A    between atoms: C_3  and  C_4
REMARK    4  A    between atoms: C_4  and  S_5
REMARK    5  A    between atoms: S_5  and  N_8
REMARK    6  A    between atoms: C_11  and  C_12
REMARK    7  A    between atoms: C_12  and  N_13
REMARK    8  A    between atoms: C_18  and  C_19
REMARK                            x       y       z     vdW  Elec       q    Type
REMARK                         _______ _______ _______ _____ _____    ______ ____
ROOT
ATOM      1  N   UNL     1       6.363   6.208  15.885  0.00  0.00    +0.000 NA
ATOM      2  C   UNL     1       7.142   6.994  16.881  0.00  0.00    +0.000 C 
ATOM      3  C   UNL     1       6.319   6.893  18.155  0.00  0.00    +0.000 C 
ATOM      4  C   UNL     1       4.903   7.099  17.633  0.00  0.00    +0.000 C 
ATOM      5  C   UNL     1       4.922   6.523  16.205  0.00  0.00    +0.000 C 
ENDROOT
BRANCH   1   6
ATOM      6  S   UNL     1       6.726   4.538  15.845  0.00  0.00    +0.000 S 
ATOM      7  O   UNL     1       5.573   3.837  16.329  0.00  0.00    +0.000 OA
ATOM      8  O   UNL     1       8.029   4.351  16.464  0.00  0.00    +0.000 OA
BRANCH   6   9
ATOM      9  C   UNL     1       6.892   4.203  14.077  0.00  0.00    +0.000 C 
BRANCH   9  10
ATOM     10  C   UNL     1       5.524   3.810  13.535  0.00  0.00    +0.000 C 
BRANCH  10  12
ATOM     11  C   UNL     1       6.928   3.519  11.486  0.00  0.00    +0.000 C 
ATOM     12  C   UNL     1       5.601   3.184  12.150  0.00  0.00    +0.000 C 
ENDBRANCH  10  12
ENDBRANCH   9  10
ENDBRANCH   6   9
ENDBRANCH   1   6
BRANCH   4  13
ATOM     13  C   UNL     1       3.818   6.468  18.511  0.00  0.00    +0.000 C 
BRANCH  13  14
ATOM     14  N   UNL     1       3.019   5.566  17.698  0.00  0.00    +0.000 N 
ATOM     15  C   UNL     1       2.799   4.306  18.226  0.00  0.00    +0.000 A 
ATOM     16  N   UNL     1       2.674   3.313  17.340  0.00  0.00    +0.000 NA
ATOM     17  C   UNL     1       2.357   2.097  17.829  0.00  0.00    +0.000 A 
ATOM     18  C   UNL     1       2.154   1.848  19.162  0.00  0.00    +0.000 A 
ATOM     19  C   UNL     1       2.312   2.929  20.004  0.00  0.00    +0.000 A 
ATOM     20  N   UNL     1       2.661   4.153  19.546  0.00  0.00    +0.000 NA
ATOM     21  H   UNL     1       3.317   5.415  16.742  0.00  0.00    +0.000 HD
BRANCH  19  22
ATOM     22  C   UNL     1       2.017   2.801  21.477  0.00  0.00    +0.000 C 
ATOM     23  F   UNL     1       2.363   3.920  22.177  0.00  0.00    +0.000 F 
ATOM     24  F   UNL     1       0.695   2.598  21.741  0.00  0.00    +0.000 F 
ENDBRANCH  19  22
ENDBRANCH  13  14
ENDBRANCH   4  13
TORSDOF 7
ENDMDL
MODEL 7
REMARK VINA RESULT:      -7.0      3.110      7.001
REMARK  Name = 
REMARK  8 active torsions:
REMARK  status: ('A' for Active; 'I' for Inactive)
REMARK    1  A    between atoms: C_1  and  C_2
REMARK    2  A    between atoms: C_2  and  C_3
REMARK    3  A    between atoms: C_3  and  C_4
REMARK    4  A    between atoms: C_4  and  S_5
REMARK    5  A    between atoms: S_5  and  N_8
REMARK    6  A    between atoms: C_11  and  C_12
REMARK    7  A    between atoms: C_12  and  N_13
REMARK    8  A    between atoms: C_18  and  C_19
REMARK                            x       y       z     vdW  Elec       q    Type
REMARK                         _______ _______ _______ _____ _____    ______ ____
ROOT
ATOM      1  N   UNL     1       2.894   5.317  17.707  0.00  0.00    +0.000 NA
ATOM      2  C   UNL     1       2.747   3.841  17.580  0.00  0.00    +0.000 C 
ATOM      3  C   UNL     1       4.178   3.330  17.541  0.00  0.00    +0.000 C 
ATOM      4  C   UNL     1       4.846   4.333  16.610  0.00  0.00    +0.000 C 
ATOM      5  C   UNL     1       4.080   5.650  16.835  0.00  0.00    +0.000 C 
ENDROOT
BRANCH   1   6
ATOM      6  S   UNL     1       3.016   5.892  19.312  0.00  0.00    +0.000 S 
ATOM      7  O   UNL     1       2.650   7.277  19.300  0.00  0.00    +0.000 OA
ATOM      8  O   UNL     1       4.301   5.462  19.842  0.00  0.00    +0.000 OA
BRANCH   6   9
ATOM      9  C   UNL     1       1.719   4.970  20.170  0.00  0.00    +0.000 C 
BRANCH   9  10
ATOM     10  C   UNL     1       2.344   4.271  21.370  0.00  0.00    +0.000 C 
BRANCH  10  12
ATOM     11  C   UNL     1       1.237   2.297  20.307  0.00  0.00    +0.000 C 
ATOM     12  C   UNL     1       1.764   2.885  21.608  0.00  0.00    +0.000 C 
ENDBRANCH  10  12
ENDBRANCH   9  10
ENDBRANCH   6   9
ENDBRANCH   1   6
BRANCH   4  13
ATOM     13  C   UNL     1       6.354   4.480  16.831  0.00  0.00    +0.000 C 
BRANCH  13  14
ATOM     14  N   UNL     1       6.878   5.448  15.880  0.00  0.00    +0.000 N 
ATOM     15  C   UNL     1       7.024   5.002  14.579  0.00  0.00    +0.000 A 
ATOM     16  N   UNL     1       8.025   5.550  13.881  0.00  0.00    +0.000 NA
ATOM     17  C   UNL     1       8.120   5.206  12.581  0.00  0.00    +0.000 A 
ATOM     18  C   UNL     1       7.250   4.347  11.961  0.00  0.00    +0.000 A 
ATOM     19  C   UNL     1       6.254   3.824  12.759  0.00  0.00    +0.000 A 
ATOM     20  N   UNL     1       6.152   4.126  14.073  0.00  0.00    +0.000 NA
ATOM     21  H   UNL     1       7.751   5.904  16.115  0.00  0.00    +0.000 HD
BRANCH  19  22
ATOM     22  C   UNL     1       5.179   2.948  12.166  0.00  0.00    +0.000 C 
ATOM     23  F   UNL     1       4.251   3.663  11.466  0.00  0.00    +0.000 F 
ATOM     24  F   UNL     1       5.666   2.023  11.290  0.00  0.00    +0.000 F 
ENDBRANCH  19  22
ENDBRANCH  13  14
ENDBRANCH   4  13
TORSDOF 7
ENDMDL
MODEL 8
REMARK VINA RESULT:      -7.0      4.479      6.186
REMARK  Name = 
REMARK  8 active torsions:
REMARK  status: ('A' for Active; 'I' for Inactive)
REMARK    1  A    between atoms: C_1  and  C_2
REMARK    2  A    between atoms: C_2  and  C_3
REMARK    3  A    between atoms: C_3  and  C_4
REMARK    4  A    between atoms: C_4  and  S_5
REMARK    5  A    between atoms: S_5  and  N_8
REMARK    6  A    between atoms: C_11  and  C_12
REMARK    7  A    between atoms: C_12  and  N_13
REMARK    8  A    between atoms: C_18  and  C_19
REMARK                            x       y       z     vdW  Elec       q    Type
REMARK                         _______ _______ _______ _____ _____    ______ ____
ROOT
ATOM      1  N   UNL     1       3.866   3.650  18.851  0.00  0.00    +0.000 NA
ATOM      2  C   UNL     1       2.769   3.761  17.852  0.00  0.00    +0.000 C 
ATOM      3  C   UNL     1       1.868   4.850  18.412  0.00  0.00    +0.000 C 
ATOM      4  C   UNL     1       1.817   4.485  19.891  0.00  0.00    +0.000 C 
ATOM      5  C   UNL     1       3.178   3.828  20.183  0.00  0.00    +0.000 C 
ENDROOT
BRANCH   1   6
ATOM      6  S   UNL     1       5.184   4.707  18.592  0.00  0.00    +0.000 S 
ATOM      7  O   UNL     1       6.386   3.948  18.780  0.00  0.00    +0.000 OA
ATOM      8  O   UNL     1       4.939   5.920  19.356  0.00  0.00    +0.000 OA
BRANCH   6   9
ATOM      9  C   UNL     1       5.038   5.110  16.836  0.00  0.00    +0.000 C 
BRANCH   9  10
ATOM     10  C   UNL     1       5.667   6.478  16.606  0.00  0.00    +0.000 C 
BRANCH  10  12
ATOM     11  C   UNL     1       7.615   7.683  17.608  0.00  0.00    +0.000 C 
ATOM     12  C   UNL     1       7.176   6.470  16.801  0.00  0.00    +0.000 C 
ENDBRANCH  10  12
ENDBRANCH   9  10
ENDBRANCH   6   9
ENDBRANCH   1   6
BRANCH   4  13
ATOM     13  C   UNL     1       1.521   5.671  20.814  0.00  0.00    +0.000 C 
BRANCH  13  14
ATOM     14  N   UNL     1       2.133   6.867  20.255  0.00  0.00    +0.000 N 
ATOM     15  C   UNL     1       1.420   8.042  20.410  0.00  0.00    +0.000 A 
ATOM     16  N   UNL     1       1.567   8.950  19.440  0.00  0.00    +0.000 NA
ATOM     17  C   UNL     1       0.964  10.141  19.623  0.00  0.00    +0.000 A 
ATOM     18  C   UNL     1       0.232  10.454  20.739  0.00  0.00    +0.000 A 
ATOM     19  C   UNL     1       0.125   9.455  21.685  0.00  0.00    +0.000 A 
ATOM     20  N   UNL     1       0.694   8.240  21.514  0.00  0.00    +0.000 NA
ATOM     21  H   UNL     1       2.405   6.837  19.281  0.00  0.00    +0.000 HD
BRANCH  19  22
ATOM     22  C   UNL     1      -0.569   9.715  22.998  0.00  0.00    +0.000 C 
ATOM     23  F   UNL     1       0.185   9.335  24.070  0.00  0.00    +0.000 F 
ATOM     24  F   UNL     1      -0.855  11.033  23.199  0.00  0.00    +0.000 F 
ENDBRANCH  19  22
ENDBRANCH  13  14
ENDBRANCH   4  13
TORSDOF 7
ENDMDL
MODEL 9
REMARK VINA RESULT:      -6.9      4.281      5.994
REMARK  Name = 
REMARK  8 active torsions:
REMARK  status: ('A' for Active; 'I' for Inactive)
REMARK    1  A    between atoms: C_1  and  C_2
REMARK    2  A    between atoms: C_2  and  C_3
REMARK    3  A    between atoms: C_3  and  C_4
REMARK    4  A    between atoms: C_4  and  S_5
REMARK    5  A    between atoms: S_5  and  N_8
REMARK    6  A    between atoms: C_11  and  C_12
REMARK    7  A    between atoms: C_12  and  N_13
REMARK    8  A    between atoms: C_18  and  C_19
REMARK                            x       y       z     vdW  Elec       q    Type
REMARK                         _______ _______ _______ _____ _____    ______ ____
ROOT
ATOM      1  N   UNL     1       4.929   4.469  18.546  0.00  0.00    +0.000 NA
ATOM      2  C   UNL     1       4.199   3.181  18.697  0.00  0.00    +0.000 C 
ATOM      3  C   UNL     1       2.800   3.597  19.123  0.00  0.00    +0.000 C 
ATOM      4  C   UNL     1       3.094   4.686  20.147  0.00  0.00    +0.000 C 
ATOM      5  C   UNL     1       4.412   5.327  19.675  0.00  0.00    +0.000 C 
ENDROOT
BRANCH   1   6
ATOM      6  S   UNL     1       4.802   5.189  17.000  0.00  0.00    +0.000 S 
ATOM      7  O   UNL     1       4.102   6.429  17.161  0.00  0.00    +0.000 OA
ATOM      8  O   UNL     1       4.324   4.174  16.075  0.00  0.00    +0.000 OA
BRANCH   6   9
ATOM      9  C   UNL     1       6.522   5.559  16.586  0.00  0.00    +0.000 C 
BRANCH   9  10
ATOM     10  C   UNL     1       7.382   5.263  17.808  0.00  0.00    +0.000 C 
BRANCH  10  12
ATOM     11  C   UNL     1       7.719   7.734  17.626  0.00  0.00    +0.000 C 
ATOM     12  C   UNL     1       7.809   6.524  18.544  0.00  0.00    +0.000 C 
ENDBRANCH  10  12
ENDBRANCH   9  10
ENDBRANCH   6   9
ENDBRANCH   1   6
BRANCH   4  13
ATOM     13  C   UNL     1       1.964   5.707  20.312  0.00  0.00    +0.000 C 
BRANCH  13  14
ATOM     14  N   UNL     1       2.407   6.988  19.785  0.00  0.00    +0.000 N 
ATOM     15  C   UNL     1       1.591   8.071  20.058  0.00  0.00    +0.000 A 
ATOM     16  N   UNL     1       1.573   9.039  19.135  0.00  0.00    +0.000 NA
ATOM     17  C   UNL     1       0.866  10.148  19.430  0.00  0.00    +0.000 A 
ATOM     18  C   UNL     1       0.190  10.323  20.610  0.00  0.00    +0.000 A 
ATOM     19  C   UNL     1       0.257   9.271  21.500  0.00  0.00    +0.000 A 
ATOM     20  N   UNL     1       0.933   8.133  21.219  0.00  0.00    +0.000 NA
ATOM     21  H   UNL     1       2.608   7.038  18.794  0.00  0.00    +0.000 HD
BRANCH  19  22
ATOM     22  C   UNL     1      -0.361   9.387  22.870  0.00  0.00    +0.000 C 
ATOM     23  F   UNL     1       0.574   9.393  23.865  0.00  0.00    +0.000 F 
ATOM     24  F   UNL     1      -1.080  10.533  23.036  0.00  0.00    +0.000 F 
ENDBRANCH  19  22
ENDBRANCH  13  14
ENDBRANCH   4  13
TORSDOF 7
ENDMDL
