MODEL 1
REMARK VINA RESULT:      -7.8      0.000      0.000
REMARK  Name = 
REMARK  5 active torsions:
REMARK  status: ('A' for Active; 'I' for Inactive)
REMARK    1  A    between atoms: C_1  and  C_2
REMARK    2  A    between atoms: C_2  and  O_3
REMARK    3  A    between atoms: C_2  and  C_4
REMARK    4  A    between atoms: C_8  and  N_9
REMARK    5  A    between atoms: C_10  and  C_12
REMARK                            x       y       z     vdW  Elec       q    Type
REMARK                         _______ _______ _______ _____ _____    ______ ____
ROOT
ATOM      1  C   UNL     1       5.855   4.890  15.180  0.00  0.00    +0.000 A 
ATOM      2  C   UNL     1       5.693   6.266  15.393  0.00  0.00    +0.000 A 
ATOM      3  C   UNL     1       4.843   6.734  16.390  0.00  0.00    +0.000 A 
ATOM      4  C   UNL     1       4.165   5.836  17.212  0.00  0.00    +0.000 A 
ATOM      5  C   UNL     1       4.334   4.459  17.058  0.00  0.00    +0.000 A 
ATOM      6  C   UNL     1       5.164   3.993  16.026  0.00  0.00    +0.000 A 
ENDROOT
BRANCH   5   7
ATOM      7  N   UNL     1       3.681   3.517  17.888  0.00  0.00    +0.000 N 
ATOM      8  C   UNL     1       4.141   3.083  19.126  0.00  0.00    +0.000 C 
ATOM      9  O   UNL     1       5.252   3.326  19.583  0.00  0.00    +0.000 OA
ATOM     10  H   UNL     1       2.883   3.037  17.493  0.00  0.00    +0.000 HD
BRANCH   8  11
ATOM     11  C   UNL     1       3.145   2.191  19.888  0.00  0.00    +0.000 C 
ATOM     12  C   UNL     1       2.860   2.735  21.302  0.00  0.00    +0.000 C 
ATOM     13  C   UNL     1       1.997   4.001  21.300  0.00  0.00    +0.000 C 
ATOM     14  C   UNL     1       0.718   3.822  20.491  0.00  0.00    +0.000 C 
ATOM     15  C   UNL     1       0.998   3.288  19.090  0.00  0.00    +0.000 C 
ATOM     16  C   UNL     1       1.824   2.005  19.128  0.00  0.00    +0.000 C 
ENDBRANCH   8  11
ENDBRANCH   5   7
BRANCH   1  18
ATOM     17  C   UNL     1       6.111   3.665  12.933  0.00  0.00    +0.000 C 
ATOM     18  C   UNL     1       6.792   4.351  14.116  0.00  0.00    +0.000 C 
BRANCH  18  19
ATOM     19  O   UNL     1       7.590   5.417  13.603  0.00  0.00    +0.000 OA
ATOM     20  H   UNL     1       8.099   5.787  14.346  0.00  0.00    +0.000 HD
ENDBRANCH  18  19
ENDBRANCH   1  18
TORSDOF 4
ENDMDL
MODEL 2
REMARK VINA RESULT:      -7.7      1.009      1.009
REMARK  Name = 
REMARK  5 active torsions:
REMARK  status: ('A' for Active; 'I' for Inactive)
REMARK    1  A    between atoms: C_1  and  C_2
REMARK    2  A    between atoms: C_2  and  O_3
REMARK    3  A    between atoms: C_2  and  C_4
REMARK    4  A    between atoms: C_8  and  N_9
REMARK    5  A    between atoms: C_10  and  C_12
REMARK                            x       y       z     vdW  Elec       q    Type
REMARK                         _______ _______ _______ _____ _____    ______ ____
ROOT
ATOM      1  C   UNL     1       6.561   4.837  15.863  0.00  0.00    +0.000 A 
ATOM      2  C   UNL     1       7.104   5.901  16.597  0.00  0.00    +0.000 A 
ATOM      3  C   UNL     1       6.607   6.218  17.857  0.00  0.00    +0.000 A 
ATOM      4  C   UNL     1       5.584   5.459  18.419  0.00  0.00    +0.000 A 
ATOM      5  C   UNL     1       5.048   4.365  17.737  0.00  0.00    +0.000 A 
ATOM      6  C   UNL     1       5.527   4.073  16.450  0.00  0.00    +0.000 A 
ENDROOT
BRANCH   5   7
ATOM      7  N   UNL     1       4.024   3.556  18.285  0.00  0.00    +0.000 N 
ATOM      8  C   UNL     1       4.149   2.761  19.418  0.00  0.00    +0.000 C 
ATOM      9  O   UNL     1       5.206   2.522  19.990  0.00  0.00    +0.000 OA
ATOM     10  H   UNL     1       3.178   3.460  17.739  0.00  0.00    +0.000 HD
BRANCH   8  11
ATOM     11  C   UNL     1       2.828   2.127  19.889  0.00  0.00    +0.000 C 
ATOM     12  C   UNL     1       2.451   2.586  21.312  0.00  0.00    +0.000 C 
ATOM     13  C   UNL     1       1.980   4.043  21.373  0.00  0.00    +0.000 C 
ATOM     14  C   UNL     1       0.867   4.328  20.370  0.00  0.00    +0.000 C 
ATOM     15  C   UNL     1       1.239   3.879  18.960  0.00  0.00    +0.000 C 
ATOM     16  C   UNL     1       1.666   2.412  18.928  0.00  0.00    +0.000 C 
ENDBRANCH   8  11
ENDBRANCH   5   7
BRANCH   1  18
ATOM     17  C   UNL     1       6.050   3.964  13.499  0.00  0.00    +0.000 C 
ATOM     18  C   UNL     1       7.097   4.454  14.497  0.00  0.00    +0.000 C 
BRANCH  18  19
ATOM     19  O   UNL     1       7.763   5.575  13.917  0.00  0.00    +0.000 OA
ATOM     20  H   UNL     1       7.451   6.373  14.378  0.00  0.00    +0.000 HD
ENDBRANCH  18  19
ENDBRANCH   1  18
TORSDOF 4
ENDMDL
MODEL 3
REMARK VINA RESULT:      -7.5      1.628      2.249
REMARK  Name = 
REMARK  5 active torsions:
REMARK  status: ('A' for Active; 'I' for Inactive)
REMARK    1  A    between atoms: C_1  and  C_2
REMARK    2  A    between atoms: C_2  and  O_3
REMARK    3  A    between atoms: C_2  and  C_4
REMARK    4  A    between atoms: C_8  and  N_9
REMARK    5  A    between atoms: C_10  and  C_12
REMARK                            x       y       z     vdW  Elec       q    Type
REMARK                         _______ _______ _______ _____ _____    ______ ____
ROOT
ATOM      1  C   UNL     1       6.336   4.625  15.228  0.00  0.00    +0.000 A 
ATOM      2  C   UNL     1       7.454   4.580  16.073  0.00  0.00    +0.000 A 
ATOM      3  C   UNL     1       7.301   4.651  17.454  0.00  0.00    +0.000 A 
ATOM      4  C   UNL     1       6.030   4.735  18.016  0.00  0.00    +0.000 A 
ATOM      5  C   UNL     1       4.890   4.738  17.209  0.00  0.00    +0.000 A 
ATOM      6  C   UNL     1       5.052   4.704  15.815  0.00  0.00    +0.000 A 
ENDROOT
BRANCH   5   7
ATOM      7  N   UNL     1       3.581   4.798  17.743  0.00  0.00    +0.000 N 
ATOM      8  C   UNL     1       2.757   3.702  17.972  0.00  0.00    +0.000 C 
ATOM      9  O   UNL     1       2.985   2.563  17.582  0.00  0.00    +0.000 OA
ATOM     10  H   UNL     1       3.175   5.718  17.853  0.00  0.00    +0.000 HD
BRANCH   8  11
ATOM     11  C   UNL     1       1.457   4.041  18.723  0.00  0.00    +0.000 C 
ATOM     12  C   UNL     1       0.814   2.784  19.344  0.00  0.00    +0.000 C 
ATOM     13  C   UNL     1       1.583   2.247  20.554  0.00  0.00    +0.000 C 
ATOM     14  C   UNL     1       1.839   3.329  21.598  0.00  0.00    +0.000 C 
ATOM     15  C   UNL     1       2.480   4.571  20.988  0.00  0.00    +0.000 C 
ATOM     16  C   UNL     1       1.668   5.105  19.809  0.00  0.00    +0.000 C 
ENDBRANCH   8  11
ENDBRANCH   5   7
BRANCH   1  18
ATOM     17  C   UNL     1       7.760   5.102  13.141  0.00  0.00    +0.000 C 
ATOM     18  C   UNL     1       6.470   4.527  13.720  0.00  0.00    +0.000 C 
BRANCH  18  19
ATOM     19  O   UNL     1       6.385   3.158  13.325  0.00  0.00    +0.000 OA
ATOM     20  H   UNL     1       5.564   2.794  13.700  0.00  0.00    +0.000 HD
ENDBRANCH  18  19
ENDBRANCH   1  18
TORSDOF 4
ENDMDL
MODEL 4
REMARK VINA RESULT:      -7.5      1.324      1.740
REMARK  Name = 
REMARK  5 active torsions:
REMARK  status: ('A' for Active; 'I' for Inactive)
REMARK    1  A    between atoms: C_1  and  C_2
REMARK    2  A    between atoms: C_2  and  O_3
REMARK    3  A    between atoms: C_2  and  C_4
REMARK    4  A    between atoms: C_8  and  N_9
REMARK    5  A    between atoms: C_10  and  C_12
REMARK                            x       y       z     vdW  Elec       q    Type
REMARK                         _______ _______ _______ _____ _____    ______ ____
ROOT
ATOM      1  C   UNL     1       5.738   5.044  15.492  0.00  0.00    +0.000 A 
ATOM      2  C   UNL     1       5.678   6.431  15.690  0.00  0.00    +0.000 A 
ATOM      3  C   UNL     1       4.821   6.974  16.642  0.00  0.00    +0.000 A 
ATOM      4  C   UNL     1       4.036   6.142  17.435  0.00  0.00    +0.000 A 
ATOM      5  C   UNL     1       4.101   4.754  17.298  0.00  0.00    +0.000 A 
ATOM      6  C   UNL     1       4.939   4.213  16.310  0.00  0.00    +0.000 A 
ENDROOT
BRANCH   5   7
ATOM      7  N   UNL     1       3.336   3.875  18.101  0.00  0.00    +0.000 N 
ATOM      8  C   UNL     1       2.003   3.545  17.884  0.00  0.00    +0.000 C 
ATOM      9  O   UNL     1       1.268   4.101  17.076  0.00  0.00    +0.000 OA
ATOM     10  H   UNL     1       3.760   3.560  18.964  0.00  0.00    +0.000 HD
BRANCH   8  11
ATOM     11  C   UNL     1       1.475   2.431  18.805  0.00  0.00    +0.000 C 
ATOM     12  C   UNL     1       2.623   1.690  19.519  0.00  0.00    +0.000 C 
ATOM     13  C   UNL     1       3.292   2.525  20.616  0.00  0.00    +0.000 C 
ATOM     14  C   UNL     1       2.278   3.090  21.605  0.00  0.00    +0.000 C 
ATOM     15  C   UNL     1       1.143   3.827  20.901  0.00  0.00    +0.000 C 
ATOM     16  C   UNL     1       0.472   2.954  19.843  0.00  0.00    +0.000 C 
ENDBRANCH   8  11
ENDBRANCH   5   7
BRANCH   1  18
ATOM     17  C   UNL     1       6.008   3.850  13.231  0.00  0.00    +0.000 C 
ATOM     18  C   UNL     1       6.679   4.422  14.478  0.00  0.00    +0.000 C 
BRANCH  18  19
ATOM     19  O   UNL     1       7.631   5.397  14.054  0.00  0.00    +0.000 OA
ATOM     20  H   UNL     1       7.334   5.743  13.194  0.00  0.00    +0.000 HD
ENDBRANCH  18  19
ENDBRANCH   1  18
TORSDOF 4
ENDMDL
MODEL 5
REMARK VINA RESULT:      -7.5      2.266      3.486
REMARK  Name = 
REMARK  5 active torsions:
REMARK  status: ('A' for Active; 'I' for Inactive)
REMARK    1  A    between atoms: C_1  and  C_2
REMARK    2  A    between atoms: C_2  and  O_3
REMARK    3  A    between atoms: C_2  and  C_4
REMARK    4  A    between atoms: C_8  and  N_9
REMARK    5  A    between atoms: C_10  and  C_12
REMARK                            x       y       z     vdW  Elec       q    Type
REMARK                         _______ _______ _______ _____ _____    ______ ____
ROOT
ATOM      1  C   UNL     1       7.042   5.054  17.897  0.00  0.00    +0.000 A 
ATOM      2  C   UNL     1       7.295   4.778  16.545  0.00  0.00    +0.000 A 
ATOM      3  C   UNL     1       6.341   4.140  15.761  0.00  0.00    +0.000 A 
ATOM      4  C   UNL     1       5.105   3.795  16.302  0.00  0.00    +0.000 A 
ATOM      5  C   UNL     1       4.798   4.092  17.632  0.00  0.00    +0.000 A 
ATOM      6  C   UNL     1       5.780   4.703  18.429  0.00  0.00    +0.000 A 
ENDROOT
BRANCH   5   7
ATOM      7  N   UNL     1       3.546   3.778  18.211  0.00  0.00    +0.000 N 
ATOM      8  C   UNL     1       2.468   4.650  18.311  0.00  0.00    +0.000 C 
ATOM      9  O   UNL     1       2.515   5.850  18.070  0.00  0.00    +0.000 OA
ATOM     10  H   UNL     1       3.476   2.893  18.694  0.00  0.00    +0.000 HD
BRANCH   8  11
ATOM     11  C   UNL     1       1.175   3.992  18.825  0.00  0.00    +0.000 C 
ATOM     12  C   UNL     1       1.257   2.453  18.764  0.00  0.00    +0.000 C 
ATOM     13  C   UNL     1       2.191   1.855  19.820  0.00  0.00    +0.000 C 
ATOM     14  C   UNL     1       1.863   2.353  21.224  0.00  0.00    +0.000 C 
ATOM     15  C   UNL     1       1.786   3.875  21.288  0.00  0.00    +0.000 C 
ATOM     16  C   UNL     1       0.816   4.436  20.249  0.00  0.00    +0.000 C 
ENDBRANCH   8  11
ENDBRANCH   5   7
BRANCH   1  18
ATOM     17  C   UNL     1       8.156   7.277  18.551  0.00  0.00    +0.000 C 
ATOM     18  C   UNL     1       8.055   5.769  18.770  0.00  0.00    +0.000 C 
BRANCH  18  19
ATOM     19  O   UNL     1       7.738   5.546  20.143  0.00  0.00    +0.000 OA
ATOM     20  H   UNL     1       7.221   6.310  20.453  0.00  0.00    +0.000 HD
ENDBRANCH  18  19
ENDBRANCH   1  18
TORSDOF 4
ENDMDL
MODEL 6
REMARK VINA RESULT:      -7.5      1.507      1.633
REMARK  Name = 
REMARK  5 active torsions:
REMARK  status: ('A' for Active; 'I' for Inactive)
REMARK    1  A    between atoms: C_1  and  C_2
REMARK    2  A    between atoms: C_2  and  O_3
REMARK    3  A    between atoms: C_2  and  C_4
REMARK    4  A    between atoms: C_8  and  N_9
REMARK    5  A    between atoms: C_10  and  C_12
REMARK                            x       y       z     vdW  Elec       q    Type
REMARK                         _______ _______ _______ _____ _____    ______ ____
ROOT
ATOM      1  C   UNL     1       6.848   4.957  15.898  0.00  0.00    +0.000 A 
ATOM      2  C   UNL     1       7.471   6.096  16.425  0.00  0.00    +0.000 A 
ATOM      3  C   UNL     1       7.296   6.447  17.760  0.00  0.00    +0.000 A 
ATOM      4  C   UNL     1       6.522   5.648  18.598  0.00  0.00    +0.000 A 
ATOM      5  C   UNL     1       5.921   4.482  18.121  0.00  0.00    +0.000 A 
ATOM      6  C   UNL     1       6.071   4.154  16.764  0.00  0.00    +0.000 A 
ENDROOT
BRANCH   5   7
ATOM      7  N   UNL     1       5.147   3.633  18.947  0.00  0.00    +0.000 N 
ATOM      8  C   UNL     1       4.025   4.022  19.670  0.00  0.00    +0.000 C 
ATOM      9  O   UNL     1       3.661   5.183  19.825  0.00  0.00    +0.000 OA
ATOM     10  H   UNL     1       5.511   2.705  19.116  0.00  0.00    +0.000 HD
BRANCH   8  11
ATOM     11  C   UNL     1       3.275   2.857  20.341  0.00  0.00    +0.000 C 
ATOM     12  C   UNL     1       2.052   3.351  21.139  0.00  0.00    +0.000 C 
ATOM     13  C   UNL     1       0.896   3.815  20.247  0.00  0.00    +0.000 C 
ATOM     14  C   UNL     1       0.512   2.764  19.211  0.00  0.00    +0.000 C 
ATOM     15  C   UNL     1       1.720   2.277  18.417  0.00  0.00    +0.000 C 
ATOM     16  C   UNL     1       2.838   1.784  19.334  0.00  0.00    +0.000 C 
ENDBRANCH   8  11
ENDBRANCH   5   7
BRANCH   1  18
ATOM     17  C   UNL     1       5.770   4.097  13.727  0.00  0.00    +0.000 C 
ATOM     18  C   UNL     1       7.039   4.538  14.453  0.00  0.00    +0.000 C 
BRANCH  18  19
ATOM     19  O   UNL     1       7.610   5.619  13.717  0.00  0.00    +0.000 OA
ATOM     20  H   UNL     1       7.027   6.390  13.828  0.00  0.00    +0.000 HD
ENDBRANCH  18  19
ENDBRANCH   1  18
TORSDOF 4
ENDMDL
MODEL 7
REMARK VINA RESULT:      -7.5      1.833      2.361
REMARK  Name = 
REMARK  5 active torsions:
REMARK  status: ('A' for Active; 'I' for Inactive)
REMARK    1  A    between atoms: C_1  and  C_2
REMARK    2  A    between atoms: C_2  and  O_3
REMARK    3  A    between atoms: C_2  and  C_4
REMARK    4  A    between atoms: C_8  and  N_9
REMARK    5  A    between atoms: C_10  and  C_12
REMARK                            x       y       z     vdW  Elec       q    Type
REMARK                         _______ _______ _______ _____ _____    ______ ____
ROOT
ATOM      1  C   UNL     1       6.684   4.823  16.456  0.00  0.00    +0.000 A 
ATOM      2  C   UNL     1       7.700   5.069  17.392  0.00  0.00    +0.000 A 
ATOM      3  C   UNL     1       7.388   5.358  18.716  0.00  0.00    +0.000 A 
ATOM      4  C   UNL     1       6.060   5.374  19.136  0.00  0.00    +0.000 A 
ATOM      5  C   UNL     1       5.024   5.092  18.245  0.00  0.00    +0.000 A 
ATOM      6  C   UNL     1       5.343   4.838  16.901  0.00  0.00    +0.000 A 
ENDROOT
BRANCH   5   7
ATOM      7  N   UNL     1       3.665   5.076  18.639  0.00  0.00    +0.000 N 
ATOM      8  C   UNL     1       2.738   4.102  18.285  0.00  0.00    +0.000 C 
ATOM      9  O   UNL     1       2.930   3.227  17.448  0.00  0.00    +0.000 OA
ATOM     10  H   UNL     1       3.318   5.899  19.113  0.00  0.00    +0.000 HD
BRANCH   8  11
ATOM     11  C   UNL     1       1.381   4.239  18.998  0.00  0.00    +0.000 C 
ATOM     12  C   UNL     1       0.705   2.868  19.204  0.00  0.00    +0.000 C 
ATOM     13  C   UNL     1       1.385   2.016  20.280  0.00  0.00    +0.000 C 
ATOM     14  C   UNL     1       1.548   2.773  21.594  0.00  0.00    +0.000 C 
ATOM     15  C   UNL     1       2.221   4.128  21.393  0.00  0.00    +0.000 C 
ATOM     16  C   UNL     1       1.496   4.968  20.343  0.00  0.00    +0.000 C 
ENDBRANCH   8  11
ENDBRANCH   5   7
BRANCH   1  18
ATOM     17  C   UNL     1       5.780   4.192  14.133  0.00  0.00    +0.000 C 
ATOM     18  C   UNL     1       6.995   4.483  15.011  0.00  0.00    +0.000 C 
BRANCH  18  19
ATOM     19  O   UNL     1       7.717   5.560  14.415  0.00  0.00    +0.000 OA
ATOM     20  H   UNL     1       7.664   5.451  13.450  0.00  0.00    +0.000 HD
ENDBRANCH  18  19
ENDBRANCH   1  18
TORSDOF 4
ENDMDL
MODEL 8
REMARK VINA RESULT:      -7.5      2.195      3.336
REMARK  Name = 
REMARK  5 active torsions:
REMARK  status: ('A' for Active; 'I' for Inactive)
REMARK    1  A    between atoms: C_1  and  C_2
REMARK    2  A    between atoms: C_2  and  O_3
REMARK    3  A    between atoms: C_2  and  C_4
REMARK    4  A    between atoms: C_8  and  N_9
REMARK    5  A    between atoms: C_10  and  C_12
REMARK                            x       y       z     vdW  Elec       q    Type
REMARK                         _______ _______ _______ _____ _____    ______ ____
ROOT
ATOM      1  C   UNL     1       7.097   5.217  17.708  0.00  0.00    +0.000 A 
ATOM      2  C   UNL     1       7.533   4.842  16.429  0.00  0.00    +0.000 A 
ATOM      3  C   UNL     1       6.643   4.301  15.507  0.00  0.00    +0.000 A 
ATOM      4  C   UNL     1       5.297   4.158  15.833  0.00  0.00    +0.000 A 
ATOM      5  C   UNL     1       4.816   4.560  17.080  0.00  0.00    +0.000 A 
ATOM      6  C   UNL     1       5.726   5.070  18.020  0.00  0.00    +0.000 A 
ENDROOT
BRANCH   5   7
ATOM      7  N   UNL     1       3.452   4.452  17.440  0.00  0.00    +0.000 N 
ATOM      8  C   UNL     1       2.810   3.274  17.805  0.00  0.00    +0.000 C 
ATOM      9  O   UNL     1       3.292   2.152  17.696  0.00  0.00    +0.000 OA
ATOM     10  H   UNL     1       2.877   5.273  17.304  0.00  0.00    +0.000 HD
BRANCH   8  11
ATOM     11  C   UNL     1       1.372   3.475  18.316  0.00  0.00    +0.000 C 
ATOM     12  C   UNL     1       0.893   2.274  19.156  0.00  0.00    +0.000 C 
ATOM     13  C   UNL     1       1.561   2.193  20.532  0.00  0.00    +0.000 C 
ATOM     14  C   UNL     1       1.451   3.505  21.301  0.00  0.00    +0.000 C 
ATOM     15  C   UNL     1       1.928   4.694  20.475  0.00  0.00    +0.000 C 
ATOM     16  C   UNL     1       1.214   4.769  19.126  0.00  0.00    +0.000 C 
ENDBRANCH   8  11
ENDBRANCH   5   7
BRANCH   1  18
ATOM     17  C   UNL     1       8.239   7.339  18.605  0.00  0.00    +0.000 C 
ATOM     18  C   UNL     1       8.040   5.830  18.726  0.00  0.00    +0.000 C 
BRANCH  18  19
ATOM     19  O   UNL     1       7.560   5.556  20.042  0.00  0.00    +0.000 OA
ATOM     20  H   UNL     1       8.331   5.527  20.635  0.00  0.00    +0.000 HD
ENDBRANCH  18  19
ENDBRANCH   1  18
TORSDOF 4
ENDMDL
MODEL 9
REMARK VINA RESULT:      -7.4      1.453      1.705
REMARK  Name = 
REMARK  5 active torsions:
REMARK  status: ('A' for Active; 'I' for Inactive)
REMARK    1  A    between atoms: C_1  and  C_2
REMARK    2  A    between atoms: C_2  and  O_3
REMARK    3  A    between atoms: C_2  and  C_4
REMARK    4  A    between atoms: C_8  and  N_9
REMARK    5  A    between atoms: C_10  and  C_12
REMARK                            x       y       z     vdW  Elec       q    Type
REMARK                         _______ _______ _______ _____ _____    ______ ____
ROOT
ATOM      1  C   UNL     1       6.648   4.874  15.875  0.00  0.00    +0.000 A 
ATOM      2  C   UNL     1       7.175   5.956  16.595  0.00  0.00    +0.000 A 
ATOM      3  C   UNL     1       6.685   6.274  17.857  0.00  0.00    +0.000 A 
ATOM      4  C   UNL     1       5.683   5.498  18.436  0.00  0.00    +0.000 A 
ATOM      5  C   UNL     1       5.164   4.387  17.769  0.00  0.00    +0.000 A 
ATOM      6  C   UNL     1       5.637   4.094  16.480  0.00  0.00    +0.000 A 
ENDROOT
BRANCH   5   7
ATOM      7  N   UNL     1       4.163   3.562  18.334  0.00  0.00    +0.000 N 
ATOM      8  C   UNL     1       2.800   3.660  18.073  0.00  0.00    +0.000 C 
ATOM      9  O   UNL     1       2.271   4.580  17.459  0.00  0.00    +0.000 OA
ATOM     10  H   UNL     1       4.452   2.934  19.072  0.00  0.00    +0.000 HD
BRANCH   8  11
ATOM     11  C   UNL     1       1.961   2.524  18.684  0.00  0.00    +0.000 C 
ATOM     12  C   UNL     1       2.742   1.763  19.774  0.00  0.00    +0.000 C 
ATOM     13  C   UNL     1       2.918   2.568  21.066  0.00  0.00    +0.000 C 
ATOM     14  C   UNL     1       1.592   3.110  21.589  0.00  0.00    +0.000 C 
ATOM     15  C   UNL     1       0.819   3.867  20.513  0.00  0.00    +0.000 C 
ATOM     16  C   UNL     1       0.627   3.023  19.255  0.00  0.00    +0.000 C 
ENDBRANCH   8  11
ENDBRANCH   5   7
BRANCH   1  18
ATOM     17  C   UNL     1       6.131   3.981  13.520  0.00  0.00    +0.000 C 
ATOM     18  C   UNL     1       7.179   4.491  14.507  0.00  0.00    +0.000 C 
BRANCH  18  19
ATOM     19  O   UNL     1       7.825   5.617  13.916  0.00  0.00    +0.000 OA
ATOM     20  H   UNL     1       8.625   5.805  14.438  0.00  0.00    +0.000 HD
ENDBRANCH  18  19
ENDBRANCH   1  18
TORSDOF 4
ENDMDL
