MODEL 1
REMARK VINA RESULT:      -8.2      0.000      0.000
REMARK  Name = 
REMARK  2 active torsions:
REMARK  status: ('A' for Active; 'I' for Inactive)
REMARK    1  A    between atoms: C_1  and  C_2
REMARK    2  A    between atoms: C_4  and  N_5
REMARK                            x       y       z     vdW  Elec       q    Type
REMARK                         _______ _______ _______ _____ _____    ______ ____
ROOT
ATOM      1  N   UNL     1       4.643   5.238  18.553  0.00  0.00    +0.000 N 
ATOM      2  C   UNL     1       5.350   4.090  18.773  0.00  0.00    +0.000 C 
ATOM      3  O   UNL     1       5.280   3.319  19.715  0.00  0.00    +0.000 OA
ATOM      4  N   UNL     1       6.169   3.861  17.690  0.00  0.00    +0.000 N 
ATOM      5  C   UNL     1       5.798   4.680  16.559  0.00  0.00    +0.000 C 
ATOM      6  C   UNL     1       6.970   5.479  15.961  0.00  0.00    +0.000 C 
ATOM      7  C   UNL     1       6.996   5.021  14.536  0.00  0.00    +0.000 A 
ATOM      8  C   UNL     1       7.881   5.420  13.547  0.00  0.00    +0.000 A 
ATOM      9  C   UNL     1       7.738   4.881  12.267  0.00  0.00    +0.000 A 
ATOM     10  C   UNL     1       6.719   3.957  11.992  0.00  0.00    +0.000 A 
ATOM     11  C   UNL     1       5.828   3.567  12.993  0.00  0.00    +0.000 A 
ATOM     12  C   UNL     1       5.976   4.111  14.259  0.00  0.00    +0.000 A 
ATOM     13  C   UNL     1       5.113   3.850  15.453  0.00  0.00    +0.000 C 
ATOM     14  C   UNL     1       4.787   5.609  17.237  0.00  0.00    +0.000 C 
ATOM     15  O   UNL     1       4.170   6.503  16.672  0.00  0.00    +0.000 OA
ATOM     16  H   UNL     1       6.679   2.989  17.626  0.00  0.00    +0.000 HD
ENDROOT
BRANCH   1  20
ATOM     17  C   UNL     1       1.408   3.763  18.624  0.00  0.00    +0.000 C 
ATOM     18  C   UNL     1       1.675   4.942  19.548  0.00  0.00    +0.000 C 
ATOM     19  C   UNL     1       2.265   6.203  18.886  0.00  0.00    +0.000 C 
ATOM     20  C   UNL     1       3.656   5.852  19.460  0.00  0.00    +0.000 C 
ATOM     21  C   UNL     1       2.950   4.846  20.408  0.00  0.00    +0.000 C 
ENDBRANCH   1  20
TORSDOF 1
ENDMDL
MODEL 2
REMARK VINA RESULT:      -8.1      1.338      1.722
REMARK  Name = 
REMARK  2 active torsions:
REMARK  status: ('A' for Active; 'I' for Inactive)
REMARK    1  A    between atoms: C_1  and  C_2
REMARK    2  A    between atoms: C_4  and  N_5
REMARK                            x       y       z     vdW  Elec       q    Type
REMARK                         _______ _______ _______ _____ _____    ______ ____
ROOT
ATOM      1  N   UNL     1       3.711   4.217  19.793  0.00  0.00    +0.000 N 
ATOM      2  C   UNL     1       4.452   3.072  19.873  0.00  0.00    +0.000 C 
ATOM      3  O   UNL     1       4.322   2.131  20.638  0.00  0.00    +0.000 OA
ATOM      4  N   UNL     1       5.394   3.083  18.869  0.00  0.00    +0.000 N 
ATOM      5  C   UNL     1       5.104   4.093  17.877  0.00  0.00    +0.000 C 
ATOM      6  C   UNL     1       6.290   5.029  17.582  0.00  0.00    +0.000 C 
ATOM      7  C   UNL     1       6.494   4.857  16.109  0.00  0.00    +0.000 A 
ATOM      8  C   UNL     1       7.458   5.467  15.323  0.00  0.00    +0.000 A 
ATOM      9  C   UNL     1       7.484   5.182  13.956  0.00  0.00    +0.000 A 
ATOM     10  C   UNL     1       6.553   4.296  13.395  0.00  0.00    +0.000 A 
ATOM     11  C   UNL     1       5.580   3.691  14.194  0.00  0.00    +0.000 A 
ATOM     12  C   UNL     1       5.561   3.985  15.549  0.00  0.00    +0.000 A 
ATOM     13  C   UNL     1       4.589   3.470  16.562  0.00  0.00    +0.000 C 
ATOM     14  C   UNL     1       3.977   4.840  18.596  0.00  0.00    +0.000 C 
ATOM     15  O   UNL     1       3.377   5.806  18.141  0.00  0.00    +0.000 OA
ATOM     16  H   UNL     1       5.954   2.256  18.702  0.00  0.00    +0.000 HD
ENDROOT
BRANCH   1  20
ATOM     17  C   UNL     1       0.627   2.506  19.340  0.00  0.00    +0.000 C 
ATOM     18  C   UNL     1       0.709   3.550  20.443  0.00  0.00    +0.000 C 
ATOM     19  C   UNL     1       1.237   4.938  20.027  0.00  0.00    +0.000 C 
ATOM     20  C   UNL     1       2.601   4.611  20.677  0.00  0.00    +0.000 C 
ATOM     21  C   UNL     1       1.910   3.424  21.400  0.00  0.00    +0.000 C 
ENDBRANCH   1  20
TORSDOF 1
ENDMDL
MODEL 3
REMARK VINA RESULT:      -7.9      3.230      4.080
REMARK  Name = 
REMARK  2 active torsions:
REMARK  status: ('A' for Active; 'I' for Inactive)
REMARK    1  A    between atoms: C_1  and  C_2
REMARK    2  A    between atoms: C_4  and  N_5
REMARK                            x       y       z     vdW  Elec       q    Type
REMARK                         _______ _______ _______ _____ _____    ______ ____
ROOT
ATOM      1  N   UNL     1       2.474   3.917  18.468  0.00  0.00    +0.000 N 
ATOM      2  C   UNL     1       2.980   3.413  17.303  0.00  0.00    +0.000 C 
ATOM      3  O   UNL     1       2.429   2.711  16.472  0.00  0.00    +0.000 OA
ATOM      4  N   UNL     1       4.264   3.882  17.139  0.00  0.00    +0.000 N 
ATOM      5  C   UNL     1       4.548   4.981  18.033  0.00  0.00    +0.000 C 
ATOM      6  C   UNL     1       5.832   4.791  18.861  0.00  0.00    +0.000 C 
ATOM      7  C   UNL     1       6.646   5.993  18.498  0.00  0.00    +0.000 A 
ATOM      8  C   UNL     1       7.916   6.310  18.954  0.00  0.00    +0.000 A 
ATOM      9  C   UNL     1       8.513   7.489  18.501  0.00  0.00    +0.000 A 
ATOM     10  C   UNL     1       7.839   8.330  17.604  0.00  0.00    +0.000 A 
ATOM     11  C   UNL     1       6.557   8.006  17.156  0.00  0.00    +0.000 A 
ATOM     12  C   UNL     1       5.972   6.836  17.615  0.00  0.00    +0.000 A 
ATOM     13  C   UNL     1       4.605   6.328  17.282  0.00  0.00    +0.000 C 
ATOM     14  C   UNL     1       3.304   4.914  18.923  0.00  0.00    +0.000 C 
ATOM     15  O   UNL     1       3.070   5.671  19.857  0.00  0.00    +0.000 OA
ATOM     16  H   UNL     1       4.752   3.707  16.269  0.00  0.00    +0.000 HD
ENDROOT
BRANCH   1  20
ATOM     17  C   UNL     1       2.349   2.613  21.773  0.00  0.00    +0.000 C 
ATOM     18  C   UNL     1       1.032   2.898  21.068  0.00  0.00    +0.000 C 
ATOM     19  C   UNL     1       0.865   2.282  19.665  0.00  0.00    +0.000 C 
ATOM     20  C   UNL     1       1.135   3.664  19.028  0.00  0.00    +0.000 C 
ATOM     21  C   UNL     1       0.901   4.293  20.427  0.00  0.00    +0.000 C 
ENDBRANCH   1  20
TORSDOF 1
ENDMDL
MODEL 4
REMARK VINA RESULT:      -7.4      3.720      6.126
REMARK  Name = 
REMARK  2 active torsions:
REMARK  status: ('A' for Active; 'I' for Inactive)
REMARK    1  A    between atoms: C_1  and  C_2
REMARK    2  A    between atoms: C_4  and  N_5
REMARK                            x       y       z     vdW  Elec       q    Type
REMARK                         _______ _______ _______ _____ _____    ______ ____
ROOT
ATOM      1  N   UNL     1       3.778   4.298  18.514  0.00  0.00    +0.000 N 
ATOM      2  C   UNL     1       4.845   4.975  19.033  0.00  0.00    +0.000 C 
ATOM      3  O   UNL     1       6.018   4.640  19.066  0.00  0.00    +0.000 OA
ATOM      4  N   UNL     1       4.413   6.199  19.490  0.00  0.00    +0.000 N 
ATOM      5  C   UNL     1       3.093   6.516  18.998  0.00  0.00    +0.000 C 
ATOM      6  C   UNL     1       2.098   6.915  20.103  0.00  0.00    +0.000 C 
ATOM      7  C   UNL     1       1.655   8.280  19.679  0.00  0.00    +0.000 A 
ATOM      8  C   UNL     1       0.763   9.111  20.338  0.00  0.00    +0.000 A 
ATOM      9  C   UNL     1       0.468  10.354  19.776  0.00  0.00    +0.000 A 
ATOM     10  C   UNL     1       1.065  10.751  18.570  0.00  0.00    +0.000 A 
ATOM     11  C   UNL     1       1.957   9.904  17.909  0.00  0.00    +0.000 A 
ATOM     12  C   UNL     1       2.239   8.670  18.474  0.00  0.00    +0.000 A 
ATOM     13  C   UNL     1       3.136   7.613  17.913  0.00  0.00    +0.000 C 
ATOM     14  C   UNL     1       2.718   5.165  18.382  0.00  0.00    +0.000 C 
ATOM     15  O   UNL     1       1.661   4.923  17.814  0.00  0.00    +0.000 OA
ATOM     16  H   UNL     1       5.092   6.884  19.799  0.00  0.00    +0.000 HD
ENDROOT
BRANCH   1  20
ATOM     17  C   UNL     1       1.373   1.988  19.749  0.00  0.00    +0.000 C 
ATOM     18  C   UNL     1       2.303   1.525  18.638  0.00  0.00    +0.000 C 
ATOM     19  C   UNL     1       3.811   1.737  18.882  0.00  0.00    +0.000 C 
ATOM     20  C   UNL     1       3.794   2.948  17.922  0.00  0.00    +0.000 C 
ATOM     21  C   UNL     1       2.410   2.459  17.417  0.00  0.00    +0.000 C 
ENDBRANCH   1  20
TORSDOF 1
ENDMDL
MODEL 5
REMARK VINA RESULT:      -7.1      2.431      6.654
REMARK  Name = 
REMARK  2 active torsions:
REMARK  status: ('A' for Active; 'I' for Inactive)
REMARK    1  A    between atoms: C_1  and  C_2
REMARK    2  A    between atoms: C_4  and  N_5
REMARK                            x       y       z     vdW  Elec       q    Type
REMARK                         _______ _______ _______ _____ _____    ______ ____
ROOT
ATOM      1  N   UNL     1       4.017   4.559  17.595  0.00  0.00    +0.000 N 
ATOM      2  C   UNL     1       2.729   4.114  17.500  0.00  0.00    +0.000 C 
ATOM      3  O   UNL     1       2.328   2.991  17.242  0.00  0.00    +0.000 OA
ATOM      4  N   UNL     1       1.878   5.148  17.816  0.00  0.00    +0.000 N 
ATOM      5  C   UNL     1       2.580   6.240  18.450  0.00  0.00    +0.000 C 
ATOM      6  C   UNL     1       2.324   7.608  17.791  0.00  0.00    +0.000 C 
ATOM      7  C   UNL     1       1.778   8.427  18.918  0.00  0.00    +0.000 A 
ATOM      8  C   UNL     1       1.362   9.748  18.865  0.00  0.00    +0.000 A 
ATOM      9  C   UNL     1       0.886  10.345  20.034  0.00  0.00    +0.000 A 
ATOM     10  C   UNL     1       0.830   9.620  21.233  0.00  0.00    +0.000 A 
ATOM     11  C   UNL     1       1.258   8.293  21.279  0.00  0.00    +0.000 A 
ATOM     12  C   UNL     1       1.734   7.711  20.114  0.00  0.00    +0.000 A 
ATOM     13  C   UNL     1       2.265   6.321  19.959  0.00  0.00    +0.000 C 
ATOM     14  C   UNL     1       4.023   5.782  18.226  0.00  0.00    +0.000 C 
ATOM     15  O   UNL     1       5.017   6.389  18.603  0.00  0.00    +0.000 OA
ATOM     16  H   UNL     1       0.887   4.966  17.914  0.00  0.00    +0.000 HD
ENDROOT
BRANCH   1  20
ATOM     17  C   UNL     1       5.938   5.502  14.755  0.00  0.00    +0.000 C 
ATOM     18  C   UNL     1       6.455   4.363  15.621  0.00  0.00    +0.000 C 
ATOM     19  C   UNL     1       5.458   3.224  15.911  0.00  0.00    +0.000 C 
ATOM     20  C   UNL     1       5.241   3.780  17.337  0.00  0.00    +0.000 C 
ATOM     21  C   UNL     1       6.514   4.643  17.135  0.00  0.00    +0.000 C 
ENDBRANCH   1  20
TORSDOF 1
ENDMDL
MODEL 6
REMARK VINA RESULT:      -6.9      1.519      2.717
REMARK  Name = 
REMARK  2 active torsions:
REMARK  status: ('A' for Active; 'I' for Inactive)
REMARK    1  A    between atoms: C_1  and  C_2
REMARK    2  A    between atoms: C_4  and  N_5
REMARK                            x       y       z     vdW  Elec       q    Type
REMARK                         _______ _______ _______ _____ _____    ______ ____
ROOT
ATOM      1  N   UNL     1       3.266   4.839  19.365  0.00  0.00    +0.000 N 
ATOM      2  C   UNL     1       3.026   6.096  18.886  0.00  0.00    +0.000 C 
ATOM      3  O   UNL     1       2.528   7.049  19.462  0.00  0.00    +0.000 OA
ATOM      4  N   UNL     1       3.508   6.179  17.599  0.00  0.00    +0.000 N 
ATOM      5  C   UNL     1       4.381   5.072  17.285  0.00  0.00    +0.000 C 
ATOM      6  C   UNL     1       4.002   4.333  15.988  0.00  0.00    +0.000 C 
ATOM      7  C   UNL     1       5.247   4.440  15.165  0.00  0.00    +0.000 A 
ATOM      8  C   UNL     1       5.446   3.952  13.883  0.00  0.00    +0.000 A 
ATOM      9  C   UNL     1       6.689   4.147  13.279  0.00  0.00    +0.000 A 
ATOM     10  C   UNL     1       7.713   4.824  13.958  0.00  0.00    +0.000 A 
ATOM     11  C   UNL     1       7.507   5.306  15.252  0.00  0.00    +0.000 A 
ATOM     12  C   UNL     1       6.270   5.102  15.844  0.00  0.00    +0.000 A 
ATOM     13  C   UNL     1       5.860   5.510  17.223  0.00  0.00    +0.000 C 
ATOM     14  C   UNL     1       4.132   4.193  18.513  0.00  0.00    +0.000 C 
ATOM     15  O   UNL     1       4.667   3.111  18.721  0.00  0.00    +0.000 OA
ATOM     16  H   UNL     1       3.524   7.076  17.130  0.00  0.00    +0.000 HD
ENDROOT
BRANCH   1  20
ATOM     17  C   UNL     1       0.676   2.405  19.486  0.00  0.00    +0.000 C 
ATOM     18  C   UNL     1       1.347   2.799  20.793  0.00  0.00    +0.000 C 
ATOM     19  C   UNL     1       1.414   4.310  21.093  0.00  0.00    +0.000 C 
ATOM     20  C   UNL     1       2.909   4.320  20.697  0.00  0.00    +0.000 C 
ATOM     21  C   UNL     1       2.888   2.771  20.792  0.00  0.00    +0.000 C 
ENDBRANCH   1  20
TORSDOF 1
ENDMDL
MODEL 7
REMARK VINA RESULT:      -6.9      4.464      6.005
REMARK  Name = 
REMARK  2 active torsions:
REMARK  status: ('A' for Active; 'I' for Inactive)
REMARK    1  A    between atoms: C_1  and  C_2
REMARK    2  A    between atoms: C_4  and  N_5
REMARK                            x       y       z     vdW  Elec       q    Type
REMARK                         _______ _______ _______ _____ _____    ______ ____
ROOT
ATOM      1  N   UNL     1       1.614   8.563  19.303  0.00  0.00    +0.000 N 
ATOM      2  C   UNL     1       2.234   8.637  18.088  0.00  0.00    +0.000 C 
ATOM      3  O   UNL     1       2.546   9.628  17.450  0.00  0.00    +0.000 OA
ATOM      4  N   UNL     1       2.542   7.362  17.670  0.00  0.00    +0.000 N 
ATOM      5  C   UNL     1       2.426   6.406  18.746  0.00  0.00    +0.000 C 
ATOM      6  C   UNL     1       1.547   5.189  18.403  0.00  0.00    +0.000 C 
ATOM      7  C   UNL     1       2.475   4.034  18.616  0.00  0.00    +0.000 A 
ATOM      8  C   UNL     1       2.192   2.690  18.429  0.00  0.00    +0.000 A 
ATOM      9  C   UNL     1       3.195   1.754  18.690  0.00  0.00    +0.000 A 
ATOM     10  C   UNL     1       4.460   2.170  19.130  0.00  0.00    +0.000 A 
ATOM     11  C   UNL     1       4.734   3.525  19.323  0.00  0.00    +0.000 A 
ATOM     12  C   UNL     1       3.729   4.445  19.066  0.00  0.00    +0.000 A 
ATOM     13  C   UNL     1       3.809   5.929  19.237  0.00  0.00    +0.000 C 
ATOM     14  C   UNL     1       1.756   7.289  19.802  0.00  0.00    +0.000 C 
ATOM     15  O   UNL     1       1.450   6.922  20.930  0.00  0.00    +0.000 OA
ATOM     16  H   UNL     1       3.113   7.233  16.844  0.00  0.00    +0.000 HD
ENDROOT
BRANCH   1  20
ATOM     17  C   UNL     1      -1.223  10.288  18.030  0.00  0.00    +0.000 C 
ATOM     18  C   UNL     1      -0.650  10.743  19.364  0.00  0.00    +0.000 C 
ATOM     19  C   UNL     1       0.863  11.038  19.388  0.00  0.00    +0.000 C 
ATOM     20  C   UNL     1       1.112   9.692  20.106  0.00  0.00    +0.000 C 
ATOM     21  C   UNL     1      -0.410   9.633  20.405  0.00  0.00    +0.000 C 
ENDBRANCH   1  20
TORSDOF 1
ENDMDL
MODEL 8
REMARK VINA RESULT:      -6.8      1.677      2.129
REMARK  Name = 
REMARK  2 active torsions:
REMARK  status: ('A' for Active; 'I' for Inactive)
REMARK    1  A    between atoms: C_1  and  C_2
REMARK    2  A    between atoms: C_4  and  N_5
REMARK                            x       y       z     vdW  Elec       q    Type
REMARK                         _______ _______ _______ _____ _____    ______ ____
ROOT
ATOM      1  N   UNL     1       2.782   3.793  18.533  0.00  0.00    +0.000 N 
ATOM      2  C   UNL     1       3.247   2.515  18.403  0.00  0.00    +0.000 C 
ATOM      3  O   UNL     1       2.760   1.479  18.825  0.00  0.00    +0.000 OA
ATOM      4  N   UNL     1       4.383   2.533  17.626  0.00  0.00    +0.000 N 
ATOM      5  C   UNL     1       4.537   3.794  16.938  0.00  0.00    +0.000 C 
ATOM      6  C   UNL     1       5.917   4.446  17.140  0.00  0.00    +0.000 C 
ATOM      7  C   UNL     1       6.426   4.593  15.740  0.00  0.00    +0.000 A 
ATOM      8  C   UNL     1       7.649   5.115  15.347  0.00  0.00    +0.000 A 
ATOM      9  C   UNL     1       7.941   5.175  13.983  0.00  0.00    +0.000 A 
ATOM     10  C   UNL     1       7.016   4.716  13.035  0.00  0.00    +0.000 A 
ATOM     11  C   UNL     1       5.784   4.198  13.440  0.00  0.00    +0.000 A 
ATOM     12  C   UNL     1       5.502   4.148  14.796  0.00  0.00    +0.000 A 
ATOM     13  C   UNL     1       4.238   3.662  15.430  0.00  0.00    +0.000 C 
ATOM     14  C   UNL     1       3.439   4.602  17.635  0.00  0.00    +0.000 C 
ATOM     15  O   UNL     1       3.162   5.768  17.386  0.00  0.00    +0.000 OA
ATOM     16  H   UNL     1       4.796   1.659  17.325  0.00  0.00    +0.000 HD
ENDROOT
BRANCH   1  20
ATOM     17  C   UNL     1       2.481   2.587  21.864  0.00  0.00    +0.000 C 
ATOM     18  C   UNL     1       1.404   3.527  21.345  0.00  0.00    +0.000 C 
ATOM     19  C   UNL     1       0.754   3.141  20.002  0.00  0.00    +0.000 C 
ATOM     20  C   UNL     1       1.592   4.225  19.287  0.00  0.00    +0.000 C 
ATOM     21  C   UNL     1       1.907   4.825  20.683  0.00  0.00    +0.000 C 
ENDBRANCH   1  20
TORSDOF 1
ENDMDL
MODEL 9
REMARK VINA RESULT:      -6.7      2.322      6.300
REMARK  Name = 
REMARK  2 active torsions:
REMARK  status: ('A' for Active; 'I' for Inactive)
REMARK    1  A    between atoms: C_1  and  C_2
REMARK    2  A    between atoms: C_4  and  N_5
REMARK                            x       y       z     vdW  Elec       q    Type
REMARK                         _______ _______ _______ _____ _____    ______ ____
ROOT
ATOM      1  N   UNL     1       5.226   5.285  16.620  0.00  0.00    +0.000 N 
ATOM      2  C   UNL     1       5.346   3.975  16.252  0.00  0.00    +0.000 C 
ATOM      3  O   UNL     1       6.154   3.467  15.492  0.00  0.00    +0.000 OA
ATOM      4  N   UNL     1       4.413   3.234  16.942  0.00  0.00    +0.000 N 
ATOM      5  C   UNL     1       3.849   3.980  18.043  0.00  0.00    +0.000 C 
ATOM      6  C   UNL     1       2.309   4.003  18.051  0.00  0.00    +0.000 C 
ATOM      7  C   UNL     1       1.973   3.421  19.388  0.00  0.00    +0.000 A 
ATOM      8  C   UNL     1       0.707   3.196  19.906  0.00  0.00    +0.000 A 
ATOM      9  C   UNL     1       0.597   2.646  21.185  0.00  0.00    +0.000 A 
ATOM     10  C   UNL     1       1.745   2.329  21.925  0.00  0.00    +0.000 A 
ATOM     11  C   UNL     1       3.016   2.566  21.399  0.00  0.00    +0.000 A 
ATOM     12  C   UNL     1       3.114   3.116  20.130  0.00  0.00    +0.000 A 
ATOM     13  C   UNL     1       4.371   3.472  19.403  0.00  0.00    +0.000 C 
ATOM     14  C   UNL     1       4.419   5.366  17.731  0.00  0.00    +0.000 C 
ATOM     15  O   UNL     1       4.225   6.371  18.404  0.00  0.00    +0.000 OA
ATOM     16  H   UNL     1       4.437   2.223  16.884  0.00  0.00    +0.000 HD
ENDROOT
BRANCH   1  20
ATOM     17  C   UNL     1       7.847   6.439  18.726  0.00  0.00    +0.000 C 
ATOM     18  C   UNL     1       7.663   7.120  17.379  0.00  0.00    +0.000 C 
ATOM     19  C   UNL     1       6.241   7.624  17.062  0.00  0.00    +0.000 C 
ATOM     20  C   UNL     1       6.025   6.417  16.119  0.00  0.00    +0.000 C 
ATOM     21  C   UNL     1       7.559   6.181  16.161  0.00  0.00    +0.000 C 
ENDBRANCH   1  20
TORSDOF 1
ENDMDL
