MODEL 1
REMARK VINA RESULT:      -8.0      0.000      0.000
REMARK  Name = 
REMARK  8 active torsions:
REMARK  status: ('A' for Active; 'I' for Inactive)
REMARK    1  A    between atoms: C_1  and  C_2
REMARK    2  A    between atoms: C_2  and  O_3
REMARK    3  A    between atoms: O_3  and  C_4
REMARK    4  A    between atoms: C_4  and  C_6
REMARK    5  A    between atoms: N_8  and  C_9
REMARK    6  A    between atoms: C_9  and  C_10
REMARK    7  A    between atoms: C_10  and  N_11
REMARK    8  A    between atoms: C_25  and  C_26
REMARK                            x       y       z     vdW  Elec       q    Type
REMARK                         _______ _______ _______ _____ _____    ______ ____
ROOT
ATOM      1  C   UNL     1      -0.966  10.767  17.984  0.00  0.00    +0.000 C 
ATOM      2  C   UNL     1      -0.153   9.491  17.862  0.00  0.00    +0.000 C 
ATOM      3  N   UNL     1       1.271   9.777  17.575  0.00  0.00    +0.000 NA
ATOM      4  C   UNL     1       1.892  10.791  18.447  0.00  0.00    +0.000 C 
ATOM      5  C   UNL     1       1.040  12.021  18.710  0.00  0.00    +0.000 C 
ATOM      6  C   UNL     1      -0.413  11.699  19.066  0.00  0.00    +0.000 C 
ENDROOT
BRANCH   6   7
ATOM      7  C   UNL     1      -0.760  11.334  20.519  0.00  0.00    +0.000 A 
ATOM      8  C   UNL     1      -0.016  10.246  21.035  0.00  0.00    +0.000 A 
ATOM      9  C   UNL     1      -0.121   9.839  22.360  0.00  0.00    +0.000 A 
ATOM     10  C   UNL     1      -1.006  10.488  23.203  0.00  0.00    +0.000 A 
ATOM     11  C   UNL     1      -1.798  11.531  22.724  0.00  0.00    +0.000 A 
ATOM     12  C   UNL     1      -1.673  11.974  21.401  0.00  0.00    +0.000 A 
ATOM     13  O   UNL     1      -2.387  13.042  20.957  0.00  0.00    +0.000 OA
ATOM     14  C   UNL     1      -3.422  13.535  21.801  0.00  0.00    +0.000 C 
ATOM     15  C   UNL     1      -3.317  13.236  23.285  0.00  0.00    +0.000 C 
ATOM     16  O   UNL     1      -2.679  12.023  23.641  0.00  0.00    +0.000 OA
ENDBRANCH   6   7
BRANCH   1  17
ATOM     17  C   UNL     1      -2.460  10.536  18.065  0.00  0.00    +0.000 C 
ATOM     18  O   UNL     1      -3.024   9.457  17.955  0.00  0.00    +0.000 OA
BRANCH  17  19
ATOM     19  O   UNL     1      -3.084  11.754  18.056  0.00  0.00    +0.000 OA
BRANCH  19  21
ATOM     20  C   UNL     1      -5.256  11.985  17.099  0.00  0.00    +0.000 C 
ATOM     21  C   UNL     1      -4.478  11.758  18.383  0.00  0.00    +0.000 C 
ENDBRANCH  19  21
ENDBRANCH  17  19
ENDBRANCH   1  17
BRANCH   3  22
ATOM     22  C   UNL     1       2.082   8.548  17.664  0.00  0.00    +0.000 C 
BRANCH  22  23
ATOM     23  C   UNL     1       2.470   8.145  19.092  0.00  0.00    +0.000 C 
BRANCH  23  24
ATOM     24  N   UNL     1       2.431   6.700  19.255  0.00  0.00    +0.000 N 
ATOM     25  C   UNL     1       1.735   6.189  20.334  0.00  0.00    +0.000 A 
ATOM     26  O   UNL     1       1.188   6.878  21.197  0.00  0.00    +0.000 OA
ATOM     27  N   UNL     1       1.684   4.830  20.448  0.00  0.00    +0.000 N 
ATOM     28  C   UNL     1       2.324   3.970  19.562  0.00  0.00    +0.000 A 
ATOM     29  C   UNL     1       2.152   2.591  19.685  0.00  0.00    +0.000 A 
ATOM     30  C   UNL     1       2.770   1.740  18.768  0.00  0.00    +0.000 A 
ATOM     31  C   UNL     1       3.580   2.259  17.754  0.00  0.00    +0.000 A 
ATOM     32  C   UNL     1       3.772   3.634  17.650  0.00  0.00    +0.000 A 
ATOM     33  C   UNL     1       3.130   4.483  18.552  0.00  0.00    +0.000 A 
ATOM     34  C   UNL     1       3.260   5.943  18.436  0.00  0.00    +0.000 A 
ATOM     35  O   UNL     1       4.076   6.414  17.648  0.00  0.00    +0.000 OA
ATOM     36  H   UNL     1       1.133   4.465  21.211  0.00  0.00    +0.000 HD
ENDBRANCH  23  24
ENDBRANCH  22  23
ENDBRANCH   3  22
TORSDOF 7
ENDMDL
MODEL 2
REMARK VINA RESULT:      -7.7      2.191      4.042
REMARK  Name = 
REMARK  8 active torsions:
REMARK  status: ('A' for Active; 'I' for Inactive)
REMARK    1  A    between atoms: C_1  and  C_2
REMARK    2  A    between atoms: C_2  and  O_3
REMARK    3  A    between atoms: O_3  and  C_4
REMARK    4  A    between atoms: C_4  and  C_6
REMARK    5  A    between atoms: N_8  and  C_9
REMARK    6  A    between atoms: C_9  and  C_10
REMARK    7  A    between atoms: C_10  and  N_11
REMARK    8  A    between atoms: C_25  and  C_26
REMARK                            x       y       z     vdW  Elec       q    Type
REMARK                         _______ _______ _______ _____ _____    ______ ____
ROOT
ATOM      1  C   UNL     1       0.330  12.539  20.880  0.00  0.00    +0.000 C 
ATOM      2  C   UNL     1       1.108  11.245  20.725  0.00  0.00    +0.000 C 
ATOM      3  N   UNL     1       1.000  10.395  21.932  0.00  0.00    +0.000 NA
ATOM      4  C   UNL     1      -0.370  10.201  22.439  0.00  0.00    +0.000 C 
ATOM      5  C   UNL     1      -1.227  11.455  22.470  0.00  0.00    +0.000 C 
ATOM      6  C   UNL     1      -1.150  12.285  21.187  0.00  0.00    +0.000 C 
ENDROOT
BRANCH   6   7
ATOM      7  C   UNL     1      -2.033  11.893  19.991  0.00  0.00    +0.000 A 
ATOM      8  C   UNL     1      -1.439  10.950  19.119  0.00  0.00    +0.000 A 
ATOM      9  C   UNL     1      -2.126  10.403  18.041  0.00  0.00    +0.000 A 
ATOM     10  C   UNL     1      -3.421  10.813  17.780  0.00  0.00    +0.000 A 
ATOM     11  C   UNL     1      -4.028  11.780  18.582  0.00  0.00    +0.000 A 
ATOM     12  C   UNL     1      -3.359  12.310  19.693  0.00  0.00    +0.000 A 
ATOM     13  O   UNL     1      -3.980  13.192  20.521  0.00  0.00    +0.000 OA
ATOM     14  C   UNL     1      -5.227  13.728  20.090  0.00  0.00    +0.000 C 
ATOM     15  C   UNL     1      -6.021  12.924  19.076  0.00  0.00    +0.000 C 
ATOM     16  O   UNL     1      -5.272  12.145  18.162  0.00  0.00    +0.000 OA
ENDBRANCH   6   7
BRANCH   1  17
ATOM     17  C   UNL     1       0.573  13.538  19.770  0.00  0.00    +0.000 C 
ATOM     18  O   UNL     1       1.164  13.314  18.723  0.00  0.00    +0.000 OA
BRANCH  17  19
ATOM     19  O   UNL     1       0.224  14.780  20.226  0.00  0.00    +0.000 OA
BRANCH  19  21
ATOM     20  C   UNL     1      -0.054  16.587  18.694  0.00  0.00    +0.000 C 
ATOM     21  C   UNL     1      -0.761  15.485  19.463  0.00  0.00    +0.000 C 
ENDBRANCH  19  21
ENDBRANCH  17  19
ENDBRANCH   1  17
BRANCH   3  22
ATOM     22  C   UNL     1       1.585   9.062  21.690  0.00  0.00    +0.000 C 
BRANCH  22  23
ATOM     23  C   UNL     1       0.898   8.261  20.577  0.00  0.00    +0.000 C 
BRANCH  23  24
ATOM     24  N   UNL     1       1.878   7.687  19.667  0.00  0.00    +0.000 N 
ATOM     25  C   UNL     1       2.141   8.362  18.491  0.00  0.00    +0.000 A 
ATOM     26  O   UNL     1       1.563   9.391  18.136  0.00  0.00    +0.000 OA
ATOM     27  N   UNL     1       3.087   7.824  17.668  0.00  0.00    +0.000 N 
ATOM     28  C   UNL     1       3.748   6.633  17.950  0.00  0.00    +0.000 A 
ATOM     29  C   UNL     1       4.771   6.189  17.111  0.00  0.00    +0.000 A 
ATOM     30  C   UNL     1       5.450   5.011  17.423  0.00  0.00    +0.000 A 
ATOM     31  C   UNL     1       5.090   4.263  18.548  0.00  0.00    +0.000 A 
ATOM     32  C   UNL     1       4.052   4.694  19.369  0.00  0.00    +0.000 A 
ATOM     33  C   UNL     1       3.393   5.887  19.069  0.00  0.00    +0.000 A 
ATOM     34  C   UNL     1       2.333   6.404  19.945  0.00  0.00    +0.000 A 
ATOM     35  O   UNL     1       1.904   5.696  20.853  0.00  0.00    +0.000 OA
ATOM     36  H   UNL     1       3.307   8.349  16.835  0.00  0.00    +0.000 HD
ENDBRANCH  23  24
ENDBRANCH  22  23
ENDBRANCH   3  22
TORSDOF 7
ENDMDL
MODEL 3
REMARK VINA RESULT:      -7.5      1.154      2.052
REMARK  Name = 
REMARK  8 active torsions:
REMARK  status: ('A' for Active; 'I' for Inactive)
REMARK    1  A    between atoms: C_1  and  C_2
REMARK    2  A    between atoms: C_2  and  O_3
REMARK    3  A    between atoms: O_3  and  C_4
REMARK    4  A    between atoms: C_4  and  C_6
REMARK    5  A    between atoms: N_8  and  C_9
REMARK    6  A    between atoms: C_9  and  C_10
REMARK    7  A    between atoms: C_10  and  N_11
REMARK    8  A    between atoms: C_25  and  C_26
REMARK                            x       y       z     vdW  Elec       q    Type
REMARK                         _______ _______ _______ _____ _____    ______ ____
ROOT
ATOM      1  C   UNL     1      -0.803  11.020  18.032  0.00  0.00    +0.000 C 
ATOM      2  C   UNL     1      -0.241   9.631  17.789  0.00  0.00    +0.000 C 
ATOM      3  N   UNL     1       1.215   9.671  17.526  0.00  0.00    +0.000 NA
ATOM      4  C   UNL     1       2.003  10.466  18.486  0.00  0.00    +0.000 C 
ATOM      5  C   UNL     1       1.392  11.804  18.865  0.00  0.00    +0.000 C 
ATOM      6  C   UNL     1      -0.100  11.729  19.195  0.00  0.00    +0.000 C 
ENDROOT
BRANCH   6   7
ATOM      7  C   UNL     1      -0.531  11.303  20.609  0.00  0.00    +0.000 A 
ATOM      8  C   UNL     1      -0.031  10.041  21.009  0.00  0.00    +0.000 A 
ATOM      9  C   UNL     1      -0.231   9.537  22.289  0.00  0.00    +0.000 A 
ATOM     10  C   UNL     1      -0.973  10.268  23.200  0.00  0.00    +0.000 A 
ATOM     11  C   UNL     1      -1.529  11.493  22.832  0.00  0.00    +0.000 A 
ATOM     12  C   UNL     1      -1.302  12.028  21.557  0.00  0.00    +0.000 A 
ATOM     13  O   UNL     1      -1.776  13.258  21.227  0.00  0.00    +0.000 OA
ATOM     14  C   UNL     1      -2.698  13.868  22.125  0.00  0.00    +0.000 C 
ATOM     15  C   UNL     1      -2.671  13.410  23.572  0.00  0.00    +0.000 C 
ATOM     16  O   UNL     1      -2.299  12.064  23.801  0.00  0.00    +0.000 OA
ENDBRANCH   6   7
BRANCH   1  17
ATOM     17  C   UNL     1      -2.314  11.067  18.097  0.00  0.00    +0.000 C 
ATOM     18  O   UNL     1      -2.981  11.939  18.637  0.00  0.00    +0.000 OA
BRANCH  17  19
ATOM     19  O   UNL     1      -2.801   9.867  17.655  0.00  0.00    +0.000 OA
BRANCH  19  21
ATOM     20  C   UNL     1      -2.917  10.869  15.493  0.00  0.00    +0.000 C 
ATOM     21  C   UNL     1      -3.582   9.900  16.455  0.00  0.00    +0.000 C 
ENDBRANCH  19  21
ENDBRANCH  17  19
ENDBRANCH   1  17
BRANCH   3  22
ATOM     22  C   UNL     1       1.781   8.309  17.497  0.00  0.00    +0.000 C 
BRANCH  22  23
ATOM     23  C   UNL     1       3.016   8.116  18.385  0.00  0.00    +0.000 C 
BRANCH  23  24
ATOM     24  N   UNL     1       3.204   6.713  18.721  0.00  0.00    +0.000 N 
ATOM     25  C   UNL     1       3.972   5.942  17.870  0.00  0.00    +0.000 A 
ATOM     26  O   UNL     1       4.465   6.350  16.817  0.00  0.00    +0.000 OA
ATOM     27  N   UNL     1       4.162   4.637  18.222  0.00  0.00    +0.000 N 
ATOM     28  C   UNL     1       3.593   4.067  19.357  0.00  0.00    +0.000 A 
ATOM     29  C   UNL     1       3.907   2.753  19.707  0.00  0.00    +0.000 A 
ATOM     30  C   UNL     1       3.358   2.204  20.866  0.00  0.00    +0.000 A 
ATOM     31  C   UNL     1       2.477   2.951  21.655  0.00  0.00    +0.000 A 
ATOM     32  C   UNL     1       2.145   4.252  21.290  0.00  0.00    +0.000 A 
ATOM     33  C   UNL     1       2.718   4.807  20.144  0.00  0.00    +0.000 A 
ATOM     34  C   UNL     1       2.438   6.198  19.760  0.00  0.00    +0.000 A 
ATOM     35  O   UNL     1       1.562   6.822  20.353  0.00  0.00    +0.000 OA
ATOM     36  H   UNL     1       4.763   4.094  17.621  0.00  0.00    +0.000 HD
ENDBRANCH  23  24
ENDBRANCH  22  23
ENDBRANCH   3  22
TORSDOF 7
ENDMDL
MODEL 4
REMARK VINA RESULT:      -7.5      2.087      4.319
REMARK  Name = 
REMARK  8 active torsions:
REMARK  status: ('A' for Active; 'I' for Inactive)
REMARK    1  A    between atoms: C_1  and  C_2
REMARK    2  A    between atoms: C_2  and  O_3
REMARK    3  A    between atoms: O_3  and  C_4
REMARK    4  A    between atoms: C_4  and  C_6
REMARK    5  A    between atoms: N_8  and  C_9
REMARK    6  A    between atoms: C_9  and  C_10
REMARK    7  A    between atoms: C_10  and  N_11
REMARK    8  A    between atoms: C_25  and  C_26
REMARK                            x       y       z     vdW  Elec       q    Type
REMARK                         _______ _______ _______ _____ _____    ______ ____
ROOT
ATOM      1  C   UNL     1       0.173  12.634  20.344  0.00  0.00    +0.000 C 
ATOM      2  C   UNL     1       1.024  11.378  20.286  0.00  0.00    +0.000 C 
ATOM      3  N   UNL     1       0.935  10.600  21.542  0.00  0.00    +0.000 NA
ATOM      4  C   UNL     1      -0.434  10.362  22.034  0.00  0.00    +0.000 C 
ATOM      5  C   UNL     1      -1.358  11.566  21.969  0.00  0.00    +0.000 C 
ATOM      6  C   UNL     1      -1.297  12.318  20.638  0.00  0.00    +0.000 C 
ENDROOT
BRANCH   6   7
ATOM      7  C   UNL     1      -2.131  11.804  19.453  0.00  0.00    +0.000 A 
ATOM      8  C   UNL     1      -1.430  10.928  18.590  0.00  0.00    +0.000 A 
ATOM      9  C   UNL     1      -2.049  10.287  17.524  0.00  0.00    +0.000 A 
ATOM     10  C   UNL     1      -3.386  10.531  17.265  0.00  0.00    +0.000 A 
ATOM     11  C   UNL     1      -4.103  11.427  18.058  0.00  0.00    +0.000 A 
ATOM     12  C   UNL     1      -3.500  12.051  19.158  0.00  0.00    +0.000 A 
ATOM     13  O   UNL     1      -4.220  12.862  19.977  0.00  0.00    +0.000 OA
ATOM     14  C   UNL     1      -5.525  13.235  19.546  0.00  0.00    +0.000 C 
ATOM     15  C   UNL     1      -6.219  12.326  18.548  0.00  0.00    +0.000 C 
ATOM     16  O   UNL     1      -5.385  11.632  17.640  0.00  0.00    +0.000 OA
ENDBRANCH   6   7
BRANCH   1  17
ATOM     17  C   UNL     1       0.386  13.574  19.178  0.00  0.00    +0.000 C 
ATOM     18  O   UNL     1      -0.480  14.238  18.626  0.00  0.00    +0.000 OA
BRANCH  17  19
ATOM     19  O   UNL     1       1.655  13.386  18.701  0.00  0.00    +0.000 OA
BRANCH  19  21
ATOM     20  C   UNL     1       3.593  14.580  17.989  0.00  0.00    +0.000 C 
ATOM     21  C   UNL     1       2.647  14.317  19.148  0.00  0.00    +0.000 C 
ENDBRANCH  19  21
ENDBRANCH  17  19
ENDBRANCH   1  17
BRANCH   3  22
ATOM     22  C   UNL     1       1.596   9.290  21.396  0.00  0.00    +0.000 C 
BRANCH  22  23
ATOM     23  C   UNL     1       0.950   8.365  20.358  0.00  0.00    +0.000 C 
BRANCH  23  24
ATOM     24  N   UNL     1       1.959   7.724  19.529  0.00  0.00    +0.000 N 
ATOM     25  C   UNL     1       2.291   8.327  18.331  0.00  0.00    +0.000 A 
ATOM     26  O   UNL     1       1.750   9.344  17.892  0.00  0.00    +0.000 OA
ATOM     27  N   UNL     1       3.264   7.727  17.586  0.00  0.00    +0.000 N 
ATOM     28  C   UNL     1       3.887   6.542  17.964  0.00  0.00    +0.000 A 
ATOM     29  C   UNL     1       4.939   6.035  17.201  0.00  0.00    +0.000 A 
ATOM     30  C   UNL     1       5.579   4.865  17.611  0.00  0.00    +0.000 A 
ATOM     31  C   UNL     1       5.152   4.187  18.757  0.00  0.00    +0.000 A 
ATOM     32  C   UNL     1       4.084   4.681  19.502  0.00  0.00    +0.000 A 
ATOM     33  C   UNL     1       3.465   5.867  19.104  0.00  0.00    +0.000 A 
ATOM     34  C   UNL     1       2.374   6.450  19.899  0.00  0.00    +0.000 A 
ATOM     35  O   UNL     1       1.890   5.803  20.823  0.00  0.00    +0.000 OA
ATOM     36  H   UNL     1       3.533   8.201  16.736  0.00  0.00    +0.000 HD
ENDBRANCH  23  24
ENDBRANCH  22  23
ENDBRANCH   3  22
TORSDOF 7
ENDMDL
MODEL 5
REMARK VINA RESULT:      -7.5      1.620      2.637
REMARK  Name = 
REMARK  8 active torsions:
REMARK  status: ('A' for Active; 'I' for Inactive)
REMARK    1  A    between atoms: C_1  and  C_2
REMARK    2  A    between atoms: C_2  and  O_3
REMARK    3  A    between atoms: O_3  and  C_4
REMARK    4  A    between atoms: C_4  and  C_6
REMARK    5  A    between atoms: N_8  and  C_9
REMARK    6  A    between atoms: C_9  and  C_10
REMARK    7  A    between atoms: C_10  and  N_11
REMARK    8  A    between atoms: C_25  and  C_26
REMARK                            x       y       z     vdW  Elec       q    Type
REMARK                         _______ _______ _______ _____ _____    ______ ____
ROOT
ATOM      1  C   UNL     1      -0.732  10.738  17.755  0.00  0.00    +0.000 C 
ATOM      2  C   UNL     1       0.068   9.490  18.081  0.00  0.00    +0.000 C 
ATOM      3  N   UNL     1       1.522   9.720  17.932  0.00  0.00    +0.000 NA
ATOM      4  C   UNL     1       2.033  10.937  18.591  0.00  0.00    +0.000 C 
ATOM      5  C   UNL     1       1.174  12.176  18.407  0.00  0.00    +0.000 C 
ATOM      6  C   UNL     1      -0.319  11.928  18.627  0.00  0.00    +0.000 C 
ENDROOT
BRANCH   6   7
ATOM      7  C   UNL     1      -0.873  11.943  20.062  0.00  0.00    +0.000 A 
ATOM      8  C   UNL     1      -1.916  12.877  20.269  0.00  0.00    +0.000 A 
ATOM      9  C   UNL     1      -2.606  12.963  21.472  0.00  0.00    +0.000 A 
ATOM     10  C   UNL     1      -2.247  12.137  22.523  0.00  0.00    +0.000 A 
ATOM     11  C   UNL     1      -1.191  11.238  22.381  0.00  0.00    +0.000 A 
ATOM     12  C   UNL     1      -0.513  11.116  21.161  0.00  0.00    +0.000 A 
ATOM     13  O   UNL     1       0.462  10.184  20.999  0.00  0.00    +0.000 OA
ATOM     14  C   UNL     1       0.925   9.511  22.165  0.00  0.00    +0.000 C 
ATOM     15  C   UNL     1      -0.013   9.453  23.358  0.00  0.00    +0.000 C 
ATOM     16  O   UNL     1      -0.896  10.547  23.519  0.00  0.00    +0.000 OA
ENDBRANCH   6   7
BRANCH   1  17
ATOM     17  C   UNL     1      -2.226  10.507  17.684  0.00  0.00    +0.000 C 
ATOM     18  O   UNL     1      -2.829   9.566  18.180  0.00  0.00    +0.000 OA
BRANCH  17  19
ATOM     19  O   UNL     1      -2.756  11.396  16.789  0.00  0.00    +0.000 OA
BRANCH  19  21
ATOM     20  C   UNL     1      -3.047  10.215  14.737  0.00  0.00    +0.000 C 
ATOM     21  C   UNL     1      -3.756  10.886  15.901  0.00  0.00    +0.000 C 
ENDBRANCH  19  21
ENDBRANCH  17  19
ENDBRANCH   1  17
BRANCH   3  22
ATOM     22  C   UNL     1       2.292   8.572  18.447  0.00  0.00    +0.000 C 
BRANCH  22  23
ATOM     23  C   UNL     1       3.138   7.851  17.391  0.00  0.00    +0.000 C 
BRANCH  23  24
ATOM     24  N   UNL     1       3.429   6.484  17.798  0.00  0.00    +0.000 N 
ATOM     25  C   UNL     1       4.754   6.104  17.888  0.00  0.00    +0.000 A 
ATOM     26  O   UNL     1       5.706   6.830  17.595  0.00  0.00    +0.000 OA
ATOM     27  N   UNL     1       5.004   4.829  18.304  0.00  0.00    +0.000 N 
ATOM     28  C   UNL     1       3.996   3.915  18.596  0.00  0.00    +0.000 A 
ATOM     29  C   UNL     1       4.323   2.658  19.106  0.00  0.00    +0.000 A 
ATOM     30  C   UNL     1       3.301   1.764  19.428  0.00  0.00    +0.000 A 
ATOM     31  C   UNL     1       1.963   2.108  19.212  0.00  0.00    +0.000 A 
ATOM     32  C   UNL     1       1.642   3.353  18.677  0.00  0.00    +0.000 A 
ATOM     33  C   UNL     1       2.664   4.255  18.383  0.00  0.00    +0.000 A 
ATOM     34  C   UNL     1       2.359   5.600  17.874  0.00  0.00    +0.000 A 
ATOM     35  O   UNL     1       1.209   5.872  17.543  0.00  0.00    +0.000 OA
ATOM     36  H   UNL     1       5.975   4.575  18.413  0.00  0.00    +0.000 HD
ENDBRANCH  23  24
ENDBRANCH  22  23
ENDBRANCH   3  22
TORSDOF 7
ENDMDL
MODEL 6
REMARK VINA RESULT:      -7.4      1.178      1.456
REMARK  Name = 
REMARK  8 active torsions:
REMARK  status: ('A' for Active; 'I' for Inactive)
REMARK    1  A    between atoms: C_1  and  C_2
REMARK    2  A    between atoms: C_2  and  O_3
REMARK    3  A    between atoms: O_3  and  C_4
REMARK    4  A    between atoms: C_4  and  C_6
REMARK    5  A    between atoms: N_8  and  C_9
REMARK    6  A    between atoms: C_9  and  C_10
REMARK    7  A    between atoms: C_10  and  N_11
REMARK    8  A    between atoms: C_25  and  C_26
REMARK                            x       y       z     vdW  Elec       q    Type
REMARK                         _______ _______ _______ _____ _____    ______ ____
ROOT
ATOM      1  C   UNL     1      -1.250  11.308  18.112  0.00  0.00    +0.000 C 
ATOM      2  C   UNL     1      -0.209  10.229  18.348  0.00  0.00    +0.000 C 
ATOM      3  N   UNL     1       1.166  10.773  18.280  0.00  0.00    +0.000 NA
ATOM      4  C   UNL     1       1.394  11.995  19.072  0.00  0.00    +0.000 C 
ATOM      5  C   UNL     1       0.295  13.039  18.973  0.00  0.00    +0.000 C 
ATOM      6  C   UNL     1      -1.116  12.463  19.110  0.00  0.00    +0.000 C 
ENDROOT
BRANCH   6   7
ATOM      7  C   UNL     1      -1.686  12.215  20.516  0.00  0.00    +0.000 A 
ATOM      8  C   UNL     1      -0.799  11.540  21.389  0.00  0.00    +0.000 A 
ATOM      9  C   UNL     1      -1.102  11.318  22.727  0.00  0.00    +0.000 A 
ATOM     10  C   UNL     1      -2.324  11.735  23.226  0.00  0.00    +0.000 A 
ATOM     11  C   UNL     1      -3.250  12.357  22.389  0.00  0.00    +0.000 A 
ATOM     12  C   UNL     1      -2.941  12.620  21.049  0.00  0.00    +0.000 A 
ATOM     13  O   UNL     1      -3.811  13.298  20.255  0.00  0.00    +0.000 OA
ATOM     14  C   UNL     1      -5.124  13.517  20.762  0.00  0.00    +0.000 C 
ATOM     15  C   UNL     1      -5.306  13.492  22.269  0.00  0.00    +0.000 C 
ATOM     16  O   UNL     1      -4.439  12.641  22.995  0.00  0.00    +0.000 OA
ENDBRANCH   6   7
BRANCH   1  17
ATOM     17  C   UNL     1      -2.659  10.778  17.960  0.00  0.00    +0.000 C 
ATOM     18  O   UNL     1      -2.999   9.608  18.070  0.00  0.00    +0.000 OA
BRANCH  17  19
ATOM     19  O   UNL     1      -3.444  11.781  17.460  0.00  0.00    +0.000 OA
BRANCH  19  21
ATOM     20  C   UNL     1      -5.824  11.731  17.605  0.00  0.00    +0.000 C 
ATOM     21  C   UNL     1      -4.620  11.376  16.751  0.00  0.00    +0.000 C 
ENDBRANCH  19  21
ENDBRANCH  17  19
ENDBRANCH   1  17
BRANCH   3  22
ATOM     22  C   UNL     1       2.152   9.765  18.712  0.00  0.00    +0.000 C 
BRANCH  22  23
ATOM     23  C   UNL     1       2.103   8.450  17.924  0.00  0.00    +0.000 C 
BRANCH  23  24
ATOM     24  N   UNL     1       2.214   7.304  18.813  0.00  0.00    +0.000 N 
ATOM     25  C   UNL     1       1.756   7.444  20.109  0.00  0.00    +0.000 A 
ATOM     26  O   UNL     1       1.308   8.492  20.578  0.00  0.00    +0.000 OA
ATOM     27  N   UNL     1       1.839   6.347  20.916  0.00  0.00    +0.000 N 
ATOM     28  C   UNL     1       2.388   5.138  20.499  0.00  0.00    +0.000 A 
ATOM     29  C   UNL     1       2.355   4.030  21.346  0.00  0.00    +0.000 A 
ATOM     30  C   UNL     1       2.877   2.815  20.902  0.00  0.00    +0.000 A 
ATOM     31  C   UNL     1       3.458   2.713  19.634  0.00  0.00    +0.000 A 
ATOM     32  C   UNL     1       3.514   3.828  18.802  0.00  0.00    +0.000 A 
ATOM     33  C   UNL     1       2.965   5.034  19.238  0.00  0.00    +0.000 A 
ATOM     34  C   UNL     1       2.952   6.216  18.363  0.00  0.00    +0.000 A 
ATOM     35  O   UNL     1       3.580   6.191  17.309  0.00  0.00    +0.000 OA
ATOM     36  H   UNL     1       1.458   6.444  21.845  0.00  0.00    +0.000 HD
ENDBRANCH  23  24
ENDBRANCH  22  23
ENDBRANCH   3  22
TORSDOF 7
ENDMDL
MODEL 7
REMARK VINA RESULT:      -7.3      2.208      3.737
REMARK  Name = 
REMARK  8 active torsions:
REMARK  status: ('A' for Active; 'I' for Inactive)
REMARK    1  A    between atoms: C_1  and  C_2
REMARK    2  A    between atoms: C_2  and  O_3
REMARK    3  A    between atoms: O_3  and  C_4
REMARK    4  A    between atoms: C_4  and  C_6
REMARK    5  A    between atoms: N_8  and  C_9
REMARK    6  A    between atoms: C_9  and  C_10
REMARK    7  A    between atoms: C_10  and  N_11
REMARK    8  A    between atoms: C_25  and  C_26
REMARK                            x       y       z     vdW  Elec       q    Type
REMARK                         _______ _______ _______ _____ _____    ______ ____
ROOT
ATOM      1  C   UNL     1      -1.544  11.625  20.897  0.00  0.00    +0.000 C 
ATOM      2  C   UNL     1      -0.403  10.867  20.243  0.00  0.00    +0.000 C 
ATOM      3  N   UNL     1      -0.812  10.275  18.950  0.00  0.00    +0.000 NA
ATOM      4  C   UNL     1      -1.510  11.195  18.033  0.00  0.00    +0.000 C 
ATOM      5  C   UNL     1      -2.561  12.076  18.686  0.00  0.00    +0.000 C 
ATOM      6  C   UNL     1      -2.095  12.729  19.989  0.00  0.00    +0.000 C 
ENDROOT
BRANCH   6   7
ATOM      7  C   UNL     1      -1.270  14.025  19.919  0.00  0.00    +0.000 A 
ATOM      8  C   UNL     1      -0.099  13.922  19.131  0.00  0.00    +0.000 A 
ATOM      9  C   UNL     1       0.717  15.017  18.870  0.00  0.00    +0.000 A 
ATOM     10  C   UNL     1       0.404  16.246  19.423  0.00  0.00    +0.000 A 
ATOM     11  C   UNL     1      -0.712  16.382  20.249  0.00  0.00    +0.000 A 
ATOM     12  C   UNL     1      -1.562  15.295  20.488  0.00  0.00    +0.000 A 
ATOM     13  O   UNL     1      -2.693  15.447  21.226  0.00  0.00    +0.000 OA
ATOM     14  C   UNL     1      -2.852  16.673  21.933  0.00  0.00    +0.000 C 
ATOM     15  C   UNL     1      -2.094  17.882  21.418  0.00  0.00    +0.000 C 
ATOM     16  O   UNL     1      -0.853  17.627  20.787  0.00  0.00    +0.000 OA
ENDBRANCH   6   7
BRANCH   1  17
ATOM     17  C   UNL     1      -1.252  12.072  22.313  0.00  0.00    +0.000 C 
ATOM     18  O   UNL     1      -0.176  12.483  22.725  0.00  0.00    +0.000 OA
BRANCH  17  19
ATOM     19  O   UNL     1      -2.316  11.728  23.100  0.00  0.00    +0.000 OA
BRANCH  19  21
ATOM     20  C   UNL     1      -4.433  12.817  22.939  0.00  0.00    +0.000 C 
ATOM     21  C   UNL     1      -3.085  12.809  23.640  0.00  0.00    +0.000 C 
ENDBRANCH  19  21
ENDBRANCH  17  19
ENDBRANCH   1  17
BRANCH   3  22
ATOM     22  C   UNL     1       0.353   9.722  18.233  0.00  0.00    +0.000 C 
BRANCH  22  23
ATOM     23  C   UNL     1       1.614   9.570  19.093  0.00  0.00    +0.000 C 
BRANCH  23  24
ATOM     24  N   UNL     1       1.891   8.168  19.368  0.00  0.00    +0.000 N 
ATOM     25  C   UNL     1       1.618   7.693  20.636  0.00  0.00    +0.000 A 
ATOM     26  O   UNL     1       1.203   8.389  21.565  0.00  0.00    +0.000 OA
ATOM     27  N   UNL     1       1.854   6.368  20.863  0.00  0.00    +0.000 N 
ATOM     28  C   UNL     1       2.382   5.515  19.898  0.00  0.00    +0.000 A 
ATOM     29  C   UNL     1       2.510   4.153  20.169  0.00  0.00    +0.000 A 
ATOM     30  C   UNL     1       3.007   3.303  19.181  0.00  0.00    +0.000 A 
ATOM     31  C   UNL     1       3.404   3.813  17.941  0.00  0.00    +0.000 A 
ATOM     32  C   UNL     1       3.300   5.177  17.683  0.00  0.00    +0.000 A 
ATOM     33  C   UNL     1       2.777   6.020  18.664  0.00  0.00    +0.000 A 
ATOM     34  C   UNL     1       2.596   7.456  18.406  0.00  0.00    +0.000 A 
ATOM     35  O   UNL     1       3.068   7.948  17.385  0.00  0.00    +0.000 OA
ATOM     36  H   UNL     1       1.606   6.019  21.777  0.00  0.00    +0.000 HD
ENDBRANCH  23  24
ENDBRANCH  22  23
ENDBRANCH   3  22
TORSDOF 7
ENDMDL
MODEL 8
REMARK VINA RESULT:      -7.3      2.329      4.296
REMARK  Name = 
REMARK  8 active torsions:
REMARK  status: ('A' for Active; 'I' for Inactive)
REMARK    1  A    between atoms: C_1  and  C_2
REMARK    2  A    between atoms: C_2  and  O_3
REMARK    3  A    between atoms: O_3  and  C_4
REMARK    4  A    between atoms: C_4  and  C_6
REMARK    5  A    between atoms: N_8  and  C_9
REMARK    6  A    between atoms: C_9  and  C_10
REMARK    7  A    between atoms: C_10  and  N_11
REMARK    8  A    between atoms: C_25  and  C_26
REMARK                            x       y       z     vdW  Elec       q    Type
REMARK                         _______ _______ _______ _____ _____    ______ ____
ROOT
ATOM      1  C   UNL     1      -1.326  11.712  20.660  0.00  0.00    +0.000 C 
ATOM      2  C   UNL     1      -0.269  10.790  20.080  0.00  0.00    +0.000 C 
ATOM      3  N   UNL     1      -0.719  10.175  18.811  0.00  0.00    +0.000 NA
ATOM      4  C   UNL     1      -1.286  11.116  17.827  0.00  0.00    +0.000 C 
ATOM      5  C   UNL     1      -2.238  12.151  18.402  0.00  0.00    +0.000 C 
ATOM      6  C   UNL     1      -1.723  12.819  19.679  0.00  0.00    +0.000 C 
ENDROOT
BRANCH   6   7
ATOM      7  C   UNL     1      -0.750  14.003  19.559  0.00  0.00    +0.000 A 
ATOM      8  C   UNL     1      -1.286  15.238  19.999  0.00  0.00    +0.000 A 
ATOM      9  C   UNL     1      -0.522  16.397  20.060  0.00  0.00    +0.000 A 
ATOM     10  C   UNL     1       0.799  16.364  19.646  0.00  0.00    +0.000 A 
ATOM     11  C   UNL     1       1.353  15.182  19.157  0.00  0.00    +0.000 A 
ATOM     12  C   UNL     1       0.604  13.999  19.126  0.00  0.00    +0.000 A 
ATOM     13  O   UNL     1       1.169  12.830  18.725  0.00  0.00    +0.000 OA
ATOM     14  C   UNL     1       2.457  12.898  18.122  0.00  0.00    +0.000 C 
ATOM     15  C   UNL     1       3.319  14.105  18.447  0.00  0.00    +0.000 C 
ATOM     16  O   UNL     1       2.635  15.315  18.712  0.00  0.00    +0.000 OA
ENDBRANCH   6   7
BRANCH   1  17
ATOM     17  C   UNL     1      -1.010  12.203  22.057  0.00  0.00    +0.000 C 
ATOM     18  O   UNL     1      -0.116  11.783  22.778  0.00  0.00    +0.000 OA
BRANCH  17  19
ATOM     19  O   UNL     1      -2.024  13.028  22.462  0.00  0.00    +0.000 OA
BRANCH  19  21
ATOM     20  C   UNL     1      -1.108  14.912  23.601  0.00  0.00    +0.000 C 
ATOM     21  C   UNL     1      -1.886  13.618  23.759  0.00  0.00    +0.000 C 
ENDBRANCH  19  21
ENDBRANCH  17  19
ENDBRANCH   1  17
BRANCH   3  22
ATOM     22  C   UNL     1       0.386   9.450  18.157  0.00  0.00    +0.000 C 
BRANCH  22  23
ATOM     23  C   UNL     1       1.665   9.349  18.998  0.00  0.00    +0.000 C 
BRANCH  23  24
ATOM     24  N   UNL     1       2.003   7.960  19.269  0.00  0.00    +0.000 N 
ATOM     25  C   UNL     1       1.720   7.459  20.525  0.00  0.00    +0.000 A 
ATOM     26  O   UNL     1       1.248   8.124  21.448  0.00  0.00    +0.000 OA
ATOM     27  N   UNL     1       2.015   6.145  20.746  0.00  0.00    +0.000 N 
ATOM     28  C   UNL     1       2.608   5.329  19.788  0.00  0.00    +0.000 A 
ATOM     29  C   UNL     1       2.795   3.971  20.051  0.00  0.00    +0.000 A 
ATOM     30  C   UNL     1       3.359   3.156  19.068  0.00  0.00    +0.000 A 
ATOM     31  C   UNL     1       3.763   3.697  17.844  0.00  0.00    +0.000 A 
ATOM     32  C   UNL     1       3.600   5.057  17.595  0.00  0.00    +0.000 A 
ATOM     33  C   UNL     1       3.010   5.864  18.569  0.00  0.00    +0.000 A 
ATOM     34  C   UNL     1       2.766   7.292  18.319  0.00  0.00    +0.000 A 
ATOM     35  O   UNL     1       3.240   7.816  17.315  0.00  0.00    +0.000 OA
ATOM     36  H   UNL     1       1.761   5.775  21.650  0.00  0.00    +0.000 HD
ENDBRANCH  23  24
ENDBRANCH  22  23
ENDBRANCH   3  22
TORSDOF 7
ENDMDL
MODEL 9
REMARK VINA RESULT:      -7.2      2.119      3.996
REMARK  Name = 
REMARK  8 active torsions:
REMARK  status: ('A' for Active; 'I' for Inactive)
REMARK    1  A    between atoms: C_1  and  C_2
REMARK    2  A    between atoms: C_2  and  O_3
REMARK    3  A    between atoms: O_3  and  C_4
REMARK    4  A    between atoms: C_4  and  C_6
REMARK    5  A    between atoms: N_8  and  C_9
REMARK    6  A    between atoms: C_9  and  C_10
REMARK    7  A    between atoms: C_10  and  N_11
REMARK    8  A    between atoms: C_25  and  C_26
REMARK                            x       y       z     vdW  Elec       q    Type
REMARK                         _______ _______ _______ _____ _____    ______ ____
ROOT
ATOM      1  C   UNL     1       0.652  11.851  20.260  0.00  0.00    +0.000 C 
ATOM      2  C   UNL     1       1.365  10.516  20.140  0.00  0.00    +0.000 C 
ATOM      3  N   UNL     1       1.169   9.683  21.347  0.00  0.00    +0.000 NA
ATOM      4  C   UNL     1      -0.228   9.567  21.807  0.00  0.00    +0.000 C 
ATOM      5  C   UNL     1      -1.016  10.865  21.798  0.00  0.00    +0.000 C 
ATOM      6  C   UNL     1      -0.848  11.679  20.514  0.00  0.00    +0.000 C 
ENDROOT
BRANCH   6   7
ATOM      7  C   UNL     1      -1.709  11.326  19.289  0.00  0.00    +0.000 A 
ATOM      8  C   UNL     1      -1.073  10.459  18.369  0.00  0.00    +0.000 A 
ATOM      9  C   UNL     1      -1.731   9.951  17.254  0.00  0.00    +0.000 A 
ATOM     10  C   UNL     1      -3.040  10.327  17.007  0.00  0.00    +0.000 A 
ATOM     11  C   UNL     1      -3.688  11.220  17.859  0.00  0.00    +0.000 A 
ATOM     12  C   UNL     1      -3.048  11.709  19.005  0.00  0.00    +0.000 A 
ATOM     13  O   UNL     1      -3.707  12.516  19.878  0.00  0.00    +0.000 OA
ATOM     14  C   UNL     1      -4.970  13.029  19.468  0.00  0.00    +0.000 C 
ATOM     15  C   UNL     1      -5.727  12.257  18.402  0.00  0.00    +0.000 C 
ATOM     16  O   UNL     1      -4.943  11.562  17.451  0.00  0.00    +0.000 OA
ENDBRANCH   6   7
BRANCH   1  17
ATOM     17  C   UNL     1       0.989  12.827  19.153  0.00  0.00    +0.000 C 
ATOM     18  O   UNL     1       1.775  12.627  18.238  0.00  0.00    +0.000 OA
BRANCH  17  19
ATOM     19  O   UNL     1       0.444  14.041  19.470  0.00  0.00    +0.000 OA
BRANCH  19  21
ATOM     20  C   UNL     1       1.238  16.150  18.688  0.00  0.00    +0.000 C 
ATOM     21  C   UNL     1       1.367  15.094  19.771  0.00  0.00    +0.000 C 
ENDBRANCH  19  21
ENDBRANCH  17  19
ENDBRANCH   1  17
BRANCH   3  22
ATOM     22  C   UNL     1       1.689   8.319  21.136  0.00  0.00    +0.000 C 
BRANCH  22  23
ATOM     23  C   UNL     1       1.202   7.648  19.845  0.00  0.00    +0.000 C 
BRANCH  23  24
ATOM     24  N   UNL     1       2.228   6.778  19.290  0.00  0.00    +0.000 N 
ATOM     25  C   UNL     1       2.490   5.589  19.943  0.00  0.00    +0.000 A 
ATOM     26  O   UNL     1       1.950   5.240  20.994  0.00  0.00    +0.000 OA
ATOM     27  N   UNL     1       3.432   4.774  19.386  0.00  0.00    +0.000 N 
ATOM     28  C   UNL     1       4.143   5.109  18.238  0.00  0.00    +0.000 A 
ATOM     29  C   UNL     1       5.023   4.187  17.671  0.00  0.00    +0.000 A 
ATOM     30  C   UNL     1       5.703   4.522  16.499  0.00  0.00    +0.000 A 
ATOM     31  C   UNL     1       5.530   5.780  15.914  0.00  0.00    +0.000 A 
ATOM     32  C   UNL     1       4.671   6.708  16.497  0.00  0.00    +0.000 A 
ATOM     33  C   UNL     1       3.972   6.359  17.653  0.00  0.00    +0.000 A 
ATOM     34  C   UNL     1       3.011   7.290  18.262  0.00  0.00    +0.000 A 
ATOM     35  O   UNL     1       2.950   8.446  17.852  0.00  0.00    +0.000 OA
ATOM     36  H   UNL     1       3.583   3.886  19.843  0.00  0.00    +0.000 HD
ENDBRANCH  23  24
ENDBRANCH  22  23
ENDBRANCH   3  22
TORSDOF 7
ENDMDL
