MODEL 1
REMARK VINA RESULT:      -8.4      0.000      0.000
REMARK  Name = 
REMARK  6 active torsions:
REMARK  status: ('A' for Active; 'I' for Inactive)
REMARK    1  A    between atoms: C_1  and  C_2
REMARK    2  A    between atoms: C_8  and  S_9
REMARK    3  A    between atoms: S_9  and  N_12
REMARK    4  A    between atoms: N_12  and  C_13
REMARK    5  A    between atoms: C_13  and  C_14
REMARK    6  A    between atoms: C_18  and  C_19
REMARK                            x       y       z     vdW  Elec       q    Type
REMARK                         _______ _______ _______ _____ _____    ______ ____
ROOT
ATOM      1  C   UNL     1       2.566   5.612  20.198  0.00  0.00    +0.000 C 
ENDROOT
BRANCH   1   2
ATOM      2  C   UNL     1       2.186   6.934  19.554  0.00  0.00    +0.000 A 
ATOM      3  C   UNL     1       2.673   7.234  18.273  0.00  0.00    +0.000 A 
ATOM      4  C   UNL     1       2.453   8.487  17.700  0.00  0.00    +0.000 A 
ATOM      5  C   UNL     1       1.800   9.483  18.427  0.00  0.00    +0.000 A 
ATOM      6  C   UNL     1       1.318   9.220  19.715  0.00  0.00    +0.000 A 
ATOM      7  C   UNL     1       1.446   7.923  20.227  0.00  0.00    +0.000 A 
BRANCH   6   8
ATOM      8  C   UNL     1       0.614  10.318  20.438  0.00  0.00    +0.000 C 
ATOM      9  O   UNL     1       1.130  10.724  21.483  0.00  0.00    +0.000 OA
ATOM     10  N   UNL     1      -0.571  10.866  19.967  0.00  0.00    +0.000 N 
ATOM     11  C   UNL     1      -1.467  10.469  18.893  0.00  0.00    +0.000 C 
ATOM     12  C   UNL     1      -1.991  11.813  18.415  0.00  0.00    +0.000 C 
ATOM     13  C   UNL     1      -2.240  12.542  19.732  0.00  0.00    +0.000 C 
ATOM     14  C   UNL     1      -1.143  12.015  20.660  0.00  0.00    +0.000 C 
ENDBRANCH   6   8
ENDBRANCH   1   2
BRANCH   1  15
ATOM     15  N   UNL     1       3.945   5.189  19.966  0.00  0.00    +0.000 NA
ATOM     16  H   UNL     1       4.670   5.887  19.853  0.00  0.00    +0.000 HD
BRANCH  15  17
ATOM     17  S   UNL     1       4.237   3.815  19.057  0.00  0.00    +0.000 S 
ATOM     18  O   UNL     1       2.964   3.368  18.537  0.00  0.00    +0.000 OA
ATOM     19  O   UNL     1       5.076   2.951  19.858  0.00  0.00    +0.000 OA
BRANCH  17  27
ATOM     20  C   UNL     1       6.967   5.529  19.211  0.00  0.00    +0.000 C 
ATOM     21  C   UNL     1       6.403   5.158  17.867  0.00  0.00    +0.000 A 
ATOM     22  C   UNL     1       7.093   5.601  16.722  0.00  0.00    +0.000 A 
ATOM     23  C   UNL     1       6.646   5.273  15.443  0.00  0.00    +0.000 A 
ATOM     24  C   UNL     1       5.505   4.501  15.294  0.00  0.00    +0.000 A 
ATOM     25  F   UNL     1       5.087   4.173  14.064  0.00  0.00    +0.000 F 
ATOM     26  C   UNL     1       4.785   4.066  16.397  0.00  0.00    +0.000 A 
ATOM     27  C   UNL     1       5.223   4.402  17.688  0.00  0.00    +0.000 A 
ENDBRANCH  17  27
ENDBRANCH  15  17
ENDBRANCH   1  15
TORSDOF 5
ENDMDL
MODEL 2
REMARK VINA RESULT:      -8.1      3.148      8.235
REMARK  Name = 
REMARK  6 active torsions:
REMARK  status: ('A' for Active; 'I' for Inactive)
REMARK    1  A    between atoms: C_1  and  C_2
REMARK    2  A    between atoms: C_8  and  S_9
REMARK    3  A    between atoms: S_9  and  N_12
REMARK    4  A    between atoms: N_12  and  C_13
REMARK    5  A    between atoms: C_13  and  C_14
REMARK    6  A    between atoms: C_18  and  C_19
REMARK                            x       y       z     vdW  Elec       q    Type
REMARK                         _______ _______ _______ _____ _____    ______ ____
ROOT
ATOM      1  C   UNL     1       2.220   9.200  17.845  0.00  0.00    +0.000 C 
ENDROOT
BRANCH   1   2
ATOM      2  C   UNL     1       2.894   7.842  17.761  0.00  0.00    +0.000 A 
ATOM      3  C   UNL     1       4.141   7.739  17.126  0.00  0.00    +0.000 A 
ATOM      4  C   UNL     1       4.734   6.494  16.914  0.00  0.00    +0.000 A 
ATOM      5  C   UNL     1       4.059   5.328  17.275  0.00  0.00    +0.000 A 
ATOM      6  C   UNL     1       2.805   5.398  17.895  0.00  0.00    +0.000 A 
ATOM      7  C   UNL     1       2.279   6.658  18.202  0.00  0.00    +0.000 A 
BRANCH   6   8
ATOM      8  C   UNL     1       2.136   4.118  18.271  0.00  0.00    +0.000 C 
ATOM      9  O   UNL     1       1.848   3.344  17.356  0.00  0.00    +0.000 OA
ATOM     10  N   UNL     1       1.845   3.803  19.592  0.00  0.00    +0.000 N 
ATOM     11  C   UNL     1       1.908   4.586  20.815  0.00  0.00    +0.000 C 
ATOM     12  C   UNL     1       2.272   3.527  21.841  0.00  0.00    +0.000 C 
ATOM     13  C   UNL     1       1.381   2.362  21.423  0.00  0.00    +0.000 C 
ATOM     14  C   UNL     1       1.298   2.488  19.900  0.00  0.00    +0.000 C 
ENDBRANCH   6   8
ENDBRANCH   1   2
BRANCH   1  15
ATOM     15  N   UNL     1       1.048   9.253  18.714  0.00  0.00    +0.000 NA
ATOM     16  H   UNL     1       0.303   8.577  18.593  0.00  0.00    +0.000 HD
BRANCH  15  17
ATOM     17  S   UNL     1       0.479  10.740  19.230  0.00  0.00    +0.000 S 
ATOM     18  O   UNL     1       1.302  11.753  18.608  0.00  0.00    +0.000 OA
ATOM     19  O   UNL     1       0.331  10.658  20.667  0.00  0.00    +0.000 OA
BRANCH  17  27
ATOM     20  C   UNL     1      -1.907  12.721  20.126  0.00  0.00    +0.000 C 
ATOM     21  C   UNL     1      -2.138  11.747  19.004  0.00  0.00    +0.000 A 
ATOM     22  C   UNL     1      -3.411  11.730  18.403  0.00  0.00    +0.000 A 
ATOM     23  C   UNL     1      -3.692  10.873  17.339  0.00  0.00    +0.000 A 
ATOM     24  C   UNL     1      -2.705  10.023  16.867  0.00  0.00    +0.000 A 
ATOM     25  F   UNL     1      -2.972   9.213  15.834  0.00  0.00    +0.000 F 
ATOM     26  C   UNL     1      -1.446   9.994  17.449  0.00  0.00    +0.000 A 
ATOM     27  C   UNL     1      -1.161  10.845  18.527  0.00  0.00    +0.000 A 
ENDBRANCH  17  27
ENDBRANCH  15  17
ENDBRANCH   1  15
TORSDOF 5
ENDMDL
MODEL 3
REMARK VINA RESULT:      -8.1      3.046      8.819
REMARK  Name = 
REMARK  6 active torsions:
REMARK  status: ('A' for Active; 'I' for Inactive)
REMARK    1  A    between atoms: C_1  and  C_2
REMARK    2  A    between atoms: C_8  and  S_9
REMARK    3  A    between atoms: S_9  and  N_12
REMARK    4  A    between atoms: N_12  and  C_13
REMARK    5  A    between atoms: C_13  and  C_14
REMARK    6  A    between atoms: C_18  and  C_19
REMARK                            x       y       z     vdW  Elec       q    Type
REMARK                         _______ _______ _______ _____ _____    ______ ____
ROOT
ATOM      1  C   UNL     1       1.919   9.448  18.525  0.00  0.00    +0.000 C 
ENDROOT
BRANCH   1   2
ATOM      2  C   UNL     1       2.068   7.978  18.875  0.00  0.00    +0.000 A 
ATOM      3  C   UNL     1       1.711   7.544  20.161  0.00  0.00    +0.000 A 
ATOM      4  C   UNL     1       1.952   6.230  20.564  0.00  0.00    +0.000 A 
ATOM      5  C   UNL     1       2.613   5.347  19.710  0.00  0.00    +0.000 A 
ATOM      6  C   UNL     1       2.996   5.755  18.426  0.00  0.00    +0.000 A 
ATOM      7  C   UNL     1       2.644   7.041  17.999  0.00  0.00    +0.000 A 
BRANCH   6   8
ATOM      8  C   UNL     1       3.686   4.763  17.552  0.00  0.00    +0.000 C 
ATOM      9  O   UNL     1       3.008   3.829  17.117  0.00  0.00    +0.000 OA
ATOM     10  N   UNL     1       5.034   4.875  17.236  0.00  0.00    +0.000 N 
ATOM     11  C   UNL     1       6.082   5.747  17.740  0.00  0.00    +0.000 C 
ATOM     12  C   UNL     1       6.953   5.928  16.509  0.00  0.00    +0.000 C 
ATOM     13  C   UNL     1       6.991   4.513  15.938  0.00  0.00    +0.000 C 
ATOM     14  C   UNL     1       5.616   3.938  16.283  0.00  0.00    +0.000 C 
ENDBRANCH   6   8
ENDBRANCH   1   2
BRANCH   1  15
ATOM     15  N   UNL     1       0.601   9.833  18.030  0.00  0.00    +0.000 NA
ATOM     16  H   UNL     1       0.465   9.992  17.039  0.00  0.00    +0.000 HD
BRANCH  15  17
ATOM     17  S   UNL     1      -0.370  10.821  18.971  0.00  0.00    +0.000 S 
ATOM     18  O   UNL     1       0.224  12.139  18.962  0.00  0.00    +0.000 OA
ATOM     19  O   UNL     1      -0.621  10.109  20.206  0.00  0.00    +0.000 OA
BRANCH  17  27
ATOM     20  C   UNL     1      -3.027  12.459  19.790  0.00  0.00    +0.000 C 
ATOM     21  C   UNL     1      -3.023  11.642  18.528  0.00  0.00    +0.000 A 
ATOM     22  C   UNL     1      -4.205  11.613  17.762  0.00  0.00    +0.000 A 
ATOM     23  C   UNL     1      -4.268  10.899  16.566  0.00  0.00    +0.000 A 
ATOM     24  C   UNL     1      -3.153  10.206  16.123  0.00  0.00    +0.000 A 
ATOM     25  F   UNL     1      -3.211   9.536  14.965  0.00  0.00    +0.000 F 
ATOM     26  C   UNL     1      -1.978  10.191  16.861  0.00  0.00    +0.000 A 
ATOM     27  C   UNL     1      -1.912  10.898  18.072  0.00  0.00    +0.000 A 
ENDBRANCH  17  27
ENDBRANCH  15  17
ENDBRANCH   1  15
TORSDOF 5
ENDMDL
MODEL 4
REMARK VINA RESULT:      -8.1      2.448      3.400
REMARK  Name = 
REMARK  6 active torsions:
REMARK  status: ('A' for Active; 'I' for Inactive)
REMARK    1  A    between atoms: C_1  and  C_2
REMARK    2  A    between atoms: C_8  and  S_9
REMARK    3  A    between atoms: S_9  and  N_12
REMARK    4  A    between atoms: N_12  and  C_13
REMARK    5  A    between atoms: C_13  and  C_14
REMARK    6  A    between atoms: C_18  and  C_19
REMARK                            x       y       z     vdW  Elec       q    Type
REMARK                         _______ _______ _______ _____ _____    ______ ____
ROOT
ATOM      1  C   UNL     1       5.596   4.002  19.368  0.00  0.00    +0.000 C 
ENDROOT
BRANCH   1   2
ATOM      2  C   UNL     1       4.182   4.461  19.058  0.00  0.00    +0.000 A 
ATOM      3  C   UNL     1       3.490   3.864  17.993  0.00  0.00    +0.000 A 
ATOM      4  C   UNL     1       2.242   4.343  17.594  0.00  0.00    +0.000 A 
ATOM      5  C   UNL     1       1.697   5.470  18.210  0.00  0.00    +0.000 A 
ATOM      6  C   UNL     1       2.371   6.098  19.264  0.00  0.00    +0.000 A 
ATOM      7  C   UNL     1       3.566   5.534  19.726  0.00  0.00    +0.000 A 
BRANCH   6   8
ATOM      8  C   UNL     1       1.732   7.290  19.895  0.00  0.00    +0.000 C 
ATOM      9  O   UNL     1       1.356   7.174  21.064  0.00  0.00    +0.000 OA
ATOM     10  N   UNL     1       1.561   8.482  19.204  0.00  0.00    +0.000 N 
ATOM     11  C   UNL     1       1.741   8.831  17.805  0.00  0.00    +0.000 C 
ATOM     12  C   UNL     1       2.191  10.278  17.902  0.00  0.00    +0.000 C 
ATOM     13  C   UNL     1       1.258  10.828  18.976  0.00  0.00    +0.000 C 
ATOM     14  C   UNL     1       1.036   9.641  19.916  0.00  0.00    +0.000 C 
ENDBRANCH   6   8
ENDBRANCH   1   2
BRANCH   1  15
ATOM     15  N   UNL     1       6.555   5.078  19.604  0.00  0.00    +0.000 NA
ATOM     16  H   UNL     1       6.269   5.898  20.125  0.00  0.00    +0.000 HD
BRANCH  15  17
ATOM     17  S   UNL     1       7.690   5.434  18.427  0.00  0.00    +0.000 S 
ATOM     18  O   UNL     1       8.624   4.331  18.385  0.00  0.00    +0.000 OA
ATOM     19  O   UNL     1       8.129   6.792  18.664  0.00  0.00    +0.000 OA
BRANCH  17  27
ATOM     20  C   UNL     1       5.475   7.588  17.493  0.00  0.00    +0.000 C 
ATOM     21  C   UNL     1       5.794   6.422  16.598  0.00  0.00    +0.000 A 
ATOM     22  C   UNL     1       5.086   6.311  15.386  0.00  0.00    +0.000 A 
ATOM     23  C   UNL     1       5.347   5.273  14.494  0.00  0.00    +0.000 A 
ATOM     24  C   UNL     1       6.317   4.332  14.802  0.00  0.00    +0.000 A 
ATOM     25  F   UNL     1       6.577   3.346  13.935  0.00  0.00    +0.000 F 
ATOM     26  C   UNL     1       7.019   4.394  15.997  0.00  0.00    +0.000 A 
ATOM     27  C   UNL     1       6.753   5.430  16.906  0.00  0.00    +0.000 A 
ENDBRANCH  17  27
ENDBRANCH  15  17
ENDBRANCH   1  15
TORSDOF 5
ENDMDL
MODEL 5
REMARK VINA RESULT:      -8.0      2.859      8.035
REMARK  Name = 
REMARK  6 active torsions:
REMARK  status: ('A' for Active; 'I' for Inactive)
REMARK    1  A    between atoms: C_1  and  C_2
REMARK    2  A    between atoms: C_8  and  S_9
REMARK    3  A    between atoms: S_9  and  N_12
REMARK    4  A    between atoms: N_12  and  C_13
REMARK    5  A    between atoms: C_13  and  C_14
REMARK    6  A    between atoms: C_18  and  C_19
REMARK                            x       y       z     vdW  Elec       q    Type
REMARK                         _______ _______ _______ _____ _____    ______ ____
ROOT
ATOM      1  C   UNL     1       1.054   6.367  20.832  0.00  0.00    +0.000 C 
ENDROOT
BRANCH   1   2
ATOM      2  C   UNL     1       2.024   5.293  20.370  0.00  0.00    +0.000 A 
ATOM      3  C   UNL     1       1.749   3.951  20.674  0.00  0.00    +0.000 A 
ATOM      4  C   UNL     1       2.675   2.949  20.381  0.00  0.00    +0.000 A 
ATOM      5  C   UNL     1       3.917   3.281  19.841  0.00  0.00    +0.000 A 
ATOM      6  C   UNL     1       4.227   4.614  19.542  0.00  0.00    +0.000 A 
ATOM      7  C   UNL     1       3.243   5.590  19.736  0.00  0.00    +0.000 A 
BRANCH   6   8
ATOM      8  C   UNL     1       5.565   4.907  18.951  0.00  0.00    +0.000 C 
ATOM      9  O   UNL     1       6.476   5.188  19.734  0.00  0.00    +0.000 OA
ATOM     10  N   UNL     1       5.786   4.871  17.581  0.00  0.00    +0.000 N 
ATOM     11  C   UNL     1       4.878   4.751  16.452  0.00  0.00    +0.000 C 
ATOM     12  C   UNL     1       5.727   3.981  15.454  0.00  0.00    +0.000 C 
ATOM     13  C   UNL     1       7.084   4.662  15.601  0.00  0.00    +0.000 C 
ATOM     14  C   UNL     1       7.143   5.054  17.079  0.00  0.00    +0.000 C 
ENDBRANCH   6   8
ENDBRANCH   1   2
BRANCH   1  15
ATOM     15  N   UNL     1       1.669   7.648  21.169  0.00  0.00    +0.000 NA
ATOM     16  H   UNL     1       2.638   7.676  21.462  0.00  0.00    +0.000 HD
BRANCH  15  17
ATOM     17  S   UNL     1       0.744   8.829  21.913  0.00  0.00    +0.000 S 
ATOM     18  O   UNL     1       1.478   9.278  23.075  0.00  0.00    +0.000 OA
ATOM     19  O   UNL     1      -0.601   8.305  22.019  0.00  0.00    +0.000 OA
BRANCH  17  27
ATOM     20  C   UNL     1      -0.751  11.673  22.217  0.00  0.00    +0.000 C 
ATOM     21  C   UNL     1       0.011  11.370  20.956  0.00  0.00    +0.000 A 
ATOM     22  C   UNL     1       0.018  12.349  19.944  0.00  0.00    +0.000 A 
ATOM     23  C   UNL     1       0.725  12.152  18.759  0.00  0.00    +0.000 A 
ATOM     24  C   UNL     1       1.430  10.974  18.571  0.00  0.00    +0.000 A 
ATOM     25  F   UNL     1       2.123  10.794  17.439  0.00  0.00    +0.000 F 
ATOM     26  C   UNL     1       1.428   9.976  19.535  0.00  0.00    +0.000 A 
ATOM     27  C   UNL     1       0.708  10.163  20.726  0.00  0.00    +0.000 A 
ENDBRANCH  17  27
ENDBRANCH  15  17
ENDBRANCH   1  15
TORSDOF 5
ENDMDL
MODEL 6
REMARK VINA RESULT:      -7.9      1.919      2.441
REMARK  Name = 
REMARK  6 active torsions:
REMARK  status: ('A' for Active; 'I' for Inactive)
REMARK    1  A    between atoms: C_1  and  C_2
REMARK    2  A    between atoms: C_8  and  S_9
REMARK    3  A    between atoms: S_9  and  N_12
REMARK    4  A    between atoms: N_12  and  C_13
REMARK    5  A    between atoms: C_13  and  C_14
REMARK    6  A    between atoms: C_18  and  C_19
REMARK                            x       y       z     vdW  Elec       q    Type
REMARK                         _______ _______ _______ _____ _____    ______ ____
ROOT
ATOM      1  C   UNL     1       2.734   6.281  19.390  0.00  0.00    +0.000 C 
ENDROOT
BRANCH   1   2
ATOM      2  C   UNL     1       2.099   7.651  19.233  0.00  0.00    +0.000 A 
ATOM      3  C   UNL     1       2.282   8.353  18.032  0.00  0.00    +0.000 A 
ATOM      4  C   UNL     1       1.825   9.665  17.894  0.00  0.00    +0.000 A 
ATOM      5  C   UNL     1       1.238  10.317  18.978  0.00  0.00    +0.000 A 
ATOM      6  C   UNL     1       1.057   9.649  20.196  0.00  0.00    +0.000 A 
ATOM      7  C   UNL     1       1.417   8.298  20.278  0.00  0.00    +0.000 A 
BRANCH   6   8
ATOM      8  C   UNL     1       0.409  10.392  21.315  0.00  0.00    +0.000 C 
ATOM      9  O   UNL     1       0.891  10.244  22.441  0.00  0.00    +0.000 OA
ATOM     10  N   UNL     1      -0.690  11.216  21.110  0.00  0.00    +0.000 N 
ATOM     11  C   UNL     1      -1.546  11.425  19.954  0.00  0.00    +0.000 C 
ATOM     12  C   UNL     1      -1.916  12.891  20.106  0.00  0.00    +0.000 C 
ATOM     13  C   UNL     1      -2.183  12.997  21.604  0.00  0.00    +0.000 C 
ATOM     14  C   UNL     1      -1.200  12.003  22.226  0.00  0.00    +0.000 C 
ENDBRANCH   6   8
ENDBRANCH   1   2
BRANCH   1  15
ATOM     15  N   UNL     1       2.797   5.487  18.165  0.00  0.00    +0.000 NA
ATOM     16  H   UNL     1       1.939   5.199  17.711  0.00  0.00    +0.000 HD
BRANCH  15  17
ATOM     17  S   UNL     1       4.023   4.362  17.982  0.00  0.00    +0.000 S 
ATOM     18  O   UNL     1       3.927   3.841  16.637  0.00  0.00    +0.000 OA
ATOM     19  O   UNL     1       3.973   3.494  19.139  0.00  0.00    +0.000 OA
BRANCH  17  27
ATOM     20  C   UNL     1       4.975   6.735  16.012  0.00  0.00    +0.000 C 
ATOM     21  C   UNL     1       5.847   6.344  17.173  0.00  0.00    +0.000 A 
ATOM     22  C   UNL     1       7.067   7.028  17.336  0.00  0.00    +0.000 A 
ATOM     23  C   UNL     1       7.916   6.740  18.404  0.00  0.00    +0.000 A 
ATOM     24  C   UNL     1       7.556   5.764  19.319  0.00  0.00    +0.000 A 
ATOM     25  F   UNL     1       8.365   5.501  20.354  0.00  0.00    +0.000 F 
ATOM     26  C   UNL     1       6.374   5.052  19.180  0.00  0.00    +0.000 A 
ATOM     27  C   UNL     1       5.520   5.329  18.100  0.00  0.00    +0.000 A 
ENDBRANCH  17  27
ENDBRANCH  15  17
ENDBRANCH   1  15
TORSDOF 5
ENDMDL
MODEL 7
REMARK VINA RESULT:      -7.9      1.245      1.812
REMARK  Name = 
REMARK  6 active torsions:
REMARK  status: ('A' for Active; 'I' for Inactive)
REMARK    1  A    between atoms: C_1  and  C_2
REMARK    2  A    between atoms: C_8  and  S_9
REMARK    3  A    between atoms: S_9  and  N_12
REMARK    4  A    between atoms: N_12  and  C_13
REMARK    5  A    between atoms: C_13  and  C_14
REMARK    6  A    between atoms: C_18  and  C_19
REMARK                            x       y       z     vdW  Elec       q    Type
REMARK                         _______ _______ _______ _____ _____    ______ ____
ROOT
ATOM      1  C   UNL     1       3.035   6.552  18.567  0.00  0.00    +0.000 C 
ENDROOT
BRANCH   1   2
ATOM      2  C   UNL     1       2.228   7.595  19.321  0.00  0.00    +0.000 A 
ATOM      3  C   UNL     1       1.888   7.354  20.660  0.00  0.00    +0.000 A 
ATOM      4  C   UNL     1       1.041   8.224  21.349  0.00  0.00    +0.000 A 
ATOM      5  C   UNL     1       0.469   9.311  20.688  0.00  0.00    +0.000 A 
ATOM      6  C   UNL     1       0.777   9.568  19.346  0.00  0.00    +0.000 A 
ATOM      7  C   UNL     1       1.716   8.751  18.706  0.00  0.00    +0.000 A 
BRANCH   6   8
ATOM      8  C   UNL     1       0.147  10.754  18.697  0.00  0.00    +0.000 C 
ATOM      9  O   UNL     1       0.799  11.801  18.685  0.00  0.00    +0.000 OA
ATOM     10  N   UNL     1      -1.118  10.694  18.128  0.00  0.00    +0.000 N 
ATOM     11  C   UNL     1      -2.150   9.670  18.157  0.00  0.00    +0.000 C 
ATOM     12  C   UNL     1      -2.797   9.844  16.794  0.00  0.00    +0.000 C 
ATOM     13  C   UNL     1      -2.871  11.362  16.670  0.00  0.00    +0.000 C 
ATOM     14  C   UNL     1      -1.625  11.856  17.408  0.00  0.00    +0.000 C 
ENDBRANCH   6   8
ENDBRANCH   1   2
BRANCH   1  15
ATOM     15  N   UNL     1       3.687   5.551  19.407  0.00  0.00    +0.000 NA
ATOM     16  H   UNL     1       4.334   5.847  20.128  0.00  0.00    +0.000 HD
BRANCH  15  17
ATOM     17  S   UNL     1       4.107   4.073  18.742  0.00  0.00    +0.000 S 
ATOM     18  O   UNL     1       2.903   3.493  18.192  0.00  0.00    +0.000 OA
ATOM     19  O   UNL     1       4.902   3.378  19.732  0.00  0.00    +0.000 OA
BRANCH  17  27
ATOM     20  C   UNL     1       6.967   5.560  18.920  0.00  0.00    +0.000 C 
ATOM     21  C   UNL     1       6.423   5.164  17.575  0.00  0.00    +0.000 A 
ATOM     22  C   UNL     1       7.189   5.484  16.438  0.00  0.00    +0.000 A 
ATOM     23  C   UNL     1       6.763   5.125  15.161  0.00  0.00    +0.000 A 
ATOM     24  C   UNL     1       5.567   4.443  15.004  0.00  0.00    +0.000 A 
ATOM     25  F   UNL     1       5.168   4.084  13.777  0.00  0.00    +0.000 F 
ATOM     26  C   UNL     1       4.773   4.131  16.098  0.00  0.00    +0.000 A 
ATOM     27  C   UNL     1       5.190   4.500  17.387  0.00  0.00    +0.000 A 
ENDBRANCH  17  27
ENDBRANCH  15  17
ENDBRANCH   1  15
TORSDOF 5
ENDMDL
MODEL 8
REMARK VINA RESULT:      -7.9      4.020      7.497
REMARK  Name = 
REMARK  6 active torsions:
REMARK  status: ('A' for Active; 'I' for Inactive)
REMARK    1  A    between atoms: C_1  and  C_2
REMARK    2  A    between atoms: C_8  and  S_9
REMARK    3  A    between atoms: S_9  and  N_12
REMARK    4  A    between atoms: N_12  and  C_13
REMARK    5  A    between atoms: C_13  and  C_14
REMARK    6  A    between atoms: C_18  and  C_19
REMARK                            x       y       z     vdW  Elec       q    Type
REMARK                         _______ _______ _______ _____ _____    ______ ____
ROOT
ATOM      1  C   UNL     1       4.167   1.957  18.347  0.00  0.00    +0.000 C 
ENDROOT
BRANCH   1   2
ATOM      2  C   UNL     1       5.007   3.219  18.267  0.00  0.00    +0.000 A 
ATOM      3  C   UNL     1       5.017   4.101  19.358  0.00  0.00    +0.000 A 
ATOM      4  C   UNL     1       5.671   5.331  19.277  0.00  0.00    +0.000 A 
ATOM      5  C   UNL     1       6.268   5.727  18.080  0.00  0.00    +0.000 A 
ATOM      6  C   UNL     1       6.260   4.876  16.968  0.00  0.00    +0.000 A 
ATOM      7  C   UNL     1       5.700   3.601  17.104  0.00  0.00    +0.000 A 
BRANCH   6   8
ATOM      8  C   UNL     1       6.927   5.347  15.719  0.00  0.00    +0.000 C 
ATOM      9  O   UNL     1       7.801   6.209  15.840  0.00  0.00    +0.000 OA
ATOM     10  N   UNL     1       6.586   4.846  14.470  0.00  0.00    +0.000 N 
ATOM     11  C   UNL     1       5.501   3.983  14.032  0.00  0.00    +0.000 C 
ATOM     12  C   UNL     1       6.155   3.220  12.893  0.00  0.00    +0.000 C 
ATOM     13  C   UNL     1       6.932   4.321  12.179  0.00  0.00    +0.000 C 
ATOM     14  C   UNL     1       7.357   5.264  13.306  0.00  0.00    +0.000 C 
ENDBRANCH   6   8
ENDBRANCH   1   2
BRANCH   1  15
ATOM     15  N   UNL     1       2.842   2.134  18.933  0.00  0.00    +0.000 NA
ATOM     16  H   UNL     1       2.422   1.378  19.461  0.00  0.00    +0.000 HD
BRANCH  15  17
ATOM     17  S   UNL     1       1.702   3.048  18.116  0.00  0.00    +0.000 S 
ATOM     18  O   UNL     1       0.401   2.533  18.479  0.00  0.00    +0.000 OA
ATOM     19  O   UNL     1       2.132   3.122  16.736  0.00  0.00    +0.000 OA
BRANCH  17  27
ATOM     20  C   UNL     1       1.413   3.876  21.222  0.00  0.00    +0.000 C 
ATOM     21  C   UNL     1       1.714   4.938  20.200  0.00  0.00    +0.000 A 
ATOM     22  C   UNL     1       1.836   6.266  20.650  0.00  0.00    +0.000 A 
ATOM     23  C   UNL     1       2.141   7.300  19.766  0.00  0.00    +0.000 A 
ATOM     24  C   UNL     1       2.325   7.018  18.421  0.00  0.00    +0.000 A 
ATOM     25  F   UNL     1       2.635   8.010  17.577  0.00  0.00    +0.000 F 
ATOM     26  C   UNL     1       2.189   5.726  17.936  0.00  0.00    +0.000 A 
ATOM     27  C   UNL     1       1.871   4.682  18.819  0.00  0.00    +0.000 A 
ENDBRANCH  17  27
ENDBRANCH  15  17
ENDBRANCH   1  15
TORSDOF 5
ENDMDL
MODEL 9
REMARK VINA RESULT:      -7.8      1.374      1.932
REMARK  Name = 
REMARK  6 active torsions:
REMARK  status: ('A' for Active; 'I' for Inactive)
REMARK    1  A    between atoms: C_1  and  C_2
REMARK    2  A    between atoms: C_8  and  S_9
REMARK    3  A    between atoms: S_9  and  N_12
REMARK    4  A    between atoms: N_12  and  C_13
REMARK    5  A    between atoms: C_13  and  C_14
REMARK    6  A    between atoms: C_18  and  C_19
REMARK                            x       y       z     vdW  Elec       q    Type
REMARK                         _______ _______ _______ _____ _____    ______ ____
ROOT
ATOM      1  C   UNL     1       2.402   5.362  20.336  0.00  0.00    +0.000 C 
ENDROOT
BRANCH   1   2
ATOM      2  C   UNL     1       2.106   6.700  19.683  0.00  0.00    +0.000 A 
ATOM      3  C   UNL     1       2.648   6.975  18.418  0.00  0.00    +0.000 A 
ATOM      4  C   UNL     1       2.507   8.237  17.839  0.00  0.00    +0.000 A 
ATOM      5  C   UNL     1       1.880   9.264  18.546  0.00  0.00    +0.000 A 
ATOM      6  C   UNL     1       1.345   9.025  19.818  0.00  0.00    +0.000 A 
ATOM      7  C   UNL     1       1.394   7.724  20.332  0.00  0.00    +0.000 A 
BRANCH   6   8
ATOM      8  C   UNL     1       0.673  10.156  20.520  0.00  0.00    +0.000 C 
ATOM      9  O   UNL     1       1.165  10.528  21.588  0.00  0.00    +0.000 OA
ATOM     10  N   UNL     1      -0.460  10.772  20.004  0.00  0.00    +0.000 N 
ATOM     11  C   UNL     1      -1.330  10.430  18.890  0.00  0.00    +0.000 C 
ATOM     12  C   UNL     1      -1.759  11.803  18.401  0.00  0.00    +0.000 C 
ATOM     13  C   UNL     1      -2.023  12.537  19.712  0.00  0.00    +0.000 C 
ATOM     14  C   UNL     1      -0.997  11.946  20.681  0.00  0.00    +0.000 C 
ENDBRANCH   6   8
ENDBRANCH   1   2
BRANCH   1  15
ATOM     15  N   UNL     1       3.812   4.983  20.352  0.00  0.00    +0.000 NA
ATOM     16  H   UNL     1       4.513   5.671  20.602  0.00  0.00    +0.000 HD
BRANCH  15  17
ATOM     17  S   UNL     1       4.376   3.881  19.225  0.00  0.00    +0.000 S 
ATOM     18  O   UNL     1       3.264   3.543  18.365  0.00  0.00    +0.000 OA
ATOM     19  O   UNL     1       5.107   2.869  19.956  0.00  0.00    +0.000 OA
BRANCH  17  27
ATOM     20  C   UNL     1       4.552   4.085  16.009  0.00  0.00    +0.000 C 
ATOM     21  C   UNL     1       5.555   4.824  16.852  0.00  0.00    +0.000 A 
ATOM     22  C   UNL     1       6.552   5.564  16.187  0.00  0.00    +0.000 A 
ATOM     23  C   UNL     1       7.499   6.296  16.901  0.00  0.00    +0.000 A 
ATOM     24  C   UNL     1       7.462   6.296  18.286  0.00  0.00    +0.000 A 
ATOM     25  F   UNL     1       8.363   7.014  18.969  0.00  0.00    +0.000 F 
ATOM     26  C   UNL     1       6.510   5.560  18.977  0.00  0.00    +0.000 A 
ATOM     27  C   UNL     1       5.561   4.811  18.265  0.00  0.00    +0.000 A 
ENDBRANCH  17  27
ENDBRANCH  15  17
ENDBRANCH   1  15
TORSDOF 5
ENDMDL
