MODEL 1
REMARK VINA RESULT:      -6.2      0.000      0.000
REMARK  Name = 
REMARK  6 active torsions:
REMARK  status: ('A' for Active; 'I' for Inactive)
REMARK    1  A    between atoms: C_1  and  C_2
REMARK    2  A    between atoms: C_4  and  C_5
REMARK    3  A    between atoms: C_5  and  N_6
REMARK    4  A    between atoms: N_6  and  C_7
REMARK    5  A    between atoms: C_7  and  C_8
REMARK    6  A    between atoms: N_10  and  C_11
REMARK                            x       y       z     vdW  Elec       q    Type
REMARK                         _______ _______ _______ _____ _____    ______ ____
ROOT
ATOM      1  C   UNL     1       4.595   3.559  15.973  0.00  0.00    +0.000 C 
ENDROOT
BRANCH   1   2
ATOM      2  C   UNL     1       3.965   4.118  17.263  0.00  0.00    +0.000 C 
ATOM      3  C   UNL     1       2.522   3.595  17.465  0.00  0.00    +0.000 C 
ATOM      4  N   UNL     1       1.882   4.127  18.695  0.00  0.00    +0.000 NA
ATOM      5  C   UNL     1       2.004   5.601  18.684  0.00  0.00    +0.000 C 
ATOM      6  C   UNL     1       3.428   6.105  18.411  0.00  0.00    +0.000 C 
ATOM      7  O   UNL     1       3.953   5.560  17.192  0.00  0.00    +0.000 OA
BRANCH   4   8
ATOM      8  C   UNL     1       2.411   3.498  19.924  0.00  0.00    +0.000 C 
ATOM      9  C   UNL     1       2.140   4.095  21.279  0.00  0.00    +0.000 C 
ATOM     10  C   UNL     1       1.432   2.842  20.863  0.00  0.00    +0.000 C 
ENDBRANCH   4   8
ENDBRANCH   1   2
BRANCH   1  11
ATOM     11  N   UNL     1       5.370   4.616  15.303  0.00  0.00    +0.000 NA
ATOM     12  H   UNL     1       5.175   4.560  14.299  0.00  0.00    +0.000 HD
BRANCH  11  13
ATOM     13  C   UNL     1       6.809   4.442  15.500  0.00  0.00    +0.000 C 
BRANCH  13  17
ATOM     14  C   UNL     1       7.959   8.650  17.875  0.00  0.00    +0.000 C 
ATOM     15  C   UNL     1       7.726   7.194  17.670  0.00  0.00    +0.000 A 
ATOM     16  N   UNL     1       7.369   6.647  16.528  0.00  0.00    +0.000 NA
ATOM     17  C   UNL     1       7.226   5.271  16.679  0.00  0.00    +0.000 A 
ATOM     18  C   UNL     1       7.486   4.808  17.956  0.00  0.00    +0.000 A 
ATOM     19  S   UNL     1       7.922   6.105  18.985  0.00  0.00    +0.000 S 
ENDBRANCH  13  17
ENDBRANCH  11  13
ENDBRANCH   1  11
TORSDOF 5
ENDMDL
MODEL 2
REMARK VINA RESULT:      -6.1      2.349      3.242
REMARK  Name = 
REMARK  6 active torsions:
REMARK  status: ('A' for Active; 'I' for Inactive)
REMARK    1  A    between atoms: C_1  and  C_2
REMARK    2  A    between atoms: C_4  and  C_5
REMARK    3  A    between atoms: C_5  and  N_6
REMARK    4  A    between atoms: N_6  and  C_7
REMARK    5  A    between atoms: C_7  and  C_8
REMARK    6  A    between atoms: N_10  and  C_11
REMARK                            x       y       z     vdW  Elec       q    Type
REMARK                         _______ _______ _______ _____ _____    ______ ____
ROOT
ATOM      1  C   UNL     1       5.164   5.141  17.917  0.00  0.00    +0.000 C 
ENDROOT
BRANCH   1   2
ATOM      2  C   UNL     1       3.962   4.323  18.427  0.00  0.00    +0.000 C 
ATOM      3  C   UNL     1       4.388   3.297  19.505  0.00  0.00    +0.000 C 
ATOM      4  N   UNL     1       3.251   2.482  20.008  0.00  0.00    +0.000 NA
ATOM      5  C   UNL     1       2.550   1.895  18.846  0.00  0.00    +0.000 C 
ATOM      6  C   UNL     1       2.199   2.912  17.752  0.00  0.00    +0.000 C 
ATOM      7  O   UNL     1       3.359   3.631  17.312  0.00  0.00    +0.000 OA
BRANCH   4   8
ATOM      8  C   UNL     1       2.365   3.247  20.911  0.00  0.00    +0.000 C 
ATOM      9  C   UNL     1       0.868   3.147  20.795  0.00  0.00    +0.000 C 
ATOM     10  C   UNL     1       1.572   2.483  21.939  0.00  0.00    +0.000 C 
ENDBRANCH   4   8
ENDBRANCH   1   2
BRANCH   1  11
ATOM     11  N   UNL     1       6.385   4.321  17.983  0.00  0.00    +0.000 NA
ATOM     12  H   UNL     1       6.713   4.325  18.953  0.00  0.00    +0.000 HD
BRANCH  11  13
ATOM     13  C   UNL     1       7.448   4.863  17.137  0.00  0.00    +0.000 C 
BRANCH  13  17
ATOM     14  C   UNL     1       7.809   5.473  12.222  0.00  0.00    +0.000 C 
ATOM     15  C   UNL     1       7.303   4.947  13.519  0.00  0.00    +0.000 A 
ATOM     16  N   UNL     1       7.760   5.304  14.700  0.00  0.00    +0.000 NA
ATOM     17  C   UNL     1       7.079   4.620  15.704  0.00  0.00    +0.000 A 
ATOM     18  C   UNL     1       6.108   3.751  15.244  0.00  0.00    +0.000 A 
ATOM     19  S   UNL     1       6.033   3.788  13.534  0.00  0.00    +0.000 S 
ENDBRANCH  13  17
ENDBRANCH  11  13
ENDBRANCH   1  11
TORSDOF 5
ENDMDL
MODEL 3
REMARK VINA RESULT:      -6.0      1.210      1.389
REMARK  Name = 
REMARK  6 active torsions:
REMARK  status: ('A' for Active; 'I' for Inactive)
REMARK    1  A    between atoms: C_1  and  C_2
REMARK    2  A    between atoms: C_4  and  C_5
REMARK    3  A    between atoms: C_5  and  N_6
REMARK    4  A    between atoms: N_6  and  C_7
REMARK    5  A    between atoms: C_7  and  C_8
REMARK    6  A    between atoms: N_10  and  C_11
REMARK                            x       y       z     vdW  Elec       q    Type
REMARK                         _______ _______ _______ _____ _____    ______ ____
ROOT
ATOM      1  C   UNL     1       5.053   3.183  16.838  0.00  0.00    +0.000 C 
ENDROOT
BRANCH   1   2
ATOM      2  C   UNL     1       3.822   3.350  17.749  0.00  0.00    +0.000 C 
ATOM      3  C   UNL     1       3.419   2.012  18.414  0.00  0.00    +0.000 C 
ATOM      4  N   UNL     1       2.226   2.138  19.290  0.00  0.00    +0.000 NA
ATOM      5  C   UNL     1       1.146   2.788  18.516  0.00  0.00    +0.000 C 
ATOM      6  C   UNL     1       1.581   4.076  17.803  0.00  0.00    +0.000 C 
ATOM      7  O   UNL     1       2.721   3.852  16.962  0.00  0.00    +0.000 OA
BRANCH   4   8
ATOM      8  C   UNL     1       2.533   2.819  20.566  0.00  0.00    +0.000 C 
ATOM      9  C   UNL     1       1.620   3.881  21.116  0.00  0.00    +0.000 C 
ATOM     10  C   UNL     1       1.655   2.527  21.754  0.00  0.00    +0.000 C 
ENDBRANCH   4   8
ENDBRANCH   1   2
BRANCH   1  11
ATOM     11  N   UNL     1       5.089   4.274  15.849  0.00  0.00    +0.000 NA
ATOM     12  H   UNL     1       4.637   3.937  14.994  0.00  0.00    +0.000 HD
BRANCH  11  13
ATOM     13  C   UNL     1       6.460   4.663  15.521  0.00  0.00    +0.000 C 
BRANCH  13  17
ATOM     14  C   UNL     1       7.992   8.788  17.823  0.00  0.00    +0.000 C 
ATOM     15  C   UNL     1       7.677   7.347  17.627  0.00  0.00    +0.000 A 
ATOM     16  N   UNL     1       7.202   6.830  16.514  0.00  0.00    +0.000 NA
ATOM     17  C   UNL     1       7.011   5.459  16.667  0.00  0.00    +0.000 A 
ATOM     18  C   UNL     1       7.354   4.971  17.914  0.00  0.00    +0.000 A 
ATOM     19  S   UNL     1       7.932   6.235  18.912  0.00  0.00    +0.000 S 
ENDBRANCH  13  17
ENDBRANCH  11  13
ENDBRANCH   1  11
TORSDOF 5
ENDMDL
MODEL 4
REMARK VINA RESULT:      -5.9      2.120      3.085
REMARK  Name = 
REMARK  6 active torsions:
REMARK  status: ('A' for Active; 'I' for Inactive)
REMARK    1  A    between atoms: C_1  and  C_2
REMARK    2  A    between atoms: C_4  and  C_5
REMARK    3  A    between atoms: C_5  and  N_6
REMARK    4  A    between atoms: N_6  and  C_7
REMARK    5  A    between atoms: C_7  and  C_8
REMARK    6  A    between atoms: N_10  and  C_11
REMARK                            x       y       z     vdW  Elec       q    Type
REMARK                         _______ _______ _______ _____ _____    ______ ____
ROOT
ATOM      1  C   UNL     1       6.224   5.457  19.356  0.00  0.00    +0.000 C 
ENDROOT
BRANCH   1   2
ATOM      2  C   UNL     1       4.746   5.020  19.340  0.00  0.00    +0.000 C 
ATOM      3  C   UNL     1       4.606   3.483  19.464  0.00  0.00    +0.000 C 
ATOM      4  N   UNL     1       3.191   3.029  19.439  0.00  0.00    +0.000 NA
ATOM      5  C   UNL     1       2.537   3.610  18.247  0.00  0.00    +0.000 C 
ATOM      6  C   UNL     1       2.746   5.124  18.099  0.00  0.00    +0.000 C 
ATOM      7  O   UNL     1       4.139   5.464  18.108  0.00  0.00    +0.000 OA
BRANCH   4   8
ATOM      8  C   UNL     1       2.483   3.317  20.704  0.00  0.00    +0.000 C 
ATOM      9  C   UNL     1       1.323   4.274  20.741  0.00  0.00    +0.000 C 
ATOM     10  C   UNL     1       1.077   2.802  20.862  0.00  0.00    +0.000 C 
ENDBRANCH   4   8
ENDBRANCH   1   2
BRANCH   1  11
ATOM     11  N   UNL     1       6.630   5.877  18.005  0.00  0.00    +0.000 NA
ATOM     12  H   UNL     1       5.782   5.984  17.440  0.00  0.00    +0.000 HD
BRANCH  11  13
ATOM     13  C   UNL     1       7.486   4.880  17.362  0.00  0.00    +0.000 C 
BRANCH  13  17
ATOM     14  C   UNL     1       7.677   5.253  12.413  0.00  0.00    +0.000 C 
ATOM     15  C   UNL     1       7.152   4.879  13.755  0.00  0.00    +0.000 A 
ATOM     16  N   UNL     1       7.738   5.174  14.896  0.00  0.00    +0.000 NA
ATOM     17  C   UNL     1       6.994   4.672  15.959  0.00  0.00    +0.000 A 
ATOM     18  C   UNL     1       5.845   4.000  15.585  0.00  0.00    +0.000 A 
ATOM     19  S   UNL     1       5.682   3.998  13.882  0.00  0.00    +0.000 S 
ENDBRANCH  13  17
ENDBRANCH  11  13
ENDBRANCH   1  11
TORSDOF 5
ENDMDL
MODEL 5
REMARK VINA RESULT:      -5.8      2.394      6.300
REMARK  Name = 
REMARK  6 active torsions:
REMARK  status: ('A' for Active; 'I' for Inactive)
REMARK    1  A    between atoms: C_1  and  C_2
REMARK    2  A    between atoms: C_4  and  C_5
REMARK    3  A    between atoms: C_5  and  N_6
REMARK    4  A    between atoms: N_6  and  C_7
REMARK    5  A    between atoms: C_7  and  C_8
REMARK    6  A    between atoms: N_10  and  C_11
REMARK                            x       y       z     vdW  Elec       q    Type
REMARK                         _______ _______ _______ _____ _____    ______ ____
ROOT
ATOM      1  C   UNL     1       3.646   6.940  17.731  0.00  0.00    +0.000 C 
ENDROOT
BRANCH   1   2
ATOM      2  C   UNL     1       4.859   6.393  16.954  0.00  0.00    +0.000 C 
ATOM      3  C   UNL     1       4.691   4.890  16.620  0.00  0.00    +0.000 C 
ATOM      4  N   UNL     1       5.852   4.330  15.882  0.00  0.00    +0.000 NA
ATOM      5  C   UNL     1       7.084   4.658  16.631  0.00  0.00    +0.000 C 
ATOM      6  C   UNL     1       7.201   6.138  17.017  0.00  0.00    +0.000 C 
ATOM      7  O   UNL     1       6.050   6.583  17.748  0.00  0.00    +0.000 OA
BRANCH   4   8
ATOM      8  C   UNL     1       5.884   4.764  14.469  0.00  0.00    +0.000 C 
ATOM      9  C   UNL     1       7.148   4.668  13.657  0.00  0.00    +0.000 C 
ATOM     10  C   UNL     1       6.027   3.707  13.405  0.00  0.00    +0.000 C 
ENDBRANCH   4   8
ENDBRANCH   1   2
BRANCH   1  11
ATOM     11  N   UNL     1       3.723   6.507  19.136  0.00  0.00    +0.000 NA
ATOM     12  H   UNL     1       4.073   5.544  19.150  0.00  0.00    +0.000 HD
BRANCH  11  13
ATOM     13  C   UNL     1       2.410   6.526  19.782  0.00  0.00    +0.000 C 
BRANCH  13  17
ATOM     14  C   UNL     1       0.656   1.996  18.746  0.00  0.00    +0.000 C 
ATOM     15  C   UNL     1       1.223   3.111  19.552  0.00  0.00    +0.000 A 
ATOM     16  N   UNL     1       1.490   4.312  19.086  0.00  0.00    +0.000 NA
ATOM     17  C   UNL     1       2.019   5.111  20.095  0.00  0.00    +0.000 A 
ATOM     18  C   UNL     1       2.139   4.480  21.319  0.00  0.00    +0.000 A 
ATOM     19  S   UNL     1       1.577   2.867  21.217  0.00  0.00    +0.000 S 
ENDBRANCH  13  17
ENDBRANCH  11  13
ENDBRANCH   1  11
TORSDOF 5
ENDMDL
MODEL 6
REMARK VINA RESULT:      -5.8      2.480      3.550
REMARK  Name = 
REMARK  6 active torsions:
REMARK  status: ('A' for Active; 'I' for Inactive)
REMARK    1  A    between atoms: C_1  and  C_2
REMARK    2  A    between atoms: C_4  and  C_5
REMARK    3  A    between atoms: C_5  and  N_6
REMARK    4  A    between atoms: N_6  and  C_7
REMARK    5  A    between atoms: C_7  and  C_8
REMARK    6  A    between atoms: N_10  and  C_11
REMARK                            x       y       z     vdW  Elec       q    Type
REMARK                         _______ _______ _______ _____ _____    ______ ____
ROOT
ATOM      1  C   UNL     1       5.815   5.517  19.162  0.00  0.00    +0.000 C 
ENDROOT
BRANCH   1   2
ATOM      2  C   UNL     1       4.757   4.400  19.242  0.00  0.00    +0.000 C 
ATOM      3  C   UNL     1       3.495   4.864  20.009  0.00  0.00    +0.000 C 
ATOM      4  N   UNL     1       2.461   3.802  20.115  0.00  0.00    +0.000 NA
ATOM      5  C   UNL     1       3.097   2.584  20.660  0.00  0.00    +0.000 C 
ATOM      6  C   UNL     1       4.387   2.178  19.934  0.00  0.00    +0.000 C 
ATOM      7  O   UNL     1       5.334   3.254  19.905  0.00  0.00    +0.000 OA
BRANCH   4   8
ATOM      8  C   UNL     1       1.750   3.579  18.838  0.00  0.00    +0.000 C 
ATOM      9  C   UNL     1       1.662   2.205  18.231  0.00  0.00    +0.000 C 
ATOM     10  C   UNL     1       0.453   2.814  18.873  0.00  0.00    +0.000 C 
ENDBRANCH   4   8
ENDBRANCH   1   2
BRANCH   1  11
ATOM     11  N   UNL     1       6.080   5.847  17.751  0.00  0.00    +0.000 NA
ATOM     12  H   UNL     1       5.253   5.587  17.207  0.00  0.00    +0.000 HD
BRANCH  11  13
ATOM     13  C   UNL     1       7.227   5.106  17.227  0.00  0.00    +0.000 C 
BRANCH  13  17
ATOM     14  C   UNL     1       7.871   5.413  12.312  0.00  0.00    +0.000 C 
ATOM     15  C   UNL     1       7.299   4.958  13.608  0.00  0.00    +0.000 A 
ATOM     16  N   UNL     1       7.676   5.399  14.789  0.00  0.00    +0.000 NA
ATOM     17  C   UNL     1       6.950   4.764  15.792  0.00  0.00    +0.000 A 
ATOM     18  C   UNL     1       6.026   3.843  15.333  0.00  0.00    +0.000 A 
ATOM     19  S   UNL     1       6.055   3.771  13.623  0.00  0.00    +0.000 S 
ENDBRANCH  13  17
ENDBRANCH  11  13
ENDBRANCH   1  11
TORSDOF 5
ENDMDL
MODEL 7
REMARK VINA RESULT:      -5.8      2.580      3.831
REMARK  Name = 
REMARK  6 active torsions:
REMARK  status: ('A' for Active; 'I' for Inactive)
REMARK    1  A    between atoms: C_1  and  C_2
REMARK    2  A    between atoms: C_4  and  C_5
REMARK    3  A    between atoms: C_5  and  N_6
REMARK    4  A    between atoms: N_6  and  C_7
REMARK    5  A    between atoms: C_7  and  C_8
REMARK    6  A    between atoms: N_10  and  C_11
REMARK                            x       y       z     vdW  Elec       q    Type
REMARK                         _______ _______ _______ _____ _____    ______ ____
ROOT
ATOM      1  C   UNL     1       5.822   4.451  17.794  0.00  0.00    +0.000 C 
ENDROOT
BRANCH   1   2
ATOM      2  C   UNL     1       4.410   4.007  18.222  0.00  0.00    +0.000 C 
ATOM      3  C   UNL     1       4.464   2.845  19.244  0.00  0.00    +0.000 C 
ATOM      4  N   UNL     1       3.116   2.385  19.667  0.00  0.00    +0.000 NA
ATOM      5  C   UNL     1       2.320   2.099  18.454  0.00  0.00    +0.000 C 
ATOM      6  C   UNL     1       2.335   3.231  17.418  0.00  0.00    +0.000 C 
ATOM      7  O   UNL     1       3.675   3.589  17.052  0.00  0.00    +0.000 OA
BRANCH   4   8
ATOM      8  C   UNL     1       2.463   3.332  20.595  0.00  0.00    +0.000 C 
ATOM      9  C   UNL     1       0.965   3.471  20.632  0.00  0.00    +0.000 C 
ATOM     10  C   UNL     1       1.674   2.765  21.746  0.00  0.00    +0.000 C 
ENDBRANCH   4   8
ENDBRANCH   1   2
BRANCH   1  11
ATOM     11  N   UNL     1       5.761   5.079  16.463  0.00  0.00    +0.000 NA
ATOM     12  H   UNL     1       5.182   4.486  15.862  0.00  0.00    +0.000 HD
BRANCH  11  13
ATOM     13  C   UNL     1       7.086   5.193  15.856  0.00  0.00    +0.000 C 
BRANCH  13  17
ATOM     14  C   UNL     1       5.076   2.853  11.964  0.00  0.00    +0.000 C 
ATOM     15  C   UNL     1       6.022   3.712  12.726  0.00  0.00    +0.000 A 
ATOM     16  N   UNL     1       5.953   3.936  14.021  0.00  0.00    +0.000 NA
ATOM     17  C   UNL     1       6.980   4.788  14.415  0.00  0.00    +0.000 A 
ATOM     18  C   UNL     1       7.814   5.191  13.387  0.00  0.00    +0.000 A 
ATOM     19  S   UNL     1       7.316   4.492  11.907  0.00  0.00    +0.000 S 
ENDBRANCH  13  17
ENDBRANCH  11  13
ENDBRANCH   1  11
TORSDOF 5
ENDMDL
MODEL 8
REMARK VINA RESULT:      -5.7      3.226      6.123
REMARK  Name = 
REMARK  6 active torsions:
REMARK  status: ('A' for Active; 'I' for Inactive)
REMARK    1  A    between atoms: C_1  and  C_2
REMARK    2  A    between atoms: C_4  and  C_5
REMARK    3  A    between atoms: C_5  and  N_6
REMARK    4  A    between atoms: N_6  and  C_7
REMARK    5  A    between atoms: C_7  and  C_8
REMARK    6  A    between atoms: N_10  and  C_11
REMARK                            x       y       z     vdW  Elec       q    Type
REMARK                         _______ _______ _______ _____ _____    ______ ____
ROOT
ATOM      1  C   UNL     1       3.892   5.425  19.462  0.00  0.00    +0.000 C 
ENDROOT
BRANCH   1   2
ATOM      2  C   UNL     1       5.058   5.443  18.455  0.00  0.00    +0.000 C 
ATOM      3  C   UNL     1       5.156   4.110  17.673  0.00  0.00    +0.000 C 
ATOM      4  N   UNL     1       6.280   4.092  16.702  0.00  0.00    +0.000 NA
ATOM      5  C   UNL     1       7.517   4.477  17.415  0.00  0.00    +0.000 C 
ATOM      6  C   UNL     1       7.383   5.761  18.244  0.00  0.00    +0.000 C 
ATOM      7  O   UNL     1       6.291   5.677  19.169  0.00  0.00    +0.000 OA
BRANCH   4   8
ATOM      8  C   UNL     1       6.005   4.915  15.505  0.00  0.00    +0.000 C 
ATOM      9  C   UNL     1       6.944   4.910  14.329  0.00  0.00    +0.000 C 
ATOM     10  C   UNL     1       5.625   4.207  14.231  0.00  0.00    +0.000 C 
ENDBRANCH   4   8
ENDBRANCH   1   2
BRANCH   1  11
ATOM     11  N   UNL     1       2.688   5.994  18.835  0.00  0.00    +0.000 NA
ATOM     12  H   UNL     1       2.325   5.307  18.168  0.00  0.00    +0.000 HD
BRANCH  11  13
ATOM     13  C   UNL     1       2.987   7.226  18.105  0.00  0.00    +0.000 C 
BRANCH  13  17
ATOM     14  C   UNL     1       0.255   9.586  21.515  0.00  0.00    +0.000 C 
ATOM     15  C   UNL     1       0.881   9.305  20.195  0.00  0.00    +0.000 A 
ATOM     16  N   UNL     1       1.653   8.270  19.939  0.00  0.00    +0.000 NA
ATOM     17  C   UNL     1       2.081   8.308  18.615  0.00  0.00    +0.000 A 
ATOM     18  C   UNL     1       1.611   9.391  17.894  0.00  0.00    +0.000 A 
ATOM     19  S   UNL     1       0.613  10.374  18.877  0.00  0.00    +0.000 S 
ENDBRANCH  13  17
ENDBRANCH  11  13
ENDBRANCH   1  11
TORSDOF 5
ENDMDL
MODEL 9
REMARK VINA RESULT:      -5.6      2.554      6.100
REMARK  Name = 
REMARK  6 active torsions:
REMARK  status: ('A' for Active; 'I' for Inactive)
REMARK    1  A    between atoms: C_1  and  C_2
REMARK    2  A    between atoms: C_4  and  C_5
REMARK    3  A    between atoms: C_5  and  N_6
REMARK    4  A    between atoms: N_6  and  C_7
REMARK    5  A    between atoms: C_7  and  C_8
REMARK    6  A    between atoms: N_10  and  C_11
REMARK                            x       y       z     vdW  Elec       q    Type
REMARK                         _______ _______ _______ _____ _____    ______ ____
ROOT
ATOM      1  C   UNL     1       2.643   7.063  18.711  0.00  0.00    +0.000 C 
ENDROOT
BRANCH   1   2
ATOM      2  C   UNL     1       3.910   6.308  18.267  0.00  0.00    +0.000 C 
ATOM      3  C   UNL     1       3.565   5.075  17.398  0.00  0.00    +0.000 C 
ATOM      4  N   UNL     1       4.768   4.318  16.965  0.00  0.00    +0.000 NA
ATOM      5  C   UNL     1       5.583   4.016  18.160  0.00  0.00    +0.000 C 
ATOM      6  C   UNL     1       5.857   5.236  19.051  0.00  0.00    +0.000 C 
ATOM      7  O   UNL     1       4.639   5.886  19.440  0.00  0.00    +0.000 OA
BRANCH   4   8
ATOM      8  C   UNL     1       5.517   5.014  15.896  0.00  0.00    +0.000 C 
ATOM      9  C   UNL     1       6.905   4.578  15.514  0.00  0.00    +0.000 C 
ATOM     10  C   UNL     1       5.754   4.278  14.604  0.00  0.00    +0.000 C 
ENDBRANCH   4   8
ENDBRANCH   1   2
BRANCH   1  11
ATOM     11  N   UNL     1       2.587   7.114  20.182  0.00  0.00    +0.000 NA
ATOM     12  H   UNL     1       3.400   6.609  20.545  0.00  0.00    +0.000 HD
BRANCH  11  13
ATOM     13  C   UNL     1       1.379   6.473  20.701  0.00  0.00    +0.000 C 
BRANCH  13  17
ATOM     14  C   UNL     1       0.753   1.904  18.858  0.00  0.00    +0.000 C 
ATOM     15  C   UNL     1       1.247   2.976  19.764  0.00  0.00    +0.000 A 
ATOM     16  N   UNL     1       0.942   4.251  19.650  0.00  0.00    +0.000 NA
ATOM     17  C   UNL     1       1.575   4.986  20.648  0.00  0.00    +0.000 A 
ATOM     18  C   UNL     1       2.354   4.231  21.506  0.00  0.00    +0.000 A 
ATOM     19  S   UNL     1       2.293   2.578  21.068  0.00  0.00    +0.000 S 
ENDBRANCH  13  17
ENDBRANCH  11  13
ENDBRANCH   1  11
TORSDOF 5
ENDMDL
