MODEL 1
REMARK VINA RESULT:      -4.6      0.000      0.000
REMARK  Name = 
REMARK  5 active torsions:
REMARK  status: ('A' for Active; 'I' for Inactive)
REMARK    1  A    between atoms: C_2  and  C_3
REMARK    2  A    between atoms: C_3  and  C_4
REMARK    3  A    between atoms: C_4  and  C_5
REMARK    4  A    between atoms: C_5  and  C_6
REMARK    5  A    between atoms: C_6  and  N_7
REMARK                            x       y       z     vdW  Elec       q    Type
REMARK                         _______ _______ _______ _____ _____    ______ ____
ROOT
ATOM      1  C   UNL     1       3.881   4.139  19.048  0.00  0.00    +0.000 C 
ENDROOT
BRANCH   1   2
ATOM      2  N   UNL     1       2.499   4.624  19.193  0.00  0.00    +0.000 NA
ATOM      3  C   UNL     1       2.025   4.724  20.581  0.00  0.00    +0.000 C 
ATOM      4  C   UNL     1       1.432   3.370  20.906  0.00  0.00    +0.000 C 
ATOM      5  C   UNL     1       0.792   2.950  19.599  0.00  0.00    +0.000 C 
ATOM      6  C   UNL     1       1.540   3.726  18.518  0.00  0.00    +0.000 C 
ENDBRANCH   1   2
BRANCH   1   7
ATOM      7  C   UNL     1       4.177   3.670  17.617  0.00  0.00    +0.000 C 
BRANCH   7   8
ATOM      8  C   UNL     1       4.648   4.803  16.705  0.00  0.00    +0.000 C 
BRANCH   8   9
ATOM      9  C   UNL     1       5.986   4.431  16.065  0.00  0.00    +0.000 C 
BRANCH   9  11
ATOM     10  N   UNL     1       7.942   4.497  17.819  0.00  0.00    +0.000 NA
ATOM     11  C   UNL     1       7.076   4.468  17.046  0.00  0.00    +0.000 C 
ENDBRANCH   9  11
ENDBRANCH   8   9
ENDBRANCH   7   8
ENDBRANCH   1   7
TORSDOF 5
ENDMDL
MODEL 2
REMARK VINA RESULT:      -4.6      1.438      1.968
REMARK  Name = 
REMARK  5 active torsions:
REMARK  status: ('A' for Active; 'I' for Inactive)
REMARK    1  A    between atoms: C_2  and  C_3
REMARK    2  A    between atoms: C_3  and  C_4
REMARK    3  A    between atoms: C_4  and  C_5
REMARK    4  A    between atoms: C_5  and  C_6
REMARK    5  A    between atoms: C_6  and  N_7
REMARK                            x       y       z     vdW  Elec       q    Type
REMARK                         _______ _______ _______ _____ _____    ______ ____
ROOT
ATOM      1  C   UNL     1       4.157   3.498  19.259  0.00  0.00    +0.000 C 
ENDROOT
BRANCH   1   2
ATOM      2  N   UNL     1       3.254   2.440  19.740  0.00  0.00    +0.000 NA
ATOM      3  C   UNL     1       2.013   2.292  18.965  0.00  0.00    +0.000 C 
ATOM      4  C   UNL     1       1.018   3.234  19.608  0.00  0.00    +0.000 C 
ATOM      5  C   UNL     1       1.361   3.146  21.081  0.00  0.00    +0.000 C 
ATOM      6  C   UNL     1       2.818   2.694  21.127  0.00  0.00    +0.000 C 
ENDBRANCH   1   2
BRANCH   1   7
ATOM      7  C   UNL     1       4.211   3.552  17.727  0.00  0.00    +0.000 C 
BRANCH   7   8
ATOM      8  C   UNL     1       4.105   4.976  17.177  0.00  0.00    +0.000 C 
BRANCH   8   9
ATOM      9  C   UNL     1       5.190   5.854  17.802  0.00  0.00    +0.000 C 
BRANCH   9  11
ATOM     10  N   UNL     1       7.312   5.996  16.258  0.00  0.00    +0.000 NA
ATOM     11  C   UNL     1       6.376   5.932  16.941  0.00  0.00    +0.000 C 
ENDBRANCH   9  11
ENDBRANCH   8   9
ENDBRANCH   7   8
ENDBRANCH   1   7
TORSDOF 5
ENDMDL
MODEL 3
REMARK VINA RESULT:      -4.5      1.481      1.752
REMARK  Name = 
REMARK  5 active torsions:
REMARK  status: ('A' for Active; 'I' for Inactive)
REMARK    1  A    between atoms: C_2  and  C_3
REMARK    2  A    between atoms: C_3  and  C_4
REMARK    3  A    between atoms: C_4  and  C_5
REMARK    4  A    between atoms: C_5  and  C_6
REMARK    5  A    between atoms: C_6  and  N_7
REMARK                            x       y       z     vdW  Elec       q    Type
REMARK                         _______ _______ _______ _____ _____    ______ ____
ROOT
ATOM      1  C   UNL     1       3.213   2.871  18.470  0.00  0.00    +0.000 C 
ENDROOT
BRANCH   1   2
ATOM      2  N   UNL     1       3.360   3.441  19.819  0.00  0.00    +0.000 NA
ATOM      3  C   UNL     1       2.570   2.768  20.859  0.00  0.00    +0.000 C 
ATOM      4  C   UNL     1       1.228   3.468  20.867  0.00  0.00    +0.000 C 
ATOM      5  C   UNL     1       1.589   4.910  20.582  0.00  0.00    +0.000 C 
ATOM      6  C   UNL     1       2.930   4.853  19.856  0.00  0.00    +0.000 C 
ENDBRANCH   1   2
BRANCH   1   7
ATOM      7  C   UNL     1       3.366   3.937  17.377  0.00  0.00    +0.000 C 
BRANCH   7   8
ATOM      8  C   UNL     1       4.718   3.870  16.665  0.00  0.00    +0.000 C 
BRANCH   8   9
ATOM      9  C   UNL     1       5.139   5.271  16.219  0.00  0.00    +0.000 C 
BRANCH   9  11
ATOM     10  N   UNL     1       7.528   5.252  15.125  0.00  0.00    +0.000 NA
ATOM     11  C   UNL     1       6.473   5.260  15.610  0.00  0.00    +0.000 C 
ENDBRANCH   9  11
ENDBRANCH   8   9
ENDBRANCH   7   8
ENDBRANCH   1   7
TORSDOF 5
ENDMDL
MODEL 4
REMARK VINA RESULT:      -4.5      1.766      2.216
REMARK  Name = 
REMARK  5 active torsions:
REMARK  status: ('A' for Active; 'I' for Inactive)
REMARK    1  A    between atoms: C_2  and  C_3
REMARK    2  A    between atoms: C_3  and  C_4
REMARK    3  A    between atoms: C_4  and  C_5
REMARK    4  A    between atoms: C_5  and  C_6
REMARK    5  A    between atoms: C_6  and  N_7
REMARK                            x       y       z     vdW  Elec       q    Type
REMARK                         _______ _______ _______ _____ _____    ______ ____
ROOT
ATOM      1  C   UNL     1       4.761   4.478  18.443  0.00  0.00    +0.000 C 
ENDROOT
BRANCH   1   2
ATOM      2  N   UNL     1       3.687   3.803  19.189  0.00  0.00    +0.000 NA
ATOM      3  C   UNL     1       3.443   2.410  18.787  0.00  0.00    +0.000 C 
ATOM      4  C   UNL     1       2.424   2.483  17.669  0.00  0.00    +0.000 C 
ATOM      5  C   UNL     1       1.533   3.634  18.087  0.00  0.00    +0.000 C 
ATOM      6  C   UNL     1       2.393   4.492  19.011  0.00  0.00    +0.000 C 
ENDBRANCH   1   2
BRANCH   1   7
ATOM      7  C   UNL     1       4.326   5.860  17.935  0.00  0.00    +0.000 C 
BRANCH   7   8
ATOM      8  C   UNL     1       4.810   6.150  16.514  0.00  0.00    +0.000 C 
BRANCH   8   9
ATOM      9  C   UNL     1       5.304   4.859  15.860  0.00  0.00    +0.000 C 
BRANCH   9  11
ATOM     10  N   UNL     1       7.560   5.242  14.570  0.00  0.00    +0.000 NA
ATOM     11  C   UNL     1       6.562   5.072  15.138  0.00  0.00    +0.000 C 
ENDBRANCH   9  11
ENDBRANCH   8   9
ENDBRANCH   7   8
ENDBRANCH   1   7
TORSDOF 5
ENDMDL
MODEL 5
REMARK VINA RESULT:      -4.5      1.967      2.501
REMARK  Name = 
REMARK  5 active torsions:
REMARK  status: ('A' for Active; 'I' for Inactive)
REMARK    1  A    between atoms: C_2  and  C_3
REMARK    2  A    between atoms: C_3  and  C_4
REMARK    3  A    between atoms: C_4  and  C_5
REMARK    4  A    between atoms: C_5  and  C_6
REMARK    5  A    between atoms: C_6  and  N_7
REMARK                            x       y       z     vdW  Elec       q    Type
REMARK                         _______ _______ _______ _____ _____    ______ ____
ROOT
ATOM      1  C   UNL     1       3.582   3.098  18.494  0.00  0.00    +0.000 C 
ENDROOT
BRANCH   1   2
ATOM      2  N   UNL     1       2.740   2.333  19.428  0.00  0.00    +0.000 NA
ATOM      3  C   UNL     1       1.294   2.538  19.259  0.00  0.00    +0.000 C 
ATOM      4  C   UNL     1       0.945   3.720  20.139  0.00  0.00    +0.000 C 
ATOM      5  C   UNL     1       1.854   3.540  21.336  0.00  0.00    +0.000 C 
ATOM      6  C   UNL     1       3.023   2.699  20.830  0.00  0.00    +0.000 C 
ENDBRANCH   1   2
BRANCH   1   7
ATOM      7  C   UNL     1       4.714   3.839  19.218  0.00  0.00    +0.000 C 
BRANCH   7   8
ATOM      8  C   UNL     1       4.609   5.360  19.087  0.00  0.00    +0.000 C 
BRANCH   8   9
ATOM      9  C   UNL     1       3.849   5.719  17.810  0.00  0.00    +0.000 C 
BRANCH   9  11
ATOM     10  N   UNL     1       5.469   6.629  15.952  0.00  0.00    +0.000 NA
ATOM     11  C   UNL     1       4.754   6.226  16.774  0.00  0.00    +0.000 C 
ENDBRANCH   9  11
ENDBRANCH   8   9
ENDBRANCH   7   8
ENDBRANCH   1   7
TORSDOF 5
ENDMDL
MODEL 6
REMARK VINA RESULT:      -4.5      1.440      1.863
REMARK  Name = 
REMARK  5 active torsions:
REMARK  status: ('A' for Active; 'I' for Inactive)
REMARK    1  A    between atoms: C_2  and  C_3
REMARK    2  A    between atoms: C_3  and  C_4
REMARK    3  A    between atoms: C_4  and  C_5
REMARK    4  A    between atoms: C_5  and  C_6
REMARK    5  A    between atoms: C_6  and  N_7
REMARK                            x       y       z     vdW  Elec       q    Type
REMARK                         _______ _______ _______ _____ _____    ______ ____
ROOT
ATOM      1  C   UNL     1       3.700   3.593  17.996  0.00  0.00    +0.000 C 
ENDROOT
BRANCH   1   2
ATOM      2  N   UNL     1       3.211   3.160  19.316  0.00  0.00    +0.000 NA
ATOM      3  C   UNL     1       2.214   2.081  19.277  0.00  0.00    +0.000 C 
ATOM      4  C   UNL     1       0.872   2.772  19.167  0.00  0.00    +0.000 C 
ATOM      5  C   UNL     1       1.052   4.015  20.014  0.00  0.00    +0.000 C 
ATOM      6  C   UNL     1       2.557   4.269  20.037  0.00  0.00    +0.000 C 
ENDBRANCH   1   2
BRANCH   1   7
ATOM      7  C   UNL     1       3.595   5.113  17.816  0.00  0.00    +0.000 C 
BRANCH   7   8
ATOM      8  C   UNL     1       4.620   5.667  16.826  0.00  0.00    +0.000 C 
BRANCH   8   9
ATOM      9  C   UNL     1       5.270   4.517  16.055  0.00  0.00    +0.000 C 
BRANCH   9  11
ATOM     10  N   UNL     1       7.479   5.289  14.860  0.00  0.00    +0.000 NA
ATOM     11  C   UNL     1       6.504   4.949  15.390  0.00  0.00    +0.000 C 
ENDBRANCH   9  11
ENDBRANCH   8   9
ENDBRANCH   7   8
ENDBRANCH   1   7
TORSDOF 5
ENDMDL
MODEL 7
REMARK VINA RESULT:      -4.5      1.415      1.854
REMARK  Name = 
REMARK  5 active torsions:
REMARK  status: ('A' for Active; 'I' for Inactive)
REMARK    1  A    between atoms: C_2  and  C_3
REMARK    2  A    between atoms: C_3  and  C_4
REMARK    3  A    between atoms: C_4  and  C_5
REMARK    4  A    between atoms: C_5  and  C_6
REMARK    5  A    between atoms: C_6  and  N_7
REMARK                            x       y       z     vdW  Elec       q    Type
REMARK                         _______ _______ _______ _____ _____    ______ ____
ROOT
ATOM      1  C   UNL     1       2.478   4.454  17.762  0.00  0.00    +0.000 C 
ENDROOT
BRANCH   1   2
ATOM      2  N   UNL     1       2.369   3.252  18.605  0.00  0.00    +0.000 NA
ATOM      3  C   UNL     1       1.020   2.988  19.125  0.00  0.00    +0.000 C 
ATOM      4  C   UNL     1       0.937   3.740  20.437  0.00  0.00    +0.000 C 
ATOM      5  C   UNL     1       2.334   3.601  21.004  0.00  0.00    +0.000 C 
ATOM      6  C   UNL     1       3.234   3.351  19.797  0.00  0.00    +0.000 C 
ENDBRANCH   1   2
BRANCH   1   7
ATOM      7  C   UNL     1       3.921   4.973  17.686  0.00  0.00    +0.000 C 
BRANCH   7   8
ATOM      8  C   UNL     1       4.692   4.413  16.490  0.00  0.00    +0.000 C 
BRANCH   8   9
ATOM      9  C   UNL     1       6.195   4.476  16.767  0.00  0.00    +0.000 C 
BRANCH   9  11
ATOM     10  N   UNL     1       7.526   5.315  14.663  0.00  0.00    +0.000 NA
ATOM     11  C   UNL     1       6.936   4.943  15.591  0.00  0.00    +0.000 C 
ENDBRANCH   9  11
ENDBRANCH   8   9
ENDBRANCH   7   8
ENDBRANCH   1   7
TORSDOF 5
ENDMDL
MODEL 8
REMARK VINA RESULT:      -4.5      1.479      1.923
REMARK  Name = 
REMARK  5 active torsions:
REMARK  status: ('A' for Active; 'I' for Inactive)
REMARK    1  A    between atoms: C_2  and  C_3
REMARK    2  A    between atoms: C_3  and  C_4
REMARK    3  A    between atoms: C_4  and  C_5
REMARK    4  A    between atoms: C_5  and  C_6
REMARK    5  A    between atoms: C_6  and  N_7
REMARK                            x       y       z     vdW  Elec       q    Type
REMARK                         _______ _______ _______ _____ _____    ______ ____
ROOT
ATOM      1  C   UNL     1       3.482   2.819  18.498  0.00  0.00    +0.000 C 
ENDROOT
BRANCH   1   2
ATOM      2  N   UNL     1       2.108   2.944  19.011  0.00  0.00    +0.000 NA
ATOM      3  C   UNL     1       1.606   4.324  19.091  0.00  0.00    +0.000 C 
ATOM      4  C   UNL     1       2.010   4.824  20.462  0.00  0.00    +0.000 C 
ATOM      5  C   UNL     1       1.865   3.595  21.335  0.00  0.00    +0.000 C 
ATOM      6  C   UNL     1       1.995   2.409  20.382  0.00  0.00    +0.000 C 
ENDBRANCH   1   2
BRANCH   1   7
ATOM      7  C   UNL     1       3.735   3.747  17.303  0.00  0.00    +0.000 C 
BRANCH   7   8
ATOM      8  C   UNL     1       5.107   4.422  17.352  0.00  0.00    +0.000 C 
BRANCH   8   9
ATOM      9  C   UNL     1       5.121   5.487  18.449  0.00  0.00    +0.000 C 
BRANCH   9  11
ATOM     10  N   UNL     1       7.323   5.359  19.878  0.00  0.00    +0.000 NA
ATOM     11  C   UNL     1       6.349   5.416  19.248  0.00  0.00    +0.000 C 
ENDBRANCH   9  11
ENDBRANCH   8   9
ENDBRANCH   7   8
ENDBRANCH   1   7
TORSDOF 5
ENDMDL
MODEL 9
REMARK VINA RESULT:      -4.5      1.304      1.907
REMARK  Name = 
REMARK  5 active torsions:
REMARK  status: ('A' for Active; 'I' for Inactive)
REMARK    1  A    between atoms: C_2  and  C_3
REMARK    2  A    between atoms: C_3  and  C_4
REMARK    3  A    between atoms: C_4  and  C_5
REMARK    4  A    between atoms: C_5  and  C_6
REMARK    5  A    between atoms: C_6  and  N_7
REMARK                            x       y       z     vdW  Elec       q    Type
REMARK                         _______ _______ _______ _____ _____    ______ ____
ROOT
ATOM      1  C   UNL     1       3.432   4.375  19.862  0.00  0.00    +0.000 C 
ENDROOT
BRANCH   1   2
ATOM      2  N   UNL     1       3.029   2.963  19.959  0.00  0.00    +0.000 NA
ATOM      3  C   UNL     1       3.423   2.132  18.813  0.00  0.00    +0.000 C 
ATOM      4  C   UNL     1       2.284   2.239  17.822  0.00  0.00    +0.000 C 
ATOM      5  C   UNL     1       1.059   2.302  18.711  0.00  0.00    +0.000 C 
ATOM      6  C   UNL     1       1.562   2.827  20.052  0.00  0.00    +0.000 C 
ENDBRANCH   1   2
BRANCH   1   7
ATOM      7  C   UNL     1       4.771   4.540  19.131  0.00  0.00    +0.000 C 
BRANCH   7   8
ATOM      8  C   UNL     1       4.670   5.443  17.900  0.00  0.00    +0.000 C 
BRANCH   8   9
ATOM      9  C   UNL     1       5.203   4.704  16.672  0.00  0.00    +0.000 C 
BRANCH   9  11
ATOM     10  N   UNL     1       7.815   4.437  16.777  0.00  0.00    +0.000 NA
ATOM     11  C   UNL     1       6.661   4.556  16.728  0.00  0.00    +0.000 C 
ENDBRANCH   9  11
ENDBRANCH   8   9
ENDBRANCH   7   8
ENDBRANCH   1   7
TORSDOF 5
ENDMDL
