MODEL 1
REMARK VINA RESULT:      -6.8      0.000      0.000
REMARK  Name = 
REMARK  7 active torsions:
REMARK  status: ('A' for Active; 'I' for Inactive)
REMARK    1  A    between atoms: C_1  and  C_2
REMARK    2  A    between atoms: C_2  and  C_3
REMARK    3  A    between atoms: C_3  and  C_4
REMARK    4  A    between atoms: C_4  and  N_5
REMARK    5  A    between atoms: C_6  and  C_8
REMARK    6  A    between atoms: C_8  and  C_9
REMARK    7  A    between atoms: C_15  and  C_17
REMARK                            x       y       z     vdW  Elec       q    Type
REMARK                         _______ _______ _______ _____ _____    ______ ____
ROOT
ATOM      1  C   UNL     1       4.839   5.857  17.213  0.00  0.00    +0.000 C 
ATOM      2  C   UNL     1       3.740   6.810  17.731  0.00  0.00    +0.000 C 
ATOM      3  C   UNL     1       4.952   6.254  15.703  0.00  0.00    +0.000 C 
ATOM      4  C   UNL     1       5.858   5.402  14.820  0.00  0.00    +0.000 C 
ATOM      5  C   UNL     1       5.628   3.922  15.054  0.00  0.00    +0.000 C 
ATOM      6  C   UNL     1       5.681   3.604  16.535  0.00  0.00    +0.000 C 
ATOM      7  N   UNL     1       4.662   4.355  17.297  0.00  0.00    +0.000 N 
ATOM      8  C   UNL     1       4.162   3.637  18.407  0.00  0.00    +0.000 C 
ATOM      9  O   UNL     1       4.678   2.571  18.751  0.00  0.00    +0.000 OA
ENDROOT
BRANCH   8  10
ATOM     10  C   UNL     1       3.049   4.144  19.166  0.00  0.00    +0.000 A 
ATOM     11  C   UNL     1       1.698   4.114  18.900  0.00  0.00    +0.000 A 
ATOM     12  C   UNL     1       1.110   4.736  20.010  0.00  0.00    +0.000 A 
ATOM     13  N   UNL     1       2.026   5.192  20.867  0.00  0.00    +0.000 NA
ATOM     14  O   UNL     1       3.250   4.879  20.293  0.00  0.00    +0.000 OA
ENDBRANCH   8  10
BRANCH   1  16
ATOM     15  N   UNL     1       6.939   7.175  17.524  0.00  0.00    +0.000 N 
ATOM     16  C   UNL     1       6.123   6.182  18.056  0.00  0.00    +0.000 C 
ATOM     17  O   UNL     1       6.362   5.652  19.140  0.00  0.00    +0.000 OA
ATOM     18  H   UNL     1       6.771   7.522  16.593  0.00  0.00    +0.000 HD
BRANCH  15  19
ATOM     19  C   UNL     1       8.083   7.701  18.249  0.00  0.00    +0.000 C 
BRANCH  19  20
ATOM     20  C   UNL     1       8.334   9.194  18.020  0.00  0.00    +0.000 C 
BRANCH  20  22
ATOM     21  C   UNL     1       9.771  11.178  18.664  0.00  0.00    +0.000 C 
ATOM     22  C   UNL     1       9.144   9.869  19.130  0.00  0.00    +0.000 C 
ENDBRANCH  20  22
ENDBRANCH  19  20
ENDBRANCH  15  19
ENDBRANCH   1  16
TORSDOF 5
ENDMDL
MODEL 2
REMARK VINA RESULT:      -6.7      1.073      1.234
REMARK  Name = 
REMARK  7 active torsions:
REMARK  status: ('A' for Active; 'I' for Inactive)
REMARK    1  A    between atoms: C_1  and  C_2
REMARK    2  A    between atoms: C_2  and  C_3
REMARK    3  A    between atoms: C_3  and  C_4
REMARK    4  A    between atoms: C_4  and  N_5
REMARK    5  A    between atoms: C_6  and  C_8
REMARK    6  A    between atoms: C_8  and  C_9
REMARK    7  A    between atoms: C_15  and  C_17
REMARK                            x       y       z     vdW  Elec       q    Type
REMARK                         _______ _______ _______ _____ _____    ______ ____
ROOT
ATOM      1  C   UNL     1       4.439   5.508  17.858  0.00  0.00    +0.000 C 
ATOM      2  C   UNL     1       3.416   6.244  18.752  0.00  0.00    +0.000 C 
ATOM      3  C   UNL     1       4.529   6.440  16.604  0.00  0.00    +0.000 C 
ATOM      4  C   UNL     1       5.353   5.945  15.421  0.00  0.00    +0.000 C 
ATOM      5  C   UNL     1       5.042   4.499  15.094  0.00  0.00    +0.000 C 
ATOM      6  C   UNL     1       5.122   3.643  16.343  0.00  0.00    +0.000 C 
ATOM      7  N   UNL     1       4.174   4.095  17.382  0.00  0.00    +0.000 N 
ATOM      8  C   UNL     1       3.667   3.035  18.166  0.00  0.00    +0.000 C 
ATOM      9  O   UNL     1       4.128   1.896  18.058  0.00  0.00    +0.000 OA
ENDROOT
BRANCH   8  10
ATOM     10  C   UNL     1       2.611   3.266  19.116  0.00  0.00    +0.000 A 
ATOM     11  C   UNL     1       1.269   3.507  18.920  0.00  0.00    +0.000 A 
ATOM     12  C   UNL     1       0.743   3.626  20.214  0.00  0.00    +0.000 A 
ATOM     13  N   UNL     1       1.695   3.545  21.146  0.00  0.00    +0.000 NA
ATOM     14  O   UNL     1       2.881   3.390  20.444  0.00  0.00    +0.000 OA
ENDBRANCH   8  10
BRANCH   1  16
ATOM     15  N   UNL     1       6.846   6.115  18.143  0.00  0.00    +0.000 N 
ATOM     16  C   UNL     1       5.765   5.435  18.695  0.00  0.00    +0.000 C 
ATOM     17  O   UNL     1       5.834   4.877  19.789  0.00  0.00    +0.000 OA
ATOM     18  H   UNL     1       6.789   6.479  17.205  0.00  0.00    +0.000 HD
BRANCH  15  19
ATOM     19  C   UNL     1       8.102   6.273  18.858  0.00  0.00    +0.000 C 
BRANCH  19  20
ATOM     20  C   UNL     1       8.531   7.731  19.048  0.00  0.00    +0.000 C 
BRANCH  20  22
ATOM     21  C   UNL     1       8.608  10.085  18.116  0.00  0.00    +0.000 C 
ATOM     22  C   UNL     1       8.185   8.642  17.866  0.00  0.00    +0.000 C 
ENDBRANCH  20  22
ENDBRANCH  19  20
ENDBRANCH  15  19
ENDBRANCH   1  16
TORSDOF 5
ENDMDL
MODEL 3
REMARK VINA RESULT:      -6.6      1.611      1.853
REMARK  Name = 
REMARK  7 active torsions:
REMARK  status: ('A' for Active; 'I' for Inactive)
REMARK    1  A    between atoms: C_1  and  C_2
REMARK    2  A    between atoms: C_2  and  C_3
REMARK    3  A    between atoms: C_3  and  C_4
REMARK    4  A    between atoms: C_4  and  N_5
REMARK    5  A    between atoms: C_6  and  C_8
REMARK    6  A    between atoms: C_8  and  C_9
REMARK    7  A    between atoms: C_15  and  C_17
REMARK                            x       y       z     vdW  Elec       q    Type
REMARK                         _______ _______ _______ _____ _____    ______ ____
ROOT
ATOM      1  C   UNL     1       4.193   5.298  17.773  0.00  0.00    +0.000 C 
ATOM      2  C   UNL     1       3.009   5.861  18.590  0.00  0.00    +0.000 C 
ATOM      3  C   UNL     1       4.333   6.340  16.613  0.00  0.00    +0.000 C 
ATOM      4  C   UNL     1       5.330   6.023  15.503  0.00  0.00    +0.000 C 
ATOM      5  C   UNL     1       5.198   4.589  15.033  0.00  0.00    +0.000 C 
ATOM      6  C   UNL     1       5.219   3.638  16.213  0.00  0.00    +0.000 C 
ATOM      7  N   UNL     1       4.121   3.914  17.162  0.00  0.00    +0.000 N 
ATOM      8  C   UNL     1       3.633   2.749  17.796  0.00  0.00    +0.000 C 
ATOM      9  O   UNL     1       4.211   1.668  17.657  0.00  0.00    +0.000 OA
ENDROOT
BRANCH   8  10
ATOM     10  C   UNL     1       2.459   2.804  18.626  0.00  0.00    +0.000 A 
ATOM     11  C   UNL     1       2.331   2.759  19.997  0.00  0.00    +0.000 A 
ATOM     12  C   UNL     1       0.953   2.881  20.223  0.00  0.00    +0.000 A 
ATOM     13  N   UNL     1       0.263   2.918  19.081  0.00  0.00    +0.000 NA
ATOM     14  O   UNL     1       1.214   2.797  18.077  0.00  0.00    +0.000 OA
ENDBRANCH   8  10
BRANCH   1  16
ATOM     15  N   UNL     1       6.623   5.686  18.203  0.00  0.00    +0.000 N 
ATOM     16  C   UNL     1       5.417   5.268  18.755  0.00  0.00    +0.000 C 
ATOM     17  O   UNL     1       5.313   4.961  19.941  0.00  0.00    +0.000 OA
ATOM     18  H   UNL     1       6.699   5.838  17.210  0.00  0.00    +0.000 HD
BRANCH  15  19
ATOM     19  C   UNL     1       7.819   5.860  19.011  0.00  0.00    +0.000 C 
BRANCH  19  20
ATOM     20  C   UNL     1       8.413   7.271  18.947  0.00  0.00    +0.000 C 
BRANCH  20  22
ATOM     21  C   UNL     1       8.329   9.572  17.891  0.00  0.00    +0.000 C 
ATOM     22  C   UNL     1       7.888   8.116  17.783  0.00  0.00    +0.000 C 
ENDBRANCH  20  22
ENDBRANCH  19  20
ENDBRANCH  15  19
ENDBRANCH   1  16
TORSDOF 5
ENDMDL
MODEL 4
REMARK VINA RESULT:      -6.5      2.731      3.925
REMARK  Name = 
REMARK  7 active torsions:
REMARK  status: ('A' for Active; 'I' for Inactive)
REMARK    1  A    between atoms: C_1  and  C_2
REMARK    2  A    between atoms: C_2  and  C_3
REMARK    3  A    between atoms: C_3  and  C_4
REMARK    4  A    between atoms: C_4  and  N_5
REMARK    5  A    between atoms: C_6  and  C_8
REMARK    6  A    between atoms: C_8  and  C_9
REMARK    7  A    between atoms: C_15  and  C_17
REMARK                            x       y       z     vdW  Elec       q    Type
REMARK                         _______ _______ _______ _____ _____    ______ ____
ROOT
ATOM      1  C   UNL     1       4.575   4.757  16.767  0.00  0.00    +0.000 C 
ATOM      2  C   UNL     1       3.206   4.070  16.966  0.00  0.00    +0.000 C 
ATOM      3  C   UNL     1       5.034   4.208  15.375  0.00  0.00    +0.000 C 
ATOM      4  C   UNL     1       6.441   4.565  14.910  0.00  0.00    +0.000 C 
ATOM      5  C   UNL     1       7.458   4.370  16.016  0.00  0.00    +0.000 C 
ATOM      6  C   UNL     1       7.001   5.060  17.286  0.00  0.00    +0.000 C 
ATOM      7  N   UNL     1       5.700   4.540  17.758  0.00  0.00    +0.000 N 
ATOM      8  C   UNL     1       5.582   4.545  19.166  0.00  0.00    +0.000 C 
ATOM      9  O   UNL     1       6.437   5.091  19.867  0.00  0.00    +0.000 OA
ENDROOT
BRANCH   8  10
ATOM     10  C   UNL     1       4.453   3.925  19.808  0.00  0.00    +0.000 A 
ATOM     11  C   UNL     1       4.179   2.597  20.048  0.00  0.00    +0.000 A 
ATOM     12  C   UNL     1       2.953   2.610  20.727  0.00  0.00    +0.000 A 
ATOM     13  N   UNL     1       2.457   3.845  20.833  0.00  0.00    +0.000 NA
ATOM     14  O   UNL     1       3.374   4.662  20.188  0.00  0.00    +0.000 OA
ENDBRANCH   8  10
BRANCH   1  16
ATOM     15  N   UNL     1       3.399   6.723  17.764  0.00  0.00    +0.000 N 
ATOM     16  C   UNL     1       4.287   6.300  16.780  0.00  0.00    +0.000 C 
ATOM     17  O   UNL     1       4.849   7.091  16.024  0.00  0.00    +0.000 OA
ATOM     18  H   UNL     1       2.883   6.047  18.304  0.00  0.00    +0.000 HD
BRANCH  15  19
ATOM     19  C   UNL     1       3.139   8.132  18.011  0.00  0.00    +0.000 C 
BRANCH  19  20
ATOM     20  C   UNL     1       1.695   8.557  17.728  0.00  0.00    +0.000 C 
BRANCH  20  22
ATOM     21  C   UNL     1      -0.108  10.134  18.553  0.00  0.00    +0.000 C 
ATOM     22  C   UNL     1       1.363   9.981  18.183  0.00  0.00    +0.000 C 
ENDBRANCH  20  22
ENDBRANCH  19  20
ENDBRANCH  15  19
ENDBRANCH   1  16
TORSDOF 5
ENDMDL
MODEL 5
REMARK VINA RESULT:      -6.5      2.070      4.950
REMARK  Name = 
REMARK  7 active torsions:
REMARK  status: ('A' for Active; 'I' for Inactive)
REMARK    1  A    between atoms: C_1  and  C_2
REMARK    2  A    between atoms: C_2  and  C_3
REMARK    3  A    between atoms: C_3  and  C_4
REMARK    4  A    between atoms: C_4  and  N_5
REMARK    5  A    between atoms: C_6  and  C_8
REMARK    6  A    between atoms: C_8  and  C_9
REMARK    7  A    between atoms: C_15  and  C_17
REMARK                            x       y       z     vdW  Elec       q    Type
REMARK                         _______ _______ _______ _____ _____    ______ ____
ROOT
ATOM      1  C   UNL     1       6.424   5.402  18.295  0.00  0.00    +0.000 C 
ATOM      2  C   UNL     1       5.744   4.407  19.263  0.00  0.00    +0.000 C 
ATOM      3  C   UNL     1       7.620   5.944  19.147  0.00  0.00    +0.000 C 
ATOM      4  C   UNL     1       8.444   7.081  18.554  0.00  0.00    +0.000 C 
ATOM      5  C   UNL     1       7.558   8.164  17.974  0.00  0.00    +0.000 C 
ATOM      6  C   UNL     1       6.521   7.563  17.046  0.00  0.00    +0.000 C 
ATOM      7  N   UNL     1       5.659   6.586  17.742  0.00  0.00    +0.000 N 
ATOM      8  C   UNL     1       4.336   6.564  17.246  0.00  0.00    +0.000 C 
ATOM      9  O   UNL     1       4.035   7.194  16.229  0.00  0.00    +0.000 OA
ENDROOT
BRANCH   8  10
ATOM     10  C   UNL     1       3.317   5.795  17.909  0.00  0.00    +0.000 A 
ATOM     11  C   UNL     1       2.637   6.035  19.083  0.00  0.00    +0.000 A 
ATOM     12  C   UNL     1       1.755   4.953  19.202  0.00  0.00    +0.000 A 
ATOM     13  N   UNL     1       1.924   4.063  18.222  0.00  0.00    +0.000 NA
ATOM     14  O   UNL     1       2.961   4.564  17.449  0.00  0.00    +0.000 OA
ENDBRANCH   8  10
BRANCH   1  16
ATOM     15  N   UNL     1       5.814   4.012  16.310  0.00  0.00    +0.000 N 
ATOM     16  C   UNL     1       6.861   4.556  17.047  0.00  0.00    +0.000 C 
ATOM     17  O   UNL     1       8.035   4.433  16.703  0.00  0.00    +0.000 OA
ATOM     18  H   UNL     1       4.872   4.048  16.668  0.00  0.00    +0.000 HD
BRANCH  15  19
ATOM     19  C   UNL     1       6.036   3.330  15.046  0.00  0.00    +0.000 C 
BRANCH  19  20
ATOM     20  C   UNL     1       5.876   4.230  13.817  0.00  0.00    +0.000 C 
BRANCH  20  22
ATOM     21  C   UNL     1       5.046   2.986  11.773  0.00  0.00    +0.000 C 
ATOM     22  C   UNL     1       6.261   3.556  12.497  0.00  0.00    +0.000 C 
ENDBRANCH  20  22
ENDBRANCH  19  20
ENDBRANCH  15  19
ENDBRANCH   1  16
TORSDOF 5
ENDMDL
MODEL 6
REMARK VINA RESULT:      -6.4      3.296      5.973
REMARK  Name = 
REMARK  7 active torsions:
REMARK  status: ('A' for Active; 'I' for Inactive)
REMARK    1  A    between atoms: C_1  and  C_2
REMARK    2  A    between atoms: C_2  and  C_3
REMARK    3  A    between atoms: C_3  and  C_4
REMARK    4  A    between atoms: C_4  and  N_5
REMARK    5  A    between atoms: C_6  and  C_8
REMARK    6  A    between atoms: C_8  and  C_9
REMARK    7  A    between atoms: C_15  and  C_17
REMARK                            x       y       z     vdW  Elec       q    Type
REMARK                         _______ _______ _______ _____ _____    ______ ____
ROOT
ATOM      1  C   UNL     1       3.281   4.878  19.570  0.00  0.00    +0.000 C 
ATOM      2  C   UNL     1       4.764   5.307  19.521  0.00  0.00    +0.000 C 
ATOM      3  C   UNL     1       3.149   4.272  21.007  0.00  0.00    +0.000 C 
ATOM      4  C   UNL     1       1.828   3.598  21.364  0.00  0.00    +0.000 C 
ATOM      5  C   UNL     1       1.360   2.673  20.259  0.00  0.00    +0.000 C 
ATOM      6  C   UNL     1       1.382   3.389  18.922  0.00  0.00    +0.000 C 
ATOM      7  N   UNL     1       2.735   3.872  18.578  0.00  0.00    +0.000 N 
ATOM      8  C   UNL     1       2.992   3.849  17.189  0.00  0.00    +0.000 C 
ATOM      9  O   UNL     1       2.089   3.602  16.386  0.00  0.00    +0.000 OA
ENDROOT
BRANCH   8  10
ATOM     10  C   UNL     1       4.310   4.128  16.683  0.00  0.00    +0.000 A 
ATOM     11  C   UNL     1       5.426   3.325  16.602  0.00  0.00    +0.000 A 
ATOM     12  C   UNL     1       6.396   4.135  15.998  0.00  0.00    +0.000 A 
ATOM     13  N   UNL     1       5.949   5.375  15.790  0.00  0.00    +0.000 NA
ATOM     14  O   UNL     1       4.656   5.385  16.290  0.00  0.00    +0.000 OA
ENDBRANCH   8  10
BRANCH   1  16
ATOM     15  N   UNL     1       2.114   6.875  20.514  0.00  0.00    +0.000 N 
ATOM     16  C   UNL     1       2.447   6.189  19.351  0.00  0.00    +0.000 C 
ATOM     17  O   UNL     1       2.161   6.619  18.234  0.00  0.00    +0.000 OA
ATOM     18  H   UNL     1       2.276   6.452  21.414  0.00  0.00    +0.000 HD
BRANCH  15  19
ATOM     19  C   UNL     1       1.475   8.180  20.482  0.00  0.00    +0.000 C 
BRANCH  19  20
ATOM     20  C   UNL     1       1.135   8.741  21.865  0.00  0.00    +0.000 C 
BRANCH  20  22
ATOM     21  C   UNL     1      -0.611  10.034  23.168  0.00  0.00    +0.000 C 
ATOM     22  C   UNL     1      -0.360   8.988  22.087  0.00  0.00    +0.000 C 
ENDBRANCH  20  22
ENDBRANCH  19  20
ENDBRANCH  15  19
ENDBRANCH   1  16
TORSDOF 5
ENDMDL
MODEL 7
REMARK VINA RESULT:      -6.4      2.354      4.766
REMARK  Name = 
REMARK  7 active torsions:
REMARK  status: ('A' for Active; 'I' for Inactive)
REMARK    1  A    between atoms: C_1  and  C_2
REMARK    2  A    between atoms: C_2  and  C_3
REMARK    3  A    between atoms: C_3  and  C_4
REMARK    4  A    between atoms: C_4  and  N_5
REMARK    5  A    between atoms: C_6  and  C_8
REMARK    6  A    between atoms: C_8  and  C_9
REMARK    7  A    between atoms: C_15  and  C_17
REMARK                            x       y       z     vdW  Elec       q    Type
REMARK                         _______ _______ _______ _____ _____    ______ ____
ROOT
ATOM      1  C   UNL     1       5.227   4.666  18.116  0.00  0.00    +0.000 C 
ATOM      2  C   UNL     1       4.927   3.515  19.102  0.00  0.00    +0.000 C 
ATOM      3  C   UNL     1       6.741   4.958  18.383  0.00  0.00    +0.000 C 
ATOM      4  C   UNL     1       7.358   6.161  17.677  0.00  0.00    +0.000 C 
ATOM      5  C   UNL     1       6.466   7.381  17.779  0.00  0.00    +0.000 C 
ATOM      6  C   UNL     1       5.050   7.041  17.360  0.00  0.00    +0.000 C 
ATOM      7  N   UNL     1       4.468   5.974  18.201  0.00  0.00    +0.000 N 
ATOM      8  C   UNL     1       3.076   6.117  18.390  0.00  0.00    +0.000 C 
ATOM      9  O   UNL     1       2.439   6.966  17.760  0.00  0.00    +0.000 OA
ENDROOT
BRANCH   8  10
ATOM     10  C   UNL     1       2.370   5.266  19.312  0.00  0.00    +0.000 A 
ATOM     11  C   UNL     1       2.431   5.191  20.686  0.00  0.00    +0.000 A 
ATOM     12  C   UNL     1       1.501   4.199  21.022  0.00  0.00    +0.000 A 
ATOM     13  N   UNL     1       0.957   3.639  19.940  0.00  0.00    +0.000 NA
ATOM     14  O   UNL     1       1.563   4.267  18.861  0.00  0.00    +0.000 OA
ENDBRANCH   8  10
BRANCH   1  16
ATOM     15  N   UNL     1       5.978   4.211  15.777  0.00  0.00    +0.000 N 
ATOM     16  C   UNL     1       4.931   4.094  16.685  0.00  0.00    +0.000 C 
ATOM     17  O   UNL     1       3.879   3.525  16.398  0.00  0.00    +0.000 OA
ATOM     18  H   UNL     1       6.788   4.764  16.008  0.00  0.00    +0.000 HD
BRANCH  15  19
ATOM     19  C   UNL     1       5.925   3.601  14.458  0.00  0.00    +0.000 C 
BRANCH  19  20
ATOM     20  C   UNL     1       6.831   4.275  13.424  0.00  0.00    +0.000 C 
BRANCH  20  22
ATOM     21  C   UNL     1       5.382   2.950  11.823  0.00  0.00    +0.000 C 
ATOM     22  C   UNL     1       6.693   3.706  12.009  0.00  0.00    +0.000 C 
ENDBRANCH  20  22
ENDBRANCH  19  20
ENDBRANCH  15  19
ENDBRANCH   1  16
TORSDOF 5
ENDMDL
MODEL 8
REMARK VINA RESULT:      -6.3      2.538      5.346
REMARK  Name = 
REMARK  7 active torsions:
REMARK  status: ('A' for Active; 'I' for Inactive)
REMARK    1  A    between atoms: C_1  and  C_2
REMARK    2  A    between atoms: C_2  and  C_3
REMARK    3  A    between atoms: C_3  and  C_4
REMARK    4  A    between atoms: C_4  and  N_5
REMARK    5  A    between atoms: C_6  and  C_8
REMARK    6  A    between atoms: C_8  and  C_9
REMARK    7  A    between atoms: C_15  and  C_17
REMARK                            x       y       z     vdW  Elec       q    Type
REMARK                         _______ _______ _______ _____ _____    ______ ____
ROOT
ATOM      1  C   UNL     1       3.342   4.510  18.890  0.00  0.00    +0.000 C 
ATOM      2  C   UNL     1       4.202   5.198  19.974  0.00  0.00    +0.000 C 
ATOM      3  C   UNL     1       2.568   3.422  19.708  0.00  0.00    +0.000 C 
ATOM      4  C   UNL     1       1.715   2.431  18.924  0.00  0.00    +0.000 C 
ATOM      5  C   UNL     1       2.460   1.887  17.723  0.00  0.00    +0.000 C 
ATOM      6  C   UNL     1       3.052   3.018  16.906  0.00  0.00    +0.000 C 
ATOM      7  N   UNL     1       3.993   3.835  17.700  0.00  0.00    +0.000 N 
ATOM      8  C   UNL     1       5.059   4.353  16.931  0.00  0.00    +0.000 C 
ATOM      9  O   UNL     1       5.062   4.241  15.703  0.00  0.00    +0.000 OA
ENDROOT
BRANCH   8  10
ATOM     10  C   UNL     1       6.157   5.034  17.566  0.00  0.00    +0.000 A 
ATOM     11  C   UNL     1       6.596   6.334  17.439  0.00  0.00    +0.000 A 
ATOM     12  C   UNL     1       7.682   6.422  18.320  0.00  0.00    +0.000 A 
ATOM     13  N   UNL     1       7.953   5.248  18.895  0.00  0.00    +0.000 NA
ATOM     14  O   UNL     1       7.032   4.360  18.360  0.00  0.00    +0.000 OA
ENDBRANCH   8  10
BRANCH   1  16
ATOM     15  N   UNL     1       2.876   6.932  18.496  0.00  0.00    +0.000 N 
ATOM     16  C   UNL     1       2.423   5.633  18.293  0.00  0.00    +0.000 C 
ATOM     17  O   UNL     1       1.410   5.389  17.639  0.00  0.00    +0.000 OA
ATOM     18  H   UNL     1       3.652   7.106  19.115  0.00  0.00    +0.000 HD
BRANCH  15  19
ATOM     19  C   UNL     1       2.226   8.078  17.882  0.00  0.00    +0.000 C 
BRANCH  19  20
ATOM     20  C   UNL     1       1.488   8.981  18.876  0.00  0.00    +0.000 C 
BRANCH  20  22
ATOM     21  C   UNL     1      -0.593  10.346  18.407  0.00  0.00    +0.000 C 
ATOM     22  C   UNL     1       0.921  10.260  18.254  0.00  0.00    +0.000 C 
ENDBRANCH  20  22
ENDBRANCH  19  20
ENDBRANCH  15  19
ENDBRANCH   1  16
TORSDOF 5
ENDMDL
MODEL 9
REMARK VINA RESULT:      -6.3      1.897      4.449
REMARK  Name = 
REMARK  7 active torsions:
REMARK  status: ('A' for Active; 'I' for Inactive)
REMARK    1  A    between atoms: C_1  and  C_2
REMARK    2  A    between atoms: C_2  and  C_3
REMARK    3  A    between atoms: C_3  and  C_4
REMARK    4  A    between atoms: C_4  and  N_5
REMARK    5  A    between atoms: C_6  and  C_8
REMARK    6  A    between atoms: C_8  and  C_9
REMARK    7  A    between atoms: C_15  and  C_17
REMARK                            x       y       z     vdW  Elec       q    Type
REMARK                         _______ _______ _______ _____ _____    ______ ____
ROOT
ATOM      1  C   UNL     1       5.220   4.788  18.004  0.00  0.00    +0.000 C 
ATOM      2  C   UNL     1       5.820   3.490  17.420  0.00  0.00    +0.000 C 
ATOM      3  C   UNL     1       4.131   4.247  18.990  0.00  0.00    +0.000 C 
ATOM      4  C   UNL     1       3.215   5.271  19.652  0.00  0.00    +0.000 C 
ATOM      5  C   UNL     1       2.694   6.280  18.649  0.00  0.00    +0.000 C 
ATOM      6  C   UNL     1       3.835   6.861  17.837  0.00  0.00    +0.000 C 
ATOM      7  N   UNL     1       4.573   5.816  17.099  0.00  0.00    +0.000 N 
ATOM      8  C   UNL     1       5.079   6.268  15.859  0.00  0.00    +0.000 C 
ATOM      9  O   UNL     1       5.023   7.462  15.555  0.00  0.00    +0.000 OA
ENDROOT
BRANCH   8  10
ATOM     10  C   UNL     1       5.682   5.346  14.933  0.00  0.00    +0.000 A 
ATOM     11  C   UNL     1       5.133   4.294  14.234  0.00  0.00    +0.000 A 
ATOM     12  C   UNL     1       6.196   3.786  13.477  0.00  0.00    +0.000 A 
ATOM     13  N   UNL     1       7.342   4.418  13.741  0.00  0.00    +0.000 NA
ATOM     14  O   UNL     1       7.025   5.355  14.714  0.00  0.00    +0.000 OA
ENDBRANCH   8  10
BRANCH   1  16
ATOM     15  N   UNL     1       7.104   6.426  17.906  0.00  0.00    +0.000 N 
ATOM     16  C   UNL     1       6.409   5.530  18.711  0.00  0.00    +0.000 C 
ATOM     17  O   UNL     1       6.671   5.385  19.904  0.00  0.00    +0.000 OA
ATOM     18  H   UNL     1       6.931   6.454  16.913  0.00  0.00    +0.000 HD
BRANCH  15  19
ATOM     19  C   UNL     1       8.133   7.302  18.441  0.00  0.00    +0.000 C 
BRANCH  19  20
ATOM     20  C   UNL     1       8.074   8.734  17.900  0.00  0.00    +0.000 C 
BRANCH  20  22
ATOM     21  C   UNL     1       8.894  11.126  18.065  0.00  0.00    +0.000 C 
ATOM     22  C   UNL     1       8.934   9.732  18.682  0.00  0.00    +0.000 C 
ENDBRANCH  20  22
ENDBRANCH  19  20
ENDBRANCH  15  19
ENDBRANCH   1  16
TORSDOF 5
ENDMDL
