MODEL 1
REMARK VINA RESULT:      -7.7      0.000      0.000
REMARK  Name = 
REMARK  6 active torsions:
REMARK  status: ('A' for Active; 'I' for Inactive)
REMARK    1  A    between atoms: C_1  and  C_2
REMARK    2  A    between atoms: C_2  and  C_3
REMARK    3  A    between atoms: C_3  and  C_4
REMARK    4  A    between atoms: C_4  and  C_5
REMARK    5  A    between atoms: N_7  and  C_8
REMARK    6  A    between atoms: C_11  and  N_12
REMARK                            x       y       z     vdW  Elec       q    Type
REMARK                         _______ _______ _______ _____ _____    ______ ____
ROOT
ATOM      1  C   UNL     1       4.719   4.746  16.756  0.00  0.00    +0.000 A 
ATOM      2  C   UNL     1       5.190   5.878  17.409  0.00  0.00    +0.000 A 
ATOM      3  C   UNL     1       4.396   6.550  18.342  0.00  0.00    +0.000 A 
ATOM      4  C   UNL     1       3.091   6.145  18.634  0.00  0.00    +0.000 A 
ATOM      5  C   UNL     1       2.618   4.993  18.001  0.00  0.00    +0.000 A 
ATOM      6  C   UNL     1       3.420   4.311  17.054  0.00  0.00    +0.000 A 
ENDROOT
BRANCH   4   7
ATOM      7  N   UNL     1       2.254   6.883  19.530  0.00  0.00    +0.000 N 
ATOM      8  C   UNL     1       1.715   8.103  19.194  0.00  0.00    +0.000 C 
ATOM      9  O   UNL     1       1.832   8.611  18.074  0.00  0.00    +0.000 OA
ATOM     10  N   UNL     1       1.000   8.790  20.138  0.00  0.00    +0.000 N 
ATOM     11  C   UNL     1       0.495  10.086  19.706  0.00  0.00    +0.000 C 
ATOM     12  C   UNL     1      -0.268  10.596  20.869  0.00  0.00    +0.000 A 
ATOM     13  C   UNL     1      -1.011  11.765  20.934  0.00  0.00    +0.000 A 
ATOM     14  C   UNL     1      -1.593  12.101  22.151  0.00  0.00    +0.000 A 
ATOM     15  C   UNL     1      -1.416  11.276  23.270  0.00  0.00    +0.000 A 
ATOM     16  C   UNL     1      -0.682  10.076  23.179  0.00  0.00    +0.000 A 
ATOM     17  C   UNL     1      -0.121   9.736  21.963  0.00  0.00    +0.000 A 
ATOM     18  C   UNL     1       0.665   8.514  21.545  0.00  0.00    +0.000 C 
ATOM     19  H   UNL     1       1.826   6.383  20.292  0.00  0.00    +0.000 HD
ENDBRANCH   4   7
BRANCH   1  22
ATOM     20  C   UNL     1       5.986   4.573  14.612  0.00  0.00    +0.000 C 
ATOM     21  O   UNL     1       5.929   5.749  14.262  0.00  0.00    +0.000 OA
ATOM     22  N   UNL     1       5.495   4.045  15.800  0.00  0.00    +0.000 N 
ATOM     23  H   UNL     1       5.784   3.108  16.047  0.00  0.00    +0.000 HD
BRANCH  20  24
ATOM     24  C   UNL     1       6.685   3.565  13.719  0.00  0.00    +0.000 C 
BRANCH  24  25
ATOM     25  C   UNL     1       6.301   3.667  12.246  0.00  0.00    +0.000 C 
BRANCH  25  27
ATOM     26  C   UNL     1       4.059   3.143  11.228  0.00  0.00    +0.000 C 
ATOM     27  C   UNL     1       5.345   2.560  11.795  0.00  0.00    +0.000 C 
ENDBRANCH  25  27
ENDBRANCH  24  25
ENDBRANCH  20  24
ENDBRANCH   1  22
TORSDOF 5
ENDMDL
MODEL 2
REMARK VINA RESULT:      -7.6      1.237      1.454
REMARK  Name = 
REMARK  6 active torsions:
REMARK  status: ('A' for Active; 'I' for Inactive)
REMARK    1  A    between atoms: C_1  and  C_2
REMARK    2  A    between atoms: C_2  and  C_3
REMARK    3  A    between atoms: C_3  and  C_4
REMARK    4  A    between atoms: C_4  and  C_5
REMARK    5  A    between atoms: N_7  and  C_8
REMARK    6  A    between atoms: C_11  and  N_12
REMARK                            x       y       z     vdW  Elec       q    Type
REMARK                         _______ _______ _______ _____ _____    ______ ____
ROOT
ATOM      1  C   UNL     1       5.519   5.074  15.724  0.00  0.00    +0.000 A 
ATOM      2  C   UNL     1       5.662   6.401  16.106  0.00  0.00    +0.000 A 
ATOM      3  C   UNL     1       4.877   6.941  17.128  0.00  0.00    +0.000 A 
ATOM      4  C   UNL     1       3.895   6.193  17.783  0.00  0.00    +0.000 A 
ATOM      5  C   UNL     1       3.762   4.850  17.421  0.00  0.00    +0.000 A 
ATOM      6  C   UNL     1       4.555   4.301  16.385  0.00  0.00    +0.000 A 
ENDROOT
BRANCH   4   7
ATOM      7  N   UNL     1       3.039   6.772  18.772  0.00  0.00    +0.000 N 
ATOM      8  C   UNL     1       2.370   7.956  18.562  0.00  0.00    +0.000 C 
ATOM      9  O   UNL     1       2.381   8.559  17.485  0.00  0.00    +0.000 OA
ATOM     10  N   UNL     1       1.644   8.493  19.591  0.00  0.00    +0.000 N 
ATOM     11  C   UNL     1       0.996   9.763  19.290  0.00  0.00    +0.000 C 
ATOM     12  C   UNL     1       0.249  10.103  20.524  0.00  0.00    +0.000 A 
ATOM     13  C   UNL     1      -0.597  11.184  20.719  0.00  0.00    +0.000 A 
ATOM     14  C   UNL     1      -1.144  11.365  21.983  0.00  0.00    +0.000 A 
ATOM     15  C   UNL     1      -0.833  10.475  23.021  0.00  0.00    +0.000 A 
ATOM     16  C   UNL     1       0.006   9.365  22.799  0.00  0.00    +0.000 A 
ATOM     17  C   UNL     1       0.533   9.178  21.536  0.00  0.00    +0.000 A 
ATOM     18  C   UNL     1       1.409   8.076  20.983  0.00  0.00    +0.000 C 
ATOM     19  H   UNL     1       2.700   6.174  19.508  0.00  0.00    +0.000 HD
ENDBRANCH   4   7
BRANCH   1  22
ATOM     20  C   UNL     1       5.796   3.958  13.507  0.00  0.00    +0.000 C 
ATOM     21  O   UNL     1       4.630   4.005  13.124  0.00  0.00    +0.000 OA
ATOM     22  N   UNL     1       6.295   4.496  14.687  0.00  0.00    +0.000 N 
ATOM     23  H   UNL     1       7.300   4.560  14.781  0.00  0.00    +0.000 HD
BRANCH  20  24
ATOM     24  C   UNL     1       6.841   3.299  12.627  0.00  0.00    +0.000 C 
BRANCH  24  25
ATOM     25  C   UNL     1       6.265   2.570  11.416  0.00  0.00    +0.000 C 
BRANCH  25  27
ATOM     26  C   UNL     1       6.209   0.058  11.259  0.00  0.00    +0.000 C 
ATOM     27  C   UNL     1       7.048   1.309  11.044  0.00  0.00    +0.000 C 
ENDBRANCH  25  27
ENDBRANCH  24  25
ENDBRANCH  20  24
ENDBRANCH   1  22
TORSDOF 5
ENDMDL
MODEL 3
REMARK VINA RESULT:      -7.3      1.005      1.041
REMARK  Name = 
REMARK  6 active torsions:
REMARK  status: ('A' for Active; 'I' for Inactive)
REMARK    1  A    between atoms: C_1  and  C_2
REMARK    2  A    between atoms: C_2  and  C_3
REMARK    3  A    between atoms: C_3  and  C_4
REMARK    4  A    between atoms: C_4  and  C_5
REMARK    5  A    between atoms: N_7  and  C_8
REMARK    6  A    between atoms: C_11  and  N_12
REMARK                            x       y       z     vdW  Elec       q    Type
REMARK                         _______ _______ _______ _____ _____    ______ ____
ROOT
ATOM      1  C   UNL     1       4.811   5.462  15.899  0.00  0.00    +0.000 A 
ATOM      2  C   UNL     1       4.914   6.817  16.186  0.00  0.00    +0.000 A 
ATOM      3  C   UNL     1       4.185   7.385  17.233  0.00  0.00    +0.000 A 
ATOM      4  C   UNL     1       3.298   6.637  18.012  0.00  0.00    +0.000 A 
ATOM      5  C   UNL     1       3.208   5.268  17.747  0.00  0.00    +0.000 A 
ATOM      6  C   UNL     1       3.945   4.690  16.685  0.00  0.00    +0.000 A 
ENDROOT
BRANCH   4   7
ATOM      7  N   UNL     1       2.494   7.238  19.031  0.00  0.00    +0.000 N 
ATOM      8  C   UNL     1       1.755   8.376  18.806  0.00  0.00    +0.000 C 
ATOM      9  O   UNL     1       1.654   8.912  17.697  0.00  0.00    +0.000 OA
ATOM     10  N   UNL     1       1.085   8.944  19.856  0.00  0.00    +0.000 N 
ATOM     11  C   UNL     1       0.355  10.164  19.534  0.00  0.00    +0.000 C 
ATOM     12  C   UNL     1      -0.310  10.547  20.800  0.00  0.00    +0.000 A 
ATOM     13  C   UNL     1      -1.189  11.601  20.998  0.00  0.00    +0.000 A 
ATOM     14  C   UNL     1      -1.646  11.836  22.289  0.00  0.00    +0.000 A 
ATOM     15  C   UNL     1      -1.214  11.027  23.350  0.00  0.00    +0.000 A 
ATOM     16  C   UNL     1      -0.342   9.942  23.127  0.00  0.00    +0.000 A 
ATOM     17  C   UNL     1       0.095   9.701  21.839  0.00  0.00    +0.000 A 
ATOM     18  C   UNL     1       0.978   8.605  21.284  0.00  0.00    +0.000 C 
ATOM     19  H   UNL     1       2.242   6.673  19.825  0.00  0.00    +0.000 HD
ENDBRANCH   4   7
BRANCH   1  22
ATOM     20  C   UNL     1       6.914   4.727  14.772  0.00  0.00    +0.000 C 
ATOM     21  O   UNL     1       7.714   5.008  15.661  0.00  0.00    +0.000 OA
ATOM     22  N   UNL     1       5.532   4.855  14.840  0.00  0.00    +0.000 N 
ATOM     23  H   UNL     1       4.987   4.404  14.118  0.00  0.00    +0.000 HD
BRANCH  20  24
ATOM     24  C   UNL     1       7.426   4.142  13.469  0.00  0.00    +0.000 C 
BRANCH  24  25
ATOM     25  C   UNL     1       6.334   3.562  12.575  0.00  0.00    +0.000 C 
BRANCH  25  27
ATOM     26  C   UNL     1       5.901   1.431  11.307  0.00  0.00    +0.000 C 
ATOM     27  C   UNL     1       6.869   2.583  11.527  0.00  0.00    +0.000 C 
ENDBRANCH  25  27
ENDBRANCH  24  25
ENDBRANCH  20  24
ENDBRANCH   1  22
TORSDOF 5
ENDMDL
MODEL 4
REMARK VINA RESULT:      -7.3      1.087      1.442
REMARK  Name = 
REMARK  6 active torsions:
REMARK  status: ('A' for Active; 'I' for Inactive)
REMARK    1  A    between atoms: C_1  and  C_2
REMARK    2  A    between atoms: C_2  and  C_3
REMARK    3  A    between atoms: C_3  and  C_4
REMARK    4  A    between atoms: C_4  and  C_5
REMARK    5  A    between atoms: N_7  and  C_8
REMARK    6  A    between atoms: C_11  and  N_12
REMARK                            x       y       z     vdW  Elec       q    Type
REMARK                         _______ _______ _______ _____ _____    ______ ____
ROOT
ATOM      1  C   UNL     1       5.005   4.907  15.790  0.00  0.00    +0.000 A 
ATOM      2  C   UNL     1       4.133   4.162  16.572  0.00  0.00    +0.000 A 
ATOM      3  C   UNL     1       3.351   4.774  17.555  0.00  0.00    +0.000 A 
ATOM      4  C   UNL     1       3.433   6.143  17.823  0.00  0.00    +0.000 A 
ATOM      5  C   UNL     1       4.290   6.904  17.023  0.00  0.00    +0.000 A 
ATOM      6  C   UNL     1       5.084   6.287  16.028  0.00  0.00    +0.000 A 
ENDROOT
BRANCH   4   7
ATOM      7  N   UNL     1       2.691   6.751  18.884  0.00  0.00    +0.000 N 
ATOM      8  C   UNL     1       1.979   7.915  18.708  0.00  0.00    +0.000 C 
ATOM      9  O   UNL     1       1.849   8.472  17.613  0.00  0.00    +0.000 OA
ATOM     10  N   UNL     1       1.370   8.485  19.793  0.00  0.00    +0.000 N 
ATOM     11  C   UNL     1       0.666   9.732  19.521  0.00  0.00    +0.000 C 
ATOM     12  C   UNL     1       0.066  10.113  20.820  0.00  0.00    +0.000 A 
ATOM     13  C   UNL     1      -0.772  11.190  21.071  0.00  0.00    +0.000 A 
ATOM     14  C   UNL     1      -1.168  11.417  22.383  0.00  0.00    +0.000 A 
ATOM     15  C   UNL     1      -0.718  10.577  23.412  0.00  0.00    +0.000 A 
ATOM     16  C   UNL     1       0.110   9.470  23.136  0.00  0.00    +0.000 A 
ATOM     17  C   UNL     1       0.486   9.237  21.828  0.00  0.00    +0.000 A 
ATOM     18  C   UNL     1       1.311   8.125  21.219  0.00  0.00    +0.000 C 
ATOM     19  H   UNL     1       2.454   6.181  19.679  0.00  0.00    +0.000 HD
ENDBRANCH   4   7
BRANCH   1  22
ATOM     20  C   UNL     1       7.052   4.793  14.365  0.00  0.00    +0.000 C 
ATOM     21  O   UNL     1       7.685   5.718  14.867  0.00  0.00    +0.000 OA
ATOM     22  N   UNL     1       5.817   4.318  14.788  0.00  0.00    +0.000 N 
ATOM     23  H   UNL     1       5.506   3.432  14.413  0.00  0.00    +0.000 HD
BRANCH  20  24
ATOM     24  C   UNL     1       7.648   4.034  13.194  0.00  0.00    +0.000 C 
BRANCH  24  25
ATOM     25  C   UNL     1       6.616   3.518  12.196  0.00  0.00    +0.000 C 
BRANCH  25  27
ATOM     26  C   UNL     1       6.142   1.245  11.223  0.00  0.00    +0.000 C 
ATOM     27  C   UNL     1       7.145   2.385  11.313  0.00  0.00    +0.000 C 
ENDBRANCH  25  27
ENDBRANCH  24  25
ENDBRANCH  20  24
ENDBRANCH   1  22
TORSDOF 5
ENDMDL
MODEL 5
REMARK VINA RESULT:      -7.2      5.773      8.174
REMARK  Name = 
REMARK  6 active torsions:
REMARK  status: ('A' for Active; 'I' for Inactive)
REMARK    1  A    between atoms: C_1  and  C_2
REMARK    2  A    between atoms: C_2  and  C_3
REMARK    3  A    between atoms: C_3  and  C_4
REMARK    4  A    between atoms: C_4  and  C_5
REMARK    5  A    between atoms: N_7  and  C_8
REMARK    6  A    between atoms: C_11  and  N_12
REMARK                            x       y       z     vdW  Elec       q    Type
REMARK                         _______ _______ _______ _____ _____    ______ ____
ROOT
ATOM      1  C   UNL     1       5.094   5.058  17.382  0.00  0.00    +0.000 A 
ATOM      2  C   UNL     1       4.475   6.291  17.537  0.00  0.00    +0.000 A 
ATOM      3  C   UNL     1       5.213   7.476  17.489  0.00  0.00    +0.000 A 
ATOM      4  C   UNL     1       6.601   7.479  17.323  0.00  0.00    +0.000 A 
ATOM      5  C   UNL     1       7.229   6.244  17.140  0.00  0.00    +0.000 A 
ATOM      6  C   UNL     1       6.483   5.042  17.190  0.00  0.00    +0.000 A 
ENDROOT
BRANCH   4   7
ATOM      7  N   UNL     1       7.363   8.689  17.355  0.00  0.00    +0.000 N 
ATOM      8  C   UNL     1       8.333   8.920  18.302  0.00  0.00    +0.000 C 
ATOM      9  O   UNL     1       8.685   8.077  19.133  0.00  0.00    +0.000 OA
ATOM     10  N   UNL     1       8.955  10.140  18.323  0.00  0.00    +0.000 N 
ATOM     11  C   UNL     1       9.945  10.309  19.379  0.00  0.00    +0.000 C 
ATOM     12  C   UNL     1      10.496  11.666  19.161  0.00  0.00    +0.000 A 
ATOM     13  C   UNL     1      11.530  12.272  19.860  0.00  0.00    +0.000 A 
ATOM     14  C   UNL     1      11.846  13.588  19.547  0.00  0.00    +0.000 A 
ATOM     15  C   UNL     1      11.126  14.271  18.556  0.00  0.00    +0.000 A 
ATOM     16  C   UNL     1      10.096  13.631  17.836  0.00  0.00    +0.000 A 
ATOM     17  C   UNL     1       9.798  12.317  18.138  0.00  0.00    +0.000 A 
ATOM     18  C   UNL     1       8.800  11.363  17.519  0.00  0.00    +0.000 C 
ATOM     19  H   UNL     1       7.391   9.249  16.518  0.00  0.00    +0.000 HD
ENDBRANCH   4   7
BRANCH   1  22
ATOM     20  C   UNL     1       4.374   2.942  18.494  0.00  0.00    +0.000 C 
ATOM     21  O   UNL     1       4.891   3.120  19.594  0.00  0.00    +0.000 OA
ATOM     22  N   UNL     1       4.376   3.837  17.431  0.00  0.00    +0.000 N 
ATOM     23  H   UNL     1       3.748   3.647  16.662  0.00  0.00    +0.000 HD
BRANCH  20  24
ATOM     24  C   UNL     1       3.611   1.657  18.231  0.00  0.00    +0.000 C 
BRANCH  24  25
ATOM     25  C   UNL     1       2.095   1.827  18.208  0.00  0.00    +0.000 C 
BRANCH  25  27
ATOM     26  C   UNL     1       0.987   3.547  19.674  0.00  0.00    +0.000 C 
ATOM     27  C   UNL     1       1.500   2.118  19.588  0.00  0.00    +0.000 C 
ENDBRANCH  25  27
ENDBRANCH  24  25
ENDBRANCH  20  24
ENDBRANCH   1  22
TORSDOF 5
ENDMDL
MODEL 6
REMARK VINA RESULT:      -7.2      0.665      1.231
REMARK  Name = 
REMARK  6 active torsions:
REMARK  status: ('A' for Active; 'I' for Inactive)
REMARK    1  A    between atoms: C_1  and  C_2
REMARK    2  A    between atoms: C_2  and  C_3
REMARK    3  A    between atoms: C_3  and  C_4
REMARK    4  A    between atoms: C_4  and  C_5
REMARK    5  A    between atoms: N_7  and  C_8
REMARK    6  A    between atoms: C_11  and  N_12
REMARK                            x       y       z     vdW  Elec       q    Type
REMARK                         _______ _______ _______ _____ _____    ______ ____
ROOT
ATOM      1  C   UNL     1       4.426   5.112  16.840  0.00  0.00    +0.000 A 
ATOM      2  C   UNL     1       3.214   4.625  17.309  0.00  0.00    +0.000 A 
ATOM      3  C   UNL     1       2.397   5.405  18.132  0.00  0.00    +0.000 A 
ATOM      4  C   UNL     1       2.772   6.685  18.550  0.00  0.00    +0.000 A 
ATOM      5  C   UNL     1       3.978   7.193  18.061  0.00  0.00    +0.000 A 
ATOM      6  C   UNL     1       4.808   6.404  17.229  0.00  0.00    +0.000 A 
ENDROOT
BRANCH   4   7
ATOM      7  N   UNL     1       1.971   7.448  19.457  0.00  0.00    +0.000 N 
ATOM      8  C   UNL     1       1.382   8.637  19.093  0.00  0.00    +0.000 C 
ATOM      9  O   UNL     1       1.420   9.090  17.945  0.00  0.00    +0.000 OA
ATOM     10  N   UNL     1       0.708   9.355  20.044  0.00  0.00    +0.000 N 
ATOM     11  C   UNL     1       0.145  10.616  19.579  0.00  0.00    +0.000 C 
ATOM     12  C   UNL     1      -0.560  11.168  20.759  0.00  0.00    +0.000 A 
ATOM     13  C   UNL     1      -1.328  12.322  20.812  0.00  0.00    +0.000 A 
ATOM     14  C   UNL     1      -1.844  12.707  22.043  0.00  0.00    +0.000 A 
ATOM     15  C   UNL     1      -1.581  11.944  23.189  0.00  0.00    +0.000 A 
ATOM     16  C   UNL     1      -0.823  10.758  23.114  0.00  0.00    +0.000 A 
ATOM     17  C   UNL     1      -0.327  10.369  21.884  0.00  0.00    +0.000 A 
ATOM     18  C   UNL     1       0.464   9.144  21.481  0.00  0.00    +0.000 C 
ATOM     19  H   UNL     1       1.602   6.978  20.267  0.00  0.00    +0.000 HD
ENDBRANCH   4   7
BRANCH   1  22
ATOM     20  C   UNL     1       5.826   4.766  14.802  0.00  0.00    +0.000 C 
ATOM     21  O   UNL     1       5.755   5.897  14.328  0.00  0.00    +0.000 OA
ATOM     22  N   UNL     1       5.280   4.345  16.008  0.00  0.00    +0.000 N 
ATOM     23  H   UNL     1       5.582   3.450  16.368  0.00  0.00    +0.000 HD
BRANCH  20  24
ATOM     24  C   UNL     1       6.610   3.699  14.061  0.00  0.00    +0.000 C 
BRANCH  24  25
ATOM     25  C   UNL     1       6.495   3.785  12.542  0.00  0.00    +0.000 C 
BRANCH  25  27
ATOM     26  C   UNL     1       6.342   1.642  11.229  0.00  0.00    +0.000 C 
ATOM     27  C   UNL     1       5.558   2.730  11.948  0.00  0.00    +0.000 C 
ENDBRANCH  25  27
ENDBRANCH  24  25
ENDBRANCH  20  24
ENDBRANCH   1  22
TORSDOF 5
ENDMDL
MODEL 7
REMARK VINA RESULT:      -7.2      1.316      1.944
REMARK  Name = 
REMARK  6 active torsions:
REMARK  status: ('A' for Active; 'I' for Inactive)
REMARK    1  A    between atoms: C_1  and  C_2
REMARK    2  A    between atoms: C_2  and  C_3
REMARK    3  A    between atoms: C_3  and  C_4
REMARK    4  A    between atoms: C_4  and  C_5
REMARK    5  A    between atoms: N_7  and  C_8
REMARK    6  A    between atoms: C_11  and  N_12
REMARK                            x       y       z     vdW  Elec       q    Type
REMARK                         _______ _______ _______ _____ _____    ______ ____
ROOT
ATOM      1  C   UNL     1       3.947   6.044  17.499  0.00  0.00    +0.000 A 
ATOM      2  C   UNL     1       3.640   7.348  17.133  0.00  0.00    +0.000 A 
ATOM      3  C   UNL     1       2.860   8.160  17.961  0.00  0.00    +0.000 A 
ATOM      4  C   UNL     1       2.324   7.694  19.164  0.00  0.00    +0.000 A 
ATOM      5  C   UNL     1       2.649   6.392  19.552  0.00  0.00    +0.000 A 
ATOM      6  C   UNL     1       3.438   5.567  18.715  0.00  0.00    +0.000 A 
ENDROOT
BRANCH   4   7
ATOM      7  N   UNL     1       1.459   8.502  19.969  0.00  0.00    +0.000 N 
ATOM      8  C   UNL     1       0.665   9.487  19.431  0.00  0.00    +0.000 C 
ATOM      9  O   UNL     1       0.564   9.691  18.217  0.00  0.00    +0.000 OA
ATOM     10  N   UNL     1      -0.065  10.280  20.276  0.00  0.00    +0.000 N 
ATOM     11  C   UNL     1      -0.852  11.317  19.622  0.00  0.00    +0.000 C 
ATOM     12  C   UNL     1      -1.572  11.992  20.727  0.00  0.00    +0.000 A 
ATOM     13  C   UNL     1      -2.514  13.004  20.617  0.00  0.00    +0.000 A 
ATOM     14  C   UNL     1      -3.019  13.556  21.787  0.00  0.00    +0.000 A 
ATOM     15  C   UNL     1      -2.572  13.097  23.035  0.00  0.00    +0.000 A 
ATOM     16  C   UNL     1      -1.634  12.048  23.129  0.00  0.00    +0.000 A 
ATOM     17  C   UNL     1      -1.150  11.489  21.963  0.00  0.00    +0.000 A 
ATOM     18  C   UNL     1      -0.192  10.340  21.741  0.00  0.00    +0.000 C 
ATOM     19  H   UNL     1       1.217   8.163  20.885  0.00  0.00    +0.000 HD
ENDBRANCH   4   7
BRANCH   1  22
ATOM     20  C   UNL     1       5.985   5.496  16.165  0.00  0.00    +0.000 C 
ATOM     21  O   UNL     1       6.659   6.488  16.431  0.00  0.00    +0.000 OA
ATOM     22  N   UNL     1       4.731   5.192  16.681  0.00  0.00    +0.000 N 
ATOM     23  H   UNL     1       4.381   4.255  16.532  0.00  0.00    +0.000 HD
BRANCH  20  24
ATOM     24  C   UNL     1       6.546   4.448  15.222  0.00  0.00    +0.000 C 
BRANCH  24  25
ATOM     25  C   UNL     1       5.609   4.077  14.076  0.00  0.00    +0.000 C 
BRANCH  25  27
ATOM     26  C   UNL     1       5.435   2.952  11.831  0.00  0.00    +0.000 C 
ATOM     27  C   UNL     1       6.350   3.695  12.792  0.00  0.00    +0.000 C 
ENDBRANCH  25  27
ENDBRANCH  24  25
ENDBRANCH  20  24
ENDBRANCH   1  22
TORSDOF 5
ENDMDL
MODEL 8
REMARK VINA RESULT:      -6.9      1.224      1.861
REMARK  Name = 
REMARK  6 active torsions:
REMARK  status: ('A' for Active; 'I' for Inactive)
REMARK    1  A    between atoms: C_1  and  C_2
REMARK    2  A    between atoms: C_2  and  C_3
REMARK    3  A    between atoms: C_3  and  C_4
REMARK    4  A    between atoms: C_4  and  C_5
REMARK    5  A    between atoms: N_7  and  C_8
REMARK    6  A    between atoms: C_11  and  N_12
REMARK                            x       y       z     vdW  Elec       q    Type
REMARK                         _______ _______ _______ _____ _____    ______ ____
ROOT
ATOM      1  C   UNL     1       3.999   5.787  17.555  0.00  0.00    +0.000 A 
ATOM      2  C   UNL     1       3.232   5.295  18.603  0.00  0.00    +0.000 A 
ATOM      3  C   UNL     1       2.392   6.139  19.334  0.00  0.00    +0.000 A 
ATOM      4  C   UNL     1       2.311   7.510  19.076  0.00  0.00    +0.000 A 
ATOM      5  C   UNL     1       3.061   8.009  18.007  0.00  0.00    +0.000 A 
ATOM      6  C   UNL     1       3.914   7.156  17.266  0.00  0.00    +0.000 A 
ENDROOT
BRANCH   4   7
ATOM      7  N   UNL     1       1.511   8.384  19.879  0.00  0.00    +0.000 N 
ATOM      8  C   UNL     1       0.762   9.400  19.333  0.00  0.00    +0.000 C 
ATOM      9  O   UNL     1       0.647   9.581  18.117  0.00  0.00    +0.000 OA
ATOM     10  N   UNL     1       0.097  10.252  20.173  0.00  0.00    +0.000 N 
ATOM     11  C   UNL     1      -0.644  11.317  19.511  0.00  0.00    +0.000 C 
ATOM     12  C   UNL     1      -1.301  12.057  20.614  0.00  0.00    +0.000 A 
ATOM     13  C   UNL     1      -2.187  13.118  20.498  0.00  0.00    +0.000 A 
ATOM     14  C   UNL     1      -2.634  13.724  21.666  0.00  0.00    +0.000 A 
ATOM     15  C   UNL     1      -2.186  13.270  22.914  0.00  0.00    +0.000 A 
ATOM     16  C   UNL     1      -1.308  12.171  23.015  0.00  0.00    +0.000 A 
ATOM     17  C   UNL     1      -0.881  11.560  21.853  0.00  0.00    +0.000 A 
ATOM     18  C   UNL     1       0.005  10.352  21.639  0.00  0.00    +0.000 C 
ATOM     19  H   UNL     1       1.270   8.080  20.807  0.00  0.00    +0.000 HD
ENDBRANCH   4   7
BRANCH   1  22
ATOM     20  C   UNL     1       5.423   5.285  15.567  0.00  0.00    +0.000 C 
ATOM     21  O   UNL     1       5.352   6.374  15.003  0.00  0.00    +0.000 OA
ATOM     22  N   UNL     1       4.866   4.959  16.797  0.00  0.00    +0.000 N 
ATOM     23  H   UNL     1       5.167   4.097  17.231  0.00  0.00    +0.000 HD
BRANCH  20  24
ATOM     24  C   UNL     1       6.218   4.165  14.922  0.00  0.00    +0.000 C 
BRANCH  24  25
ATOM     25  C   UNL     1       6.489   4.370  13.435  0.00  0.00    +0.000 C 
BRANCH  25  27
ATOM     26  C   UNL     1       4.781   3.459  11.824  0.00  0.00    +0.000 C 
ATOM     27  C   UNL     1       6.072   3.173  12.576  0.00  0.00    +0.000 C 
ENDBRANCH  25  27
ENDBRANCH  24  25
ENDBRANCH  20  24
ENDBRANCH   1  22
TORSDOF 5
ENDMDL
MODEL 9
REMARK VINA RESULT:      -6.9      1.628      2.581
REMARK  Name = 
REMARK  6 active torsions:
REMARK  status: ('A' for Active; 'I' for Inactive)
REMARK    1  A    between atoms: C_1  and  C_2
REMARK    2  A    between atoms: C_2  and  C_3
REMARK    3  A    between atoms: C_3  and  C_4
REMARK    4  A    between atoms: C_4  and  C_5
REMARK    5  A    between atoms: N_7  and  C_8
REMARK    6  A    between atoms: C_11  and  N_12
REMARK                            x       y       z     vdW  Elec       q    Type
REMARK                         _______ _______ _______ _____ _____    ______ ____
ROOT
ATOM      1  C   UNL     1       3.958   6.348  17.721  0.00  0.00    +0.000 A 
ATOM      2  C   UNL     1       3.398   5.869  18.898  0.00  0.00    +0.000 A 
ATOM      3  C   UNL     1       2.500   6.647  19.634  0.00  0.00    +0.000 A 
ATOM      4  C   UNL     1       2.153   7.944  19.247  0.00  0.00    +0.000 A 
ATOM      5  C   UNL     1       2.691   8.424  18.050  0.00  0.00    +0.000 A 
ATOM      6  C   UNL     1       3.603   7.638  17.304  0.00  0.00    +0.000 A 
ENDROOT
BRANCH   4   7
ATOM      7  N   UNL     1       1.295   8.766  20.044  0.00  0.00    +0.000 N 
ATOM      8  C   UNL     1       0.426   9.676  19.488  0.00  0.00    +0.000 C 
ATOM      9  O   UNL     1       0.250   9.790  18.271  0.00  0.00    +0.000 OA
ATOM     10  N   UNL     1      -0.294  10.491  20.320  0.00  0.00    +0.000 N 
ATOM     11  C   UNL     1      -1.164  11.446  19.644  0.00  0.00    +0.000 C 
ATOM     12  C   UNL     1      -1.854  12.162  20.741  0.00  0.00    +0.000 A 
ATOM     13  C   UNL     1      -2.849  13.121  20.619  0.00  0.00    +0.000 A 
ATOM     14  C   UNL     1      -3.314  13.730  21.778  0.00  0.00    +0.000 A 
ATOM     15  C   UNL     1      -2.779  13.379  23.025  0.00  0.00    +0.000 A 
ATOM     16  C   UNL     1      -1.789  12.381  23.135  0.00  0.00    +0.000 A 
ATOM     17  C   UNL     1      -1.342  11.765  21.982  0.00  0.00    +0.000 A 
ATOM     18  C   UNL     1      -0.343  10.647  21.782  0.00  0.00    +0.000 C 
ATOM     19  H   UNL     1       1.120   8.480  20.993  0.00  0.00    +0.000 HD
ENDBRANCH   4   7
BRANCH   1  22
ATOM     20  C   UNL     1       6.117   5.139  17.391  0.00  0.00    +0.000 C 
ATOM     21  O   UNL     1       6.560   5.225  18.534  0.00  0.00    +0.000 OA
ATOM     22  N   UNL     1       4.877   5.587  16.955  0.00  0.00    +0.000 N 
ATOM     23  H   UNL     1       4.563   5.276  16.045  0.00  0.00    +0.000 HD
BRANCH  20  24
ATOM     24  C   UNL     1       6.946   4.449  16.324  0.00  0.00    +0.000 C 
BRANCH  24  25
ATOM     25  C   UNL     1       6.123   3.861  15.181  0.00  0.00    +0.000 C 
BRANCH  25  27
ATOM     26  C   UNL     1       5.993   3.476  12.696  0.00  0.00    +0.000 C 
ATOM     27  C   UNL     1       6.581   4.341  13.801  0.00  0.00    +0.000 C 
ENDBRANCH  25  27
ENDBRANCH  24  25
ENDBRANCH  20  24
ENDBRANCH   1  22
TORSDOF 5
ENDMDL
