MODEL 1
REMARK VINA RESULT:      -8.3      0.000      0.000
REMARK  Name = 
REMARK  7 active torsions:
REMARK  status: ('A' for Active; 'I' for Inactive)
REMARK    1  A    between atoms: C_1  and  O_2
REMARK    2  A    between atoms: O_2  and  C_3
REMARK    3  A    between atoms: C_9  and  C_10
REMARK    4  A    between atoms: C_10  and  C_11
REMARK    5  A    between atoms: C_19  and  C_20
REMARK    6  A    between atoms: C_20  and  O_22
REMARK    7  A    between atoms: C_23  and  O_24
REMARK                            x       y       z     vdW  Elec       q    Type
REMARK                         _______ _______ _______ _____ _____    ______ ____
ROOT
ATOM      1  C   UNL     1       3.458   3.705  17.849  0.00  0.00    +0.000 A 
ATOM      2  N   UNL     1       3.184   5.071  17.740  0.00  0.00    +0.000 NA
ATOM      3  C   UNL     1       2.498   5.757  18.734  0.00  0.00    +0.000 A 
ATOM      4  C   UNL     1       2.207   7.193  18.790  0.00  0.00    +0.000 A 
ATOM      5  C   UNL     1       1.628   7.774  19.940  0.00  0.00    +0.000 A 
ATOM      6  C   UNL     1       1.119   6.960  20.942  0.00  0.00    +0.000 A 
ATOM      7  C   UNL     1       1.272   5.597  20.846  0.00  0.00    +0.000 A 
ATOM      8  C   UNL     1       2.058   4.998  19.855  0.00  0.00    +0.000 A 
ATOM      9  C   UNL     1       2.406   3.629  19.990  0.00  0.00    +0.000 A 
ATOM     10  C   UNL     1       3.073   2.969  18.964  0.00  0.00    +0.000 A 
ATOM     11  C   UNL     1       1.670   9.236  20.262  0.00  0.00    +0.000 C 
ATOM     12  C   UNL     1       1.505  10.157  19.088  0.00  0.00    +0.000 C 
ATOM     13  C   UNL     1       2.063   9.639  17.769  0.00  0.00    +0.000 C 
ATOM     14  C   UNL     1       2.512   8.150  17.646  0.00  0.00    +0.000 C 
ENDROOT
BRANCH   9  15
ATOM     15  C   UNL     1       2.174   2.903  21.292  0.00  0.00    +0.000 C 
ATOM     16  O   UNL     1       3.067   2.548  22.042  0.00  0.00    +0.000 OA
BRANCH  15  17
ATOM     17  O   UNL     1       0.876   2.701  21.604  0.00  0.00    +0.000 OA
ATOM     18  H   UNL     1       0.377   3.545  21.605  0.00  0.00    +0.000 HD
ENDBRANCH  15  17
ENDBRANCH   9  15
BRANCH  10  19
ATOM     19  O   UNL     1       3.328   1.627  19.113  0.00  0.00    +0.000 OA
ATOM     20  H   UNL     1       3.438   1.200  18.243  0.00  0.00    +0.000 HD
ENDBRANCH  10  19
BRANCH   1  21
ATOM     21  C   UNL     1       4.297   2.996  16.774  0.00  0.00    +0.000 C 
BRANCH  21  28
ATOM     22  C   UNL     1       6.614   3.984  12.624  0.00  0.00    +0.000 A 
ATOM     23  C   UNL     1       7.630   4.919  12.825  0.00  0.00    +0.000 A 
ATOM     24  C   UNL     1       7.832   5.478  14.086  0.00  0.00    +0.000 A 
ATOM     25  C   UNL     1       6.998   5.068  15.133  0.00  0.00    +0.000 A 
ATOM     26  N   UNL     1       7.024   5.458  16.453  0.00  0.00    +0.000 N 
ATOM     27  C   UNL     1       6.073   4.788  17.159  0.00  0.00    +0.000 A 
ATOM     28  C   UNL     1       5.370   3.952  16.307  0.00  0.00    +0.000 A 
ATOM     29  C   UNL     1       5.960   4.140  14.988  0.00  0.00    +0.000 A 
ATOM     30  C   UNL     1       5.760   3.611  13.685  0.00  0.00    +0.000 A 
ATOM     31  H   UNL     1       7.687   6.112  16.845  0.00  0.00    +0.000 HD
BRANCH  22  33
ATOM     32  C   UNL     1       5.562   2.206  11.457  0.00  0.00    +0.000 C 
ATOM     33  O   UNL     1       6.356   3.393  11.406  0.00  0.00    +0.000 OA
ENDBRANCH  22  33
ENDBRANCH  21  28
ENDBRANCH   1  21
TORSDOF 6
ENDMDL
MODEL 2
REMARK VINA RESULT:      -8.1      2.627      7.932
REMARK  Name = 
REMARK  7 active torsions:
REMARK  status: ('A' for Active; 'I' for Inactive)
REMARK    1  A    between atoms: C_1  and  O_2
REMARK    2  A    between atoms: O_2  and  C_3
REMARK    3  A    between atoms: C_9  and  C_10
REMARK    4  A    between atoms: C_10  and  C_11
REMARK    5  A    between atoms: C_19  and  C_20
REMARK    6  A    between atoms: C_20  and  O_22
REMARK    7  A    between atoms: C_23  and  O_24
REMARK                            x       y       z     vdW  Elec       q    Type
REMARK                         _______ _______ _______ _____ _____    ______ ____
ROOT
ATOM      1  C   UNL     1       2.276   5.715  20.135  0.00  0.00    +0.000 A 
ATOM      2  N   UNL     1       3.417   6.008  19.384  0.00  0.00    +0.000 NA
ATOM      3  C   UNL     1       3.934   5.106  18.463  0.00  0.00    +0.000 A 
ATOM      4  C   UNL     1       5.071   5.306  17.559  0.00  0.00    +0.000 A 
ATOM      5  C   UNL     1       5.390   4.350  16.568  0.00  0.00    +0.000 A 
ATOM      6  C   UNL     1       4.773   3.107  16.585  0.00  0.00    +0.000 A 
ATOM      7  C   UNL     1       3.788   2.856  17.511  0.00  0.00    +0.000 A 
ATOM      8  C   UNL     1       3.266   3.856  18.342  0.00  0.00    +0.000 A 
ATOM      9  C   UNL     1       2.067   3.597  19.053  0.00  0.00    +0.000 A 
ATOM     10  C   UNL     1       1.592   4.514  19.985  0.00  0.00    +0.000 A 
ATOM     11  C   UNL     1       6.234   4.630  15.363  0.00  0.00    +0.000 C 
ATOM     12  C   UNL     1       7.412   5.531  15.599  0.00  0.00    +0.000 C 
ATOM     13  C   UNL     1       7.213   6.597  16.669  0.00  0.00    +0.000 C 
ATOM     14  C   UNL     1       5.967   6.536  17.606  0.00  0.00    +0.000 C 
ENDROOT
BRANCH   9  15
ATOM     15  C   UNL     1       1.222   2.392  18.723  0.00  0.00    +0.000 C 
ATOM     16  O   UNL     1       0.105   2.455  18.238  0.00  0.00    +0.000 OA
BRANCH  15  17
ATOM     17  O   UNL     1       1.813   1.202  18.967  0.00  0.00    +0.000 OA
ATOM     18  H   UNL     1       2.050   1.114  19.915  0.00  0.00    +0.000 HD
ENDBRANCH  15  17
ENDBRANCH   9  15
BRANCH  10  19
ATOM     19  O   UNL     1       0.463   4.190  20.699  0.00  0.00    +0.000 OA
ATOM     20  H   UNL     1      -0.166   3.698  20.140  0.00  0.00    +0.000 HD
ENDBRANCH  10  19
BRANCH   1  21
ATOM     21  C   UNL     1       1.679   6.770  21.078  0.00  0.00    +0.000 C 
BRANCH  21  28
ATOM     22  C   UNL     1      -0.159  11.191  21.884  0.00  0.00    +0.000 A 
ATOM     23  C   UNL     1      -0.154  11.958  20.719  0.00  0.00    +0.000 A 
ATOM     24  C   UNL     1       0.385  11.444  19.541  0.00  0.00    +0.000 A 
ATOM     25  C   UNL     1       0.907  10.145  19.563  0.00  0.00    +0.000 A 
ATOM     26  N   UNL     1       1.462   9.426  18.529  0.00  0.00    +0.000 N 
ATOM     27  C   UNL     1       1.805   8.180  18.955  0.00  0.00    +0.000 A 
ATOM     28  C   UNL     1       1.507   8.055  20.302  0.00  0.00    +0.000 A 
ATOM     29  C   UNL     1       0.935   9.333  20.704  0.00  0.00    +0.000 A 
ATOM     30  C   UNL     1       0.406   9.897  21.896  0.00  0.00    +0.000 A 
ATOM     31  H   UNL     1       1.556   9.763  17.581  0.00  0.00    +0.000 HD
BRANCH  22  33
ATOM     32  C   UNL     1      -2.089  11.825  23.112  0.00  0.00    +0.000 C 
ATOM     33  O   UNL     1      -0.673  11.635  23.083  0.00  0.00    +0.000 OA
ENDBRANCH  22  33
ENDBRANCH  21  28
ENDBRANCH   1  21
TORSDOF 6
ENDMDL
MODEL 3
REMARK VINA RESULT:      -8.0      6.522      9.738
REMARK  Name = 
REMARK  7 active torsions:
REMARK  status: ('A' for Active; 'I' for Inactive)
REMARK    1  A    between atoms: C_1  and  O_2
REMARK    2  A    between atoms: O_2  and  C_3
REMARK    3  A    between atoms: C_9  and  C_10
REMARK    4  A    between atoms: C_10  and  C_11
REMARK    5  A    between atoms: C_19  and  C_20
REMARK    6  A    between atoms: C_20  and  O_22
REMARK    7  A    between atoms: C_23  and  O_24
REMARK                            x       y       z     vdW  Elec       q    Type
REMARK                         _______ _______ _______ _____ _____    ______ ____
ROOT
ATOM      1  C   UNL     1      -1.592  12.100  19.581  0.00  0.00    +0.000 A 
ATOM      2  N   UNL     1      -2.687  12.404  20.394  0.00  0.00    +0.000 NA
ATOM      3  C   UNL     1      -3.992  12.260  19.941  0.00  0.00    +0.000 A 
ATOM      4  C   UNL     1      -5.229  12.469  20.700  0.00  0.00    +0.000 A 
ATOM      5  C   UNL     1      -6.487  12.138  20.148  0.00  0.00    +0.000 A 
ATOM      6  C   UNL     1      -6.587  11.827  18.799  0.00  0.00    +0.000 A 
ATOM      7  C   UNL     1      -5.445  11.751  18.038  0.00  0.00    +0.000 A 
ATOM      8  C   UNL     1      -4.163  11.820  18.599  0.00  0.00    +0.000 A 
ATOM      9  C   UNL     1      -3.048  11.443  17.807  0.00  0.00    +0.000 A 
ATOM     10  C   UNL     1      -1.755  11.623  18.285  0.00  0.00    +0.000 A 
ATOM     11  C   UNL     1      -7.733  11.921  20.949  0.00  0.00    +0.000 C 
ATOM     12  C   UNL     1      -7.917  12.849  22.115  0.00  0.00    +0.000 C 
ATOM     13  C   UNL     1      -6.632  13.309  22.791  0.00  0.00    +0.000 C 
ATOM     14  C   UNL     1      -5.254  13.029  22.116  0.00  0.00    +0.000 C 
ENDROOT
BRANCH   9  15
ATOM     15  C   UNL     1      -3.245  10.727  16.494  0.00  0.00    +0.000 C 
ATOM     16  O   UNL     1      -3.530   9.546  16.398  0.00  0.00    +0.000 OA
BRANCH  15  17
ATOM     17  O   UNL     1      -3.122  11.509  15.399  0.00  0.00    +0.000 OA
ATOM     18  H   UNL     1      -3.242  10.987  14.577  0.00  0.00    +0.000 HD
ENDBRANCH  15  17
ENDBRANCH   9  15
BRANCH  10  19
ATOM     19  O   UNL     1      -0.706  11.307  17.456  0.00  0.00    +0.000 OA
ATOM     20  H   UNL     1       0.127  11.256  17.960  0.00  0.00    +0.000 HD
ENDBRANCH  10  19
BRANCH   1  21
ATOM     21  C   UNL     1      -0.165  12.184  20.143  0.00  0.00    +0.000 C 
BRANCH  21  28
ATOM     22  C   UNL     1       2.155   8.162  18.724  0.00  0.00    +0.000 A 
ATOM     23  C   UNL     1       2.062   7.160  19.690  0.00  0.00    +0.000 A 
ATOM     24  C   UNL     1       1.412   7.407  20.899  0.00  0.00    +0.000 A 
ATOM     25  C   UNL     1       0.854   8.674  21.104  0.00  0.00    +0.000 A 
ATOM     26  N   UNL     1       0.152   9.136  22.194  0.00  0.00    +0.000 N 
ATOM     27  C   UNL     1      -0.261  10.414  21.979  0.00  0.00    +0.000 A 
ATOM     28  C   UNL     1       0.187  10.842  20.740  0.00  0.00    +0.000 A 
ATOM     29  C   UNL     1       0.923   9.718  20.174  0.00  0.00    +0.000 A 
ATOM     30  C   UNL     1       1.618   9.446  18.965  0.00  0.00    +0.000 A 
ATOM     31  H   UNL     1      -0.063   8.585  23.013  0.00  0.00    +0.000 HD
BRANCH  22  33
ATOM     32  C   UNL     1       3.917   7.120  17.523  0.00  0.00    +0.000 C 
ATOM     33  O   UNL     1       2.783   7.990  17.510  0.00  0.00    +0.000 OA
ENDBRANCH  22  33
ENDBRANCH  21  28
ENDBRANCH   1  21
TORSDOF 6
ENDMDL
MODEL 4
REMARK VINA RESULT:      -7.8      2.686      7.916
REMARK  Name = 
REMARK  7 active torsions:
REMARK  status: ('A' for Active; 'I' for Inactive)
REMARK    1  A    between atoms: C_1  and  O_2
REMARK    2  A    between atoms: O_2  and  C_3
REMARK    3  A    between atoms: C_9  and  C_10
REMARK    4  A    between atoms: C_10  and  C_11
REMARK    5  A    between atoms: C_19  and  C_20
REMARK    6  A    between atoms: C_20  and  O_22
REMARK    7  A    between atoms: C_23  and  O_24
REMARK                            x       y       z     vdW  Elec       q    Type
REMARK                         _______ _______ _______ _____ _____    ______ ____
ROOT
ATOM      1  C   UNL     1       2.497   6.492  19.818  0.00  0.00    +0.000 A 
ATOM      2  N   UNL     1       3.561   6.501  18.912  0.00  0.00    +0.000 NA
ATOM      3  C   UNL     1       3.889   5.379  18.163  0.00  0.00    +0.000 A 
ATOM      4  C   UNL     1       4.924   5.266  17.130  0.00  0.00    +0.000 A 
ATOM      5  C   UNL     1       5.043   4.098  16.344  0.00  0.00    +0.000 A 
ATOM      6  C   UNL     1       4.334   2.957  16.692  0.00  0.00    +0.000 A 
ATOM      7  C   UNL     1       3.448   3.009  17.743  0.00  0.00    +0.000 A 
ATOM      8  C   UNL     1       3.112   4.208  18.383  0.00  0.00    +0.000 A 
ATOM      9  C   UNL     1       1.988   4.230  19.249  0.00  0.00    +0.000 A 
ATOM     10  C   UNL     1       1.704   5.365  20.001  0.00  0.00    +0.000 A 
ATOM     11  C   UNL     1       5.759   4.031  15.030  0.00  0.00    +0.000 C 
ATOM     12  C   UNL     1       7.026   4.833  14.947  0.00  0.00    +0.000 C 
ATOM     13  C   UNL     1       7.043   6.112  15.774  0.00  0.00    +0.000 C 
ATOM     14  C   UNL     1       5.916   6.378  16.820  0.00  0.00    +0.000 C 
ENDROOT
BRANCH   9  15
ATOM     15  C   UNL     1       1.014   3.079  19.273  0.00  0.00    +0.000 C 
ATOM     16  O   UNL     1       0.496   2.603  18.277  0.00  0.00    +0.000 OA
BRANCH  15  17
ATOM     17  O   UNL     1       0.776   2.565  20.500  0.00  0.00    +0.000 OA
ATOM     18  H   UNL     1       0.614   3.276  21.155  0.00  0.00    +0.000 HD
ENDBRANCH  15  17
ENDBRANCH   9  15
BRANCH  10  19
ATOM     19  O   UNL     1       0.645   5.316  20.876  0.00  0.00    +0.000 OA
ATOM     20  H   UNL     1      -0.167   5.036  20.416  0.00  0.00    +0.000 HD
ENDBRANCH  10  19
BRANCH   1  21
ATOM     21  C   UNL     1       2.104   7.777  20.564  0.00  0.00    +0.000 C 
BRANCH  21  28
ATOM     22  C   UNL     1      -1.141  11.386  20.688  0.00  0.00    +0.000 A 
ATOM     23  C   UNL     1      -1.453  11.826  19.402  0.00  0.00    +0.000 A 
ATOM     24  C   UNL     1      -0.814  11.271  18.294  0.00  0.00    +0.000 A 
ATOM     25  C   UNL     1       0.132  10.263  18.512  0.00  0.00    +0.000 A 
ATOM     26  N   UNL     1       0.863   9.558  17.583  0.00  0.00    +0.000 N 
ATOM     27  C   UNL     1       1.641   8.630  18.204  0.00  0.00    +0.000 A 
ATOM     28  C   UNL     1       1.460   8.719  19.574  0.00  0.00    +0.000 A 
ATOM     29  C   UNL     1       0.490   9.787  19.779  0.00  0.00    +0.000 A 
ATOM     30  C   UNL     1      -0.156  10.394  20.889  0.00  0.00    +0.000 A 
ATOM     31  H   UNL     1       0.795   9.684  16.583  0.00  0.00    +0.000 HD
BRANCH  22  33
ATOM     32  C   UNL     1      -1.380  11.225  23.044  0.00  0.00    +0.000 C 
ATOM     33  O   UNL     1      -1.729  11.889  21.827  0.00  0.00    +0.000 OA
ENDBRANCH  22  33
ENDBRANCH  21  28
ENDBRANCH   1  21
TORSDOF 6
ENDMDL
MODEL 5
REMARK VINA RESULT:      -7.8      5.197      8.077
REMARK  Name = 
REMARK  7 active torsions:
REMARK  status: ('A' for Active; 'I' for Inactive)
REMARK    1  A    between atoms: C_1  and  O_2
REMARK    2  A    between atoms: O_2  and  C_3
REMARK    3  A    between atoms: C_9  and  C_10
REMARK    4  A    between atoms: C_10  and  C_11
REMARK    5  A    between atoms: C_19  and  C_20
REMARK    6  A    between atoms: C_20  and  O_22
REMARK    7  A    between atoms: C_23  and  O_24
REMARK                            x       y       z     vdW  Elec       q    Type
REMARK                         _______ _______ _______ _____ _____    ______ ____
ROOT
ATOM      1  C   UNL     1       0.011  10.933  18.922  0.00  0.00    +0.000 A 
ATOM      2  N   UNL     1      -0.176  11.707  20.071  0.00  0.00    +0.000 NA
ATOM      3  C   UNL     1      -1.430  12.187  20.429  0.00  0.00    +0.000 A 
ATOM      4  C   UNL     1      -1.786  12.942  21.635  0.00  0.00    +0.000 A 
ATOM      5  C   UNL     1      -3.134  13.236  21.937  0.00  0.00    +0.000 A 
ATOM      6  C   UNL     1      -4.119  13.014  20.985  0.00  0.00    +0.000 A 
ATOM      7  C   UNL     1      -3.781  12.421  19.791  0.00  0.00    +0.000 A 
ATOM      8  C   UNL     1      -2.509  11.884  19.554  0.00  0.00    +0.000 A 
ATOM      9  C   UNL     1      -2.323  11.037  18.431  0.00  0.00    +0.000 A 
ATOM     10  C   UNL     1      -1.049  10.594  18.090  0.00  0.00    +0.000 A 
ATOM     11  C   UNL     1      -3.633  13.617  23.297  0.00  0.00    +0.000 C 
ATOM     12  C   UNL     1      -2.725  14.518  24.084  0.00  0.00    +0.000 C 
ATOM     13  C   UNL     1      -1.236  14.326  23.832  0.00  0.00    +0.000 C 
ATOM     14  C   UNL     1      -0.757  13.442  22.639  0.00  0.00    +0.000 C 
ENDROOT
BRANCH   9  15
ATOM     15  C   UNL     1      -3.508  10.501  17.667  0.00  0.00    +0.000 C 
ATOM     16  O   UNL     1      -4.190  11.172  16.910  0.00  0.00    +0.000 OA
BRANCH  15  17
ATOM     17  O   UNL     1      -3.749   9.184  17.846  0.00  0.00    +0.000 OA
ATOM     18  H   UNL     1      -4.282   8.819  17.108  0.00  0.00    +0.000 HD
ENDBRANCH  15  17
ENDBRANCH   9  15
BRANCH  10  19
ATOM     19  O   UNL     1      -0.909   9.831  16.955  0.00  0.00    +0.000 OA
ATOM     20  H   UNL     1      -0.172   9.201  17.054  0.00  0.00    +0.000 HD
ENDBRANCH  10  19
BRANCH   1  21
ATOM     21  C   UNL     1       1.393  10.342  18.604  0.00  0.00    +0.000 C 
BRANCH  21  28
ATOM     22  C   UNL     1       3.433   5.977  18.012  0.00  0.00    +0.000 A 
ATOM     23  C   UNL     1       3.168   5.146  19.100  0.00  0.00    +0.000 A 
ATOM     24  C   UNL     1       2.446   5.626  20.192  0.00  0.00    +0.000 A 
ATOM     25  C   UNL     1       1.995   6.950  20.157  0.00  0.00    +0.000 A 
ATOM     26  N   UNL     1       1.251   7.628  21.096  0.00  0.00    +0.000 N 
ATOM     27  C   UNL     1       0.980   8.888  20.660  0.00  0.00    +0.000 A 
ATOM     28  C   UNL     1       1.566   9.083  19.421  0.00  0.00    +0.000 A 
ATOM     29  C   UNL     1       2.238   7.831  19.096  0.00  0.00    +0.000 A 
ATOM     30  C   UNL     1       3.001   7.322  18.012  0.00  0.00    +0.000 A 
ATOM     31  H   UNL     1       0.919   7.228  21.963  0.00  0.00    +0.000 HD
BRANCH  22  33
ATOM     32  C   UNL     1       5.025   6.548  16.347  0.00  0.00    +0.000 C 
ATOM     33  O   UNL     1       4.141   5.572  16.902  0.00  0.00    +0.000 OA
ENDBRANCH  22  33
ENDBRANCH  21  28
ENDBRANCH   1  21
TORSDOF 6
ENDMDL
MODEL 6
REMARK VINA RESULT:      -7.7      5.634     10.369
REMARK  Name = 
REMARK  7 active torsions:
REMARK  status: ('A' for Active; 'I' for Inactive)
REMARK    1  A    between atoms: C_1  and  O_2
REMARK    2  A    between atoms: O_2  and  C_3
REMARK    3  A    between atoms: C_9  and  C_10
REMARK    4  A    between atoms: C_10  and  C_11
REMARK    5  A    between atoms: C_19  and  C_20
REMARK    6  A    between atoms: C_20  and  O_22
REMARK    7  A    between atoms: C_23  and  O_24
REMARK                            x       y       z     vdW  Elec       q    Type
REMARK                         _______ _______ _______ _____ _____    ______ ____
ROOT
ATOM      1  C   UNL     1      -0.378  11.342  19.274  0.00  0.00    +0.000 A 
ATOM      2  N   UNL     1       0.487  10.423  18.674  0.00  0.00    +0.000 NA
ATOM      3  C   UNL     1       1.075   9.395  19.400  0.00  0.00    +0.000 A 
ATOM      4  C   UNL     1       1.936   8.323  18.892  0.00  0.00    +0.000 A 
ATOM      5  C   UNL     1       2.340   7.257  19.727  0.00  0.00    +0.000 A 
ATOM      6  C   UNL     1       2.118   7.330  21.095  0.00  0.00    +0.000 A 
ATOM      7  C   UNL     1       1.419   8.398  21.608  0.00  0.00    +0.000 A 
ATOM      8  C   UNL     1       0.783   9.340  20.791  0.00  0.00    +0.000 A 
ATOM      9  C   UNL     1      -0.153  10.232  21.376  0.00  0.00    +0.000 A 
ATOM     10  C   UNL     1      -0.704  11.264  20.623  0.00  0.00    +0.000 A 
ATOM     11  C   UNL     1       2.851   5.939  19.231  0.00  0.00    +0.000 C 
ATOM     12  C   UNL     1       3.743   6.009  18.025  0.00  0.00    +0.000 C 
ATOM     13  C   UNL     1       3.434   7.136  17.049  0.00  0.00    +0.000 C 
ATOM     14  C   UNL     1       2.436   8.265  17.455  0.00  0.00    +0.000 C 
ENDROOT
BRANCH   9  15
ATOM     15  C   UNL     1      -0.661  10.003  22.777  0.00  0.00    +0.000 C 
ATOM     16  O   UNL     1      -0.655  10.852  23.652  0.00  0.00    +0.000 OA
BRANCH  15  17
ATOM     17  O   UNL     1      -1.177   8.774  22.999  0.00  0.00    +0.000 OA
ATOM     18  H   UNL     1      -1.683   8.749  23.839  0.00  0.00    +0.000 HD
ENDBRANCH  15  17
ENDBRANCH   9  15
BRANCH  10  19
ATOM     19  O   UNL     1      -1.554  12.143  21.250  0.00  0.00    +0.000 OA
ATOM     20  H   UNL     1      -2.422  12.157  20.807  0.00  0.00    +0.000 HD
ENDBRANCH  10  19
BRANCH   1  21
ATOM     21  C   UNL     1      -1.082  12.412  18.424  0.00  0.00    +0.000 C 
BRANCH  21  28
ATOM     22  C   UNL     1      -5.666  12.172  20.003  0.00  0.00    +0.000 A 
ATOM     23  C   UNL     1      -6.449  11.385  19.159  0.00  0.00    +0.000 A 
ATOM     24  C   UNL     1      -5.898  10.830  18.004  0.00  0.00    +0.000 A 
ATOM     25  C   UNL     1      -4.549  11.079  17.728  0.00  0.00    +0.000 A 
ATOM     26  N   UNL     1      -3.790  10.623  16.674  0.00  0.00    +0.000 N 
ATOM     27  C   UNL     1      -2.506  11.056  16.798  0.00  0.00    +0.000 A 
ATOM     28  C   UNL     1      -2.391  11.839  17.935  0.00  0.00    +0.000 A 
ATOM     29  C   UNL     1      -3.719  11.867  18.535  0.00  0.00    +0.000 A 
ATOM     30  C   UNL     1      -4.316  12.442  19.688  0.00  0.00    +0.000 A 
ATOM     31  H   UNL     1      -4.131  10.017  15.942  0.00  0.00    +0.000 HD
BRANCH  22  33
ATOM     32  C   UNL     1      -7.315  12.149  21.710  0.00  0.00    +0.000 C 
ATOM     33  O   UNL     1      -6.143  12.753  21.157  0.00  0.00    +0.000 OA
ENDBRANCH  22  33
ENDBRANCH  21  28
ENDBRANCH   1  21
TORSDOF 6
ENDMDL
MODEL 7
REMARK VINA RESULT:      -7.6      2.008      3.217
REMARK  Name = 
REMARK  7 active torsions:
REMARK  status: ('A' for Active; 'I' for Inactive)
REMARK    1  A    between atoms: C_1  and  O_2
REMARK    2  A    between atoms: O_2  and  C_3
REMARK    3  A    between atoms: C_9  and  C_10
REMARK    4  A    between atoms: C_10  and  C_11
REMARK    5  A    between atoms: C_19  and  C_20
REMARK    6  A    between atoms: C_20  and  O_22
REMARK    7  A    between atoms: C_23  and  O_24
REMARK                            x       y       z     vdW  Elec       q    Type
REMARK                         _______ _______ _______ _____ _____    ______ ____
ROOT
ATOM      1  C   UNL     1       3.132   3.894  17.753  0.00  0.00    +0.000 A 
ATOM      2  N   UNL     1       2.837   5.260  17.742  0.00  0.00    +0.000 NA
ATOM      3  C   UNL     1       2.212   5.878  18.817  0.00  0.00    +0.000 A 
ATOM      4  C   UNL     1       1.910   7.305  18.975  0.00  0.00    +0.000 A 
ATOM      5  C   UNL     1       1.404   7.811  20.194  0.00  0.00    +0.000 A 
ATOM      6  C   UNL     1       0.972   6.934  21.178  0.00  0.00    +0.000 A 
ATOM      7  C   UNL     1       1.131   5.581  20.993  0.00  0.00    +0.000 A 
ATOM      8  C   UNL     1       1.856   5.051  19.918  0.00  0.00    +0.000 A 
ATOM      9  C   UNL     1       2.226   3.681  19.951  0.00  0.00    +0.000 A 
ATOM     10  C   UNL     1       2.829   3.091  18.846  0.00  0.00    +0.000 A 
ATOM     11  C   UNL     1       1.453   9.253  20.597  0.00  0.00    +0.000 C 
ATOM     12  C   UNL     1       1.200  10.237  19.491  0.00  0.00    +0.000 C 
ATOM     13  C   UNL     1       1.674   9.803  18.111  0.00  0.00    +0.000 C 
ATOM     14  C   UNL     1       2.129   8.330  17.871  0.00  0.00    +0.000 C 
ENDROOT
BRANCH   9  15
ATOM     15  C   UNL     1       2.089   2.878  21.220  0.00  0.00    +0.000 C 
ATOM     16  O   UNL     1       3.031   2.535  21.914  0.00  0.00    +0.000 OA
BRANCH  15  17
ATOM     17  O   UNL     1       0.818   2.590  21.574  0.00  0.00    +0.000 OA
ATOM     18  H   UNL     1       0.479   1.817  21.073  0.00  0.00    +0.000 HD
ENDBRANCH  15  17
ENDBRANCH   9  15
BRANCH  10  19
ATOM     19  O   UNL     1       3.108   1.746  18.899  0.00  0.00    +0.000 OA
ATOM     20  H   UNL     1       2.858   1.378  19.766  0.00  0.00    +0.000 HD
ENDBRANCH  10  19
BRANCH   1  21
ATOM     21  C   UNL     1       3.904   3.260  16.585  0.00  0.00    +0.000 C 
BRANCH  21  28
ATOM     22  C   UNL     1       7.288   5.897  18.858  0.00  0.00    +0.000 A 
ATOM     23  C   UNL     1       7.994   6.694  17.957  0.00  0.00    +0.000 A 
ATOM     24  C   UNL     1       7.720   6.624  16.592  0.00  0.00    +0.000 A 
ATOM     25  C   UNL     1       6.720   5.745  16.161  0.00  0.00    +0.000 A 
ATOM     26  N   UNL     1       6.264   5.525  14.882  0.00  0.00    +0.000 N 
ATOM     27  C   UNL     1       5.246   4.622  14.895  0.00  0.00    +0.000 A 
ATOM     28  C   UNL     1       5.021   4.199  16.194  0.00  0.00    +0.000 A 
ATOM     29  C   UNL     1       5.986   4.916  17.018  0.00  0.00    +0.000 A 
ATOM     30  C   UNL     1       6.309   4.989  18.400  0.00  0.00    +0.000 A 
ATOM     31  H   UNL     1       6.607   6.002  14.060  0.00  0.00    +0.000 HD
BRANCH  22  33
ATOM     32  C   UNL     1       8.615   5.132  20.671  0.00  0.00    +0.000 C 
ATOM     33  O   UNL     1       7.506   5.912  20.218  0.00  0.00    +0.000 OA
ENDBRANCH  22  33
ENDBRANCH  21  28
ENDBRANCH   1  21
TORSDOF 6
ENDMDL
MODEL 8
REMARK VINA RESULT:      -7.5     10.014     11.950
REMARK  Name = 
REMARK  7 active torsions:
REMARK  status: ('A' for Active; 'I' for Inactive)
REMARK    1  A    between atoms: C_1  and  O_2
REMARK    2  A    between atoms: O_2  and  C_3
REMARK    3  A    between atoms: C_9  and  C_10
REMARK    4  A    between atoms: C_10  and  C_11
REMARK    5  A    between atoms: C_19  and  C_20
REMARK    6  A    between atoms: C_20  and  O_22
REMARK    7  A    between atoms: C_23  and  O_24
REMARK                            x       y       z     vdW  Elec       q    Type
REMARK                         _______ _______ _______ _____ _____    ______ ____
ROOT
ATOM      1  C   UNL     1       8.615  16.538  20.126  0.00  0.00    +0.000 A 
ATOM      2  N   UNL     1       8.675  15.595  21.156  0.00  0.00    +0.000 NA
ATOM      3  C   UNL     1       7.532  14.968  21.635  0.00  0.00    +0.000 A 
ATOM      4  C   UNL     1       7.451  13.914  22.652  0.00  0.00    +0.000 A 
ATOM      5  C   UNL     1       6.228  13.264  22.931  0.00  0.00    +0.000 A 
ATOM      6  C   UNL     1       5.045  13.770  22.413  0.00  0.00    +0.000 A 
ATOM      7  C   UNL     1       5.089  14.843  21.555  0.00  0.00    +0.000 A 
ATOM      8  C   UNL     1       6.293  15.354  21.053  0.00  0.00    +0.000 A 
ATOM      9  C   UNL     1       6.251  16.256  19.958  0.00  0.00    +0.000 A 
ATOM     10  C   UNL     1       7.412  16.883  19.520  0.00  0.00    +0.000 A 
ATOM     11  C   UNL     1       6.111  11.938  23.618  0.00  0.00    +0.000 C 
ATOM     12  C   UNL     1       7.078  11.712  24.745  0.00  0.00    +0.000 C 
ATOM     13  C   UNL     1       8.435  12.383  24.585  0.00  0.00    +0.000 C 
ATOM     14  C   UNL     1       8.654  13.437  23.454  0.00  0.00    +0.000 C 
ENDROOT
BRANCH   9  15
ATOM     15  C   UNL     1       4.978  16.453  19.174  0.00  0.00    +0.000 C 
ATOM     16  O   UNL     1       4.538  15.645  18.374  0.00  0.00    +0.000 OA
BRANCH  15  17
ATOM     17  O   UNL     1       4.313  17.597  19.451  0.00  0.00    +0.000 OA
ATOM     18  H   UNL     1       4.840  18.383  19.192  0.00  0.00    +0.000 HD
ENDBRANCH  15  17
ENDBRANCH   9  15
BRANCH  10  19
ATOM     19  O   UNL     1       7.311  17.799  18.502  0.00  0.00    +0.000 OA
ATOM     20  H   UNL     1       7.792  17.490  17.713  0.00  0.00    +0.000 HD
ENDBRANCH  10  19
BRANCH   1  21
ATOM     21  C   UNL     1       9.907  17.145  19.558  0.00  0.00    +0.000 C 
BRANCH  21  28
ATOM     22  C   UNL     1      11.187  12.550  18.654  0.00  0.00    +0.000 A 
ATOM     23  C   UNL     1      11.600  12.394  17.331  0.00  0.00    +0.000 A 
ATOM     24  C   UNL     1      11.557  13.472  16.449  0.00  0.00    +0.000 A 
ATOM     25  C   UNL     1      11.100  14.704  16.931  0.00  0.00    +0.000 A 
ATOM     26  N   UNL     1      10.994  15.902  16.261  0.00  0.00    +0.000 N 
ATOM     27  C   UNL     1      10.550  16.874  17.104  0.00  0.00    +0.000 A 
ATOM     28  C   UNL     1      10.323  16.329  18.357  0.00  0.00    +0.000 A 
ATOM     29  C   UNL     1      10.667  14.918  18.246  0.00  0.00    +0.000 A 
ATOM     30  C   UNL     1      10.695  13.792  19.112  0.00  0.00    +0.000 A 
ATOM     31  H   UNL     1      11.254  16.044  15.295  0.00  0.00    +0.000 HD
BRANCH  22  33
ATOM     32  C   UNL     1      10.363  11.726  20.722  0.00  0.00    +0.000 C 
ATOM     33  O   UNL     1      11.201  11.530  19.580  0.00  0.00    +0.000 OA
ENDBRANCH  22  33
ENDBRANCH  21  28
ENDBRANCH   1  21
TORSDOF 6
ENDMDL
MODEL 9
REMARK VINA RESULT:      -7.5      9.645     11.337
REMARK  Name = 
REMARK  7 active torsions:
REMARK  status: ('A' for Active; 'I' for Inactive)
REMARK    1  A    between atoms: C_1  and  O_2
REMARK    2  A    between atoms: O_2  and  C_3
REMARK    3  A    between atoms: C_9  and  C_10
REMARK    4  A    between atoms: C_10  and  C_11
REMARK    5  A    between atoms: C_19  and  C_20
REMARK    6  A    between atoms: C_20  and  O_22
REMARK    7  A    between atoms: C_23  and  O_24
REMARK                            x       y       z     vdW  Elec       q    Type
REMARK                         _______ _______ _______ _____ _____    ______ ____
ROOT
ATOM      1  C   UNL     1      -1.579  12.873  19.739  0.00  0.00    +0.000 A 
ATOM      2  N   UNL     1      -2.720  13.003  20.536  0.00  0.00    +0.000 NA
ATOM      3  C   UNL     1      -3.951  12.506  20.130  0.00  0.00    +0.000 A 
ATOM      4  C   UNL     1      -5.207  12.503  20.888  0.00  0.00    +0.000 A 
ATOM      5  C   UNL     1      -6.348  11.826  20.403  0.00  0.00    +0.000 A 
ATOM      6  C   UNL     1      -6.365  11.348  19.100  0.00  0.00    +0.000 A 
ATOM      7  C   UNL     1      -5.232  11.456  18.328  0.00  0.00    +0.000 A 
ATOM      8  C   UNL     1      -4.007  11.887  18.850  0.00  0.00    +0.000 A 
ATOM      9  C   UNL     1      -2.830  11.695  18.081  0.00  0.00    +0.000 A 
ATOM     10  C   UNL     1      -1.618  12.227  18.508  0.00  0.00    +0.000 A 
ATOM     11  C   UNL     1      -7.513  11.415  21.251  0.00  0.00    +0.000 C 
ATOM     12  C   UNL     1      -7.916  12.402  22.309  0.00  0.00    +0.000 C 
ATOM     13  C   UNL     1      -6.780  13.224  22.901  0.00  0.00    +0.000 C 
ATOM     14  C   UNL     1      -5.370  13.200  22.231  0.00  0.00    +0.000 C 
ENDROOT
BRANCH   9  15
ATOM     15  C   UNL     1      -2.845  10.808  16.861  0.00  0.00    +0.000 C 
ATOM     16  O   UNL     1      -2.872   9.590  16.905  0.00  0.00    +0.000 OA
BRANCH  15  17
ATOM     17  O   UNL     1      -2.869  11.467  15.682  0.00  0.00    +0.000 OA
ATOM     18  H   UNL     1      -2.359  12.304  15.735  0.00  0.00    +0.000 HD
ENDBRANCH  15  17
ENDBRANCH   9  15
BRANCH  10  19
ATOM     19  O   UNL     1      -0.519  12.073  17.698  0.00  0.00    +0.000 OA
ATOM     20  H   UNL     1      -0.106  11.202  17.842  0.00  0.00    +0.000 HD
ENDBRANCH  10  19
BRANCH   1  21
ATOM     21  C   UNL     1      -0.215  13.353  20.257  0.00  0.00    +0.000 C 
BRANCH  21  28
ATOM     22  C   UNL     1       3.591  15.255  17.917  0.00  0.00    +0.000 A 
ATOM     23  C   UNL     1       3.362  16.590  17.587  0.00  0.00    +0.000 A 
ATOM     24  C   UNL     1       2.139  17.189  17.886  0.00  0.00    +0.000 A 
ATOM     25  C   UNL     1       1.164  16.418  18.530  0.00  0.00    +0.000 A 
ATOM     26  N   UNL     1      -0.093  16.796  18.943  0.00  0.00    +0.000 N 
ATOM     27  C   UNL     1      -0.712  15.760  19.572  0.00  0.00    +0.000 A 
ATOM     28  C   UNL     1       0.121  14.654  19.566  0.00  0.00    +0.000 A 
ATOM     29  C   UNL     1       1.336  15.073  18.878  0.00  0.00    +0.000 A 
ATOM     30  C   UNL     1       2.581  14.483  18.533  0.00  0.00    +0.000 A 
ATOM     31  H   UNL     1      -0.479  17.724  18.833  0.00  0.00    +0.000 HD
BRANCH  22  33
ATOM     32  C   UNL     1       5.925  15.110  18.323  0.00  0.00    +0.000 C 
ATOM     33  O   UNL     1       4.772  14.598  17.650  0.00  0.00    +0.000 OA
ENDBRANCH  22  33
ENDBRANCH  21  28
ENDBRANCH   1  21
TORSDOF 6
ENDMDL
