MODEL 1
REMARK VINA RESULT:      -6.7      0.000      0.000
REMARK  Name = 
REMARK  9 active torsions:
REMARK  status: ('A' for Active; 'I' for Inactive)
REMARK    1  A    between atoms: C_1  and  C_2
REMARK    2  A    between atoms: C_10  and  C_11
REMARK    3  A    between atoms: C_11  and  N_12
REMARK    4  A    between atoms: C_14  and  C_15
REMARK    5  A    between atoms: C_15  and  O_16
REMARK    6  A    between atoms: C_17  and  C_18
REMARK    7  A    between atoms: C_18  and  N_19
REMARK    8  A    between atoms: N_19  and  C_20
REMARK    9  A    between atoms: N_19  and  C_21
REMARK                            x       y       z     vdW  Elec       q    Type
REMARK                         _______ _______ _______ _____ _____    ______ ____
ROOT
ATOM      1  N   UNL     1       3.790   4.380  16.771  0.00  0.00    +0.000 NA
ATOM      2  C   UNL     1       3.695   5.723  17.293  0.00  0.00    +0.000 C 
ATOM      3  C   UNL     1       2.488   5.775  18.245  0.00  0.00    +0.000 C 
ATOM      4  C   UNL     1       1.695   4.476  17.962  0.00  0.00    +0.000 C 
ATOM      5  C   UNL     1       2.590   3.629  17.047  0.00  0.00    +0.000 C 
ENDROOT
BRANCH   1   6
ATOM      6  C   UNL     1       5.050   3.675  16.850  0.00  0.00    +0.000 C 
BRANCH   6  16
ATOM      7  C   UNL     1       7.390   5.773  17.773  0.00  0.00    +0.000 C 
ATOM      8  C   UNL     1       7.047   5.292  16.413  0.00  0.00    +0.000 A 
ATOM      9  N   UNL     1       7.743   5.759  15.327  0.00  0.00    +0.000 NA
ATOM     10  C   UNL     1       7.256   5.106  14.294  0.00  0.00    +0.000 A 
ATOM     11  C   UNL     1       7.604   5.154  12.914  0.00  0.00    +0.000 A 
ATOM     12  C   UNL     1       7.013   4.314  12.047  0.00  0.00    +0.000 A 
ATOM     13  C   UNL     1       6.007   3.360  12.477  0.00  0.00    +0.000 A 
ATOM     14  C   UNL     1       5.639   3.342  13.769  0.00  0.00    +0.000 A 
ATOM     15  N   UNL     1       6.256   4.211  14.673  0.00  0.00    +0.000 N 
ATOM     16  C   UNL     1       6.076   4.378  16.031  0.00  0.00    +0.000 A 
ENDBRANCH   6  16
ENDBRANCH   1   6
BRANCH   3  17
ATOM     17  C   UNL     1       2.955   6.161  19.651  0.00  0.00    +0.000 C 
BRANCH  17  18
ATOM     18  O   UNL     1       4.111   5.460  20.068  0.00  0.00    +0.000 OA
ATOM     19  H   UNL     1       4.107   4.559  19.711  0.00  0.00    +0.000 HD
ENDBRANCH  17  18
ENDBRANCH   3  17
BRANCH   4  20
ATOM     20  C   UNL     1       1.100   3.572  19.070  0.00  0.00    +0.000 C 
BRANCH  20  21
ATOM     21  N   UNL     1       2.017   2.974  20.066  0.00  0.00    +0.000 NA
ATOM     22  C   UNL     1       1.402   2.854  21.400  0.00  0.00    +0.000 C 
ATOM     23  C   UNL     1       2.358   1.597  19.640  0.00  0.00    +0.000 C 
ENDBRANCH  20  21
ENDBRANCH   4  20
TORSDOF 6
ENDMDL
MODEL 2
REMARK VINA RESULT:      -6.3      1.957      6.735
REMARK  Name = 
REMARK  9 active torsions:
REMARK  status: ('A' for Active; 'I' for Inactive)
REMARK    1  A    between atoms: C_1  and  C_2
REMARK    2  A    between atoms: C_10  and  C_11
REMARK    3  A    between atoms: C_11  and  N_12
REMARK    4  A    between atoms: C_14  and  C_15
REMARK    5  A    between atoms: C_15  and  O_16
REMARK    6  A    between atoms: C_17  and  C_18
REMARK    7  A    between atoms: C_18  and  N_19
REMARK    8  A    between atoms: N_19  and  C_20
REMARK    9  A    between atoms: N_19  and  C_21
REMARK                            x       y       z     vdW  Elec       q    Type
REMARK                         _______ _______ _______ _____ _____    ______ ____
ROOT
ATOM      1  N   UNL     1       4.595   3.936  17.594  0.00  0.00    +0.000 NA
ATOM      2  C   UNL     1       5.388   4.900  18.320  0.00  0.00    +0.000 C 
ATOM      3  C   UNL     1       6.409   5.503  17.340  0.00  0.00    +0.000 C 
ATOM      4  C   UNL     1       6.381   4.571  16.104  0.00  0.00    +0.000 C 
ATOM      5  C   UNL     1       5.192   3.625  16.319  0.00  0.00    +0.000 C 
ENDROOT
BRANCH   1   6
ATOM      6  C   UNL     1       3.152   4.015  17.653  0.00  0.00    +0.000 C 
BRANCH   6  16
ATOM      7  C   UNL     1       2.895   2.765  20.669  0.00  0.00    +0.000 C 
ATOM      8  C   UNL     1       2.589   4.135  20.194  0.00  0.00    +0.000 A 
ATOM      9  N   UNL     1       2.102   5.070  21.073  0.00  0.00    +0.000 NA
ATOM     10  C   UNL     1       1.997   6.181  20.377  0.00  0.00    +0.000 A 
ATOM     11  C   UNL     1       1.572   7.485  20.761  0.00  0.00    +0.000 A 
ATOM     12  C   UNL     1       1.634   8.496  19.878  0.00  0.00    +0.000 A 
ATOM     13  C   UNL     1       2.112   8.293  18.522  0.00  0.00    +0.000 A 
ATOM     14  C   UNL     1       2.470   7.057  18.138  0.00  0.00    +0.000 A 
ATOM     15  N   UNL     1       2.410   6.005  19.056  0.00  0.00    +0.000 N 
ATOM     16  C   UNL     1       2.731   4.669  18.922  0.00  0.00    +0.000 A 
ENDBRANCH   6  16
ENDBRANCH   1   6
BRANCH   3  17
ATOM     17  C   UNL     1       6.192   7.015  17.233  0.00  0.00    +0.000 C 
BRANCH  17  18
ATOM     18  O   UNL     1       7.390   7.739  17.038  0.00  0.00    +0.000 OA
ATOM     19  H   UNL     1       7.723   7.606  16.138  0.00  0.00    +0.000 HD
ENDBRANCH  17  18
ENDBRANCH   3  17
BRANCH   4  20
ATOM     20  C   UNL     1       6.367   5.081  14.641  0.00  0.00    +0.000 C 
BRANCH  20  21
ATOM     21  N   UNL     1       7.011   4.255  13.596  0.00  0.00    +0.000 NA
ATOM     22  C   UNL     1       6.032   3.554  12.747  0.00  0.00    +0.000 C 
ATOM     23  C   UNL     1       7.787   5.138  12.695  0.00  0.00    +0.000 C 
ENDBRANCH  20  21
ENDBRANCH   4  20
TORSDOF 6
ENDMDL
MODEL 3
REMARK VINA RESULT:      -6.3      2.891      4.553
REMARK  Name = 
REMARK  9 active torsions:
REMARK  status: ('A' for Active; 'I' for Inactive)
REMARK    1  A    between atoms: C_1  and  C_2
REMARK    2  A    between atoms: C_10  and  C_11
REMARK    3  A    between atoms: C_11  and  N_12
REMARK    4  A    between atoms: C_14  and  C_15
REMARK    5  A    between atoms: C_15  and  O_16
REMARK    6  A    between atoms: C_17  and  C_18
REMARK    7  A    between atoms: C_18  and  N_19
REMARK    8  A    between atoms: N_19  and  C_20
REMARK    9  A    between atoms: N_19  and  C_21
REMARK                            x       y       z     vdW  Elec       q    Type
REMARK                         _______ _______ _______ _____ _____    ______ ____
ROOT
ATOM      1  N   UNL     1       3.849   3.238  20.326  0.00  0.00    +0.000 NA
ATOM      2  C   UNL     1       2.704   2.380  20.524  0.00  0.00    +0.000 C 
ATOM      3  C   UNL     1       1.448   3.268  20.537  0.00  0.00    +0.000 C 
ATOM      4  C   UNL     1       1.977   4.715  20.687  0.00  0.00    +0.000 C 
ATOM      5  C   UNL     1       3.500   4.625  20.514  0.00  0.00    +0.000 C 
ENDROOT
BRANCH   1   6
ATOM      6  C   UNL     1       4.797   2.926  19.279  0.00  0.00    +0.000 C 
BRANCH   6  16
ATOM      7  C   UNL     1       2.774   3.885  16.888  0.00  0.00    +0.000 C 
ATOM      8  C   UNL     1       4.073   4.464  17.304  0.00  0.00    +0.000 A 
ATOM      9  N   UNL     1       4.587   5.544  16.629  0.00  0.00    +0.000 NA
ATOM     10  C   UNL     1       5.694   5.858  17.267  0.00  0.00    +0.000 A 
ATOM     11  C   UNL     1       6.635   6.902  17.040  0.00  0.00    +0.000 A 
ATOM     12  C   UNL     1       7.659   7.076  17.894  0.00  0.00    +0.000 A 
ATOM     13  C   UNL     1       7.846   6.210  19.043  0.00  0.00    +0.000 A 
ATOM     14  C   UNL     1       6.990   5.194  19.237  0.00  0.00    +0.000 A 
ATOM     15  N   UNL     1       5.922   5.014  18.354  0.00  0.00    +0.000 N 
ATOM     16  C   UNL     1       4.910   4.075  18.339  0.00  0.00    +0.000 A 
ENDBRANCH   6  16
ENDBRANCH   1   6
BRANCH   3  17
ATOM     17  C   UNL     1       0.508   2.851  19.402  0.00  0.00    +0.000 C 
BRANCH  17  18
ATOM     18  O   UNL     1       0.963   1.719  18.688  0.00  0.00    +0.000 OA
ATOM     19  H   UNL     1       0.863   0.918  19.224  0.00  0.00    +0.000 HD
ENDBRANCH  17  18
ENDBRANCH   3  17
BRANCH   4  20
ATOM     20  C   UNL     1       1.442   5.916  19.869  0.00  0.00    +0.000 C 
BRANCH  20  21
ATOM     21  N   UNL     1       2.219   7.176  19.869  0.00  0.00    +0.000 NA
ATOM     22  C   UNL     1       2.389   7.736  18.517  0.00  0.00    +0.000 C 
ATOM     23  C   UNL     1       1.482   8.195  20.652  0.00  0.00    +0.000 C 
ENDBRANCH  20  21
ENDBRANCH   4  20
TORSDOF 6
ENDMDL
MODEL 4
REMARK VINA RESULT:      -6.2      4.072      6.602
REMARK  Name = 
REMARK  9 active torsions:
REMARK  status: ('A' for Active; 'I' for Inactive)
REMARK    1  A    between atoms: C_1  and  C_2
REMARK    2  A    between atoms: C_10  and  C_11
REMARK    3  A    between atoms: C_11  and  N_12
REMARK    4  A    between atoms: C_14  and  C_15
REMARK    5  A    between atoms: C_15  and  O_16
REMARK    6  A    between atoms: C_17  and  C_18
REMARK    7  A    between atoms: C_18  and  N_19
REMARK    8  A    between atoms: N_19  and  C_20
REMARK    9  A    between atoms: N_19  and  C_21
REMARK                            x       y       z     vdW  Elec       q    Type
REMARK                         _______ _______ _______ _____ _____    ______ ____
ROOT
ATOM      1  N   UNL     1       1.929   7.739  19.122  0.00  0.00    +0.000 NA
ATOM      2  C   UNL     1       1.725   8.609  17.988  0.00  0.00    +0.000 C 
ATOM      3  C   UNL     1       1.204   9.957  18.516  0.00  0.00    +0.000 C 
ATOM      4  C   UNL     1       0.790   9.683  19.983  0.00  0.00    +0.000 C 
ATOM      5  C   UNL     1       1.305   8.274  20.308  0.00  0.00    +0.000 C 
ENDROOT
BRANCH   1   6
ATOM      6  C   UNL     1       3.199   7.068  19.283  0.00  0.00    +0.000 C 
BRANCH   6  16
ATOM      7  C   UNL     1       4.895   6.095  16.655  0.00  0.00    +0.000 C 
ATOM      8  C   UNL     1       3.870   5.360  17.433  0.00  0.00    +0.000 A 
ATOM      9  N   UNL     1       3.502   4.093  17.053  0.00  0.00    +0.000 NA
ATOM     10  C   UNL     1       2.642   3.693  17.963  0.00  0.00    +0.000 A 
ATOM     11  C   UNL     1       1.944   2.459  18.106  0.00  0.00    +0.000 A 
ATOM     12  C   UNL     1       1.171   2.250  19.185  0.00  0.00    +0.000 A 
ATOM     13  C   UNL     1       1.010   3.263  20.213  0.00  0.00    +0.000 A 
ATOM     14  C   UNL     1       1.627   4.446  20.062  0.00  0.00    +0.000 A 
ATOM     15  N   UNL     1       2.435   4.664  18.942  0.00  0.00    +0.000 N 
ATOM     16  C   UNL     1       3.179   5.764  18.565  0.00  0.00    +0.000 A 
ENDBRANCH   6  16
ENDBRANCH   1   6
BRANCH   3  17
ATOM     17  C   UNL     1       2.178  11.074  18.134  0.00  0.00    +0.000 C 
BRANCH  17  18
ATOM     18  O   UNL     1       1.558  12.338  18.007  0.00  0.00    +0.000 OA
ATOM     19  H   UNL     1       1.542  12.794  18.862  0.00  0.00    +0.000 HD
ENDBRANCH  17  18
ENDBRANCH   3  17
BRANCH   4  20
ATOM     20  C   UNL     1       1.121  10.630  21.162  0.00  0.00    +0.000 C 
BRANCH  20  21
ATOM     21  N   UNL     1       0.004  11.267  21.896  0.00  0.00    +0.000 NA
ATOM     22  C   UNL     1      -1.109  11.650  21.010  0.00  0.00    +0.000 C 
ATOM     23  C   UNL     1      -0.551  10.293  22.864  0.00  0.00    +0.000 C 
ENDBRANCH  20  21
ENDBRANCH   4  20
TORSDOF 6
ENDMDL
MODEL 5
REMARK VINA RESULT:      -6.2      3.764      7.677
REMARK  Name = 
REMARK  9 active torsions:
REMARK  status: ('A' for Active; 'I' for Inactive)
REMARK    1  A    between atoms: C_1  and  C_2
REMARK    2  A    between atoms: C_10  and  C_11
REMARK    3  A    between atoms: C_11  and  N_12
REMARK    4  A    between atoms: C_14  and  C_15
REMARK    5  A    between atoms: C_15  and  O_16
REMARK    6  A    between atoms: C_17  and  C_18
REMARK    7  A    between atoms: C_18  and  N_19
REMARK    8  A    between atoms: N_19  and  C_20
REMARK    9  A    between atoms: N_19  and  C_21
REMARK                            x       y       z     vdW  Elec       q    Type
REMARK                         _______ _______ _______ _____ _____    ______ ____
ROOT
ATOM      1  N   UNL     1       1.686   6.021  19.647  0.00  0.00    +0.000 NA
ATOM      2  C   UNL     1       1.265   4.952  20.522  0.00  0.00    +0.000 C 
ATOM      3  C   UNL     1       1.734   3.624  19.901  0.00  0.00    +0.000 C 
ATOM      4  C   UNL     1       2.138   3.977  18.449  0.00  0.00    +0.000 C 
ATOM      5  C   UNL     1       2.114   5.511  18.368  0.00  0.00    +0.000 C 
ENDROOT
BRANCH   1   6
ATOM      6  C   UNL     1       2.419   7.140  20.197  0.00  0.00    +0.000 C 
BRANCH   6  16
ATOM      7  C   UNL     1       1.955   8.931  17.494  0.00  0.00    +0.000 C 
ATOM      8  C   UNL     1       1.472   9.176  18.873  0.00  0.00    +0.000 A 
ATOM      9  N   UNL     1       0.738  10.302  19.151  0.00  0.00    +0.000 NA
ATOM     10  C   UNL     1       0.408  10.198  20.420  0.00  0.00    +0.000 A 
ATOM     11  C   UNL     1      -0.367  11.054  21.253  0.00  0.00    +0.000 A 
ATOM     12  C   UNL     1      -0.643  10.686  22.516  0.00  0.00    +0.000 A 
ATOM     13  C   UNL     1      -0.153   9.436  23.068  0.00  0.00    +0.000 A 
ATOM     14  C   UNL     1       0.619   8.647  22.304  0.00  0.00    +0.000 A 
ATOM     15  N   UNL     1       0.903   9.025  20.989  0.00  0.00    +0.000 N 
ATOM     16  C   UNL     1       1.643   8.396  20.008  0.00  0.00    +0.000 A 
ENDBRANCH   6  16
ENDBRANCH   1   6
BRANCH   3  17
ATOM     17  C   UNL     1       2.683   2.910  20.867  0.00  0.00    +0.000 C 
BRANCH  17  18
ATOM     18  O   UNL     1       2.265   2.979  22.216  0.00  0.00    +0.000 OA
ATOM     19  H   UNL     1       2.997   3.268  22.782  0.00  0.00    +0.000 HD
ENDBRANCH  17  18
ENDBRANCH   3  17
BRANCH   4  20
ATOM     20  C   UNL     1       3.422   3.452  17.761  0.00  0.00    +0.000 C 
BRANCH  20  21
ATOM     21  N   UNL     1       4.553   4.386  17.561  0.00  0.00    +0.000 NA
ATOM     22  C   UNL     1       5.531   4.332  18.661  0.00  0.00    +0.000 C 
ATOM     23  C   UNL     1       5.285   3.998  16.333  0.00  0.00    +0.000 C 
ENDBRANCH  20  21
ENDBRANCH   4  20
TORSDOF 6
ENDMDL
MODEL 6
REMARK VINA RESULT:      -6.0      4.064      6.883
REMARK  Name = 
REMARK  9 active torsions:
REMARK  status: ('A' for Active; 'I' for Inactive)
REMARK    1  A    between atoms: C_1  and  C_2
REMARK    2  A    between atoms: C_10  and  C_11
REMARK    3  A    between atoms: C_11  and  N_12
REMARK    4  A    between atoms: C_14  and  C_15
REMARK    5  A    between atoms: C_15  and  O_16
REMARK    6  A    between atoms: C_17  and  C_18
REMARK    7  A    between atoms: C_18  and  N_19
REMARK    8  A    between atoms: N_19  and  C_20
REMARK    9  A    between atoms: N_19  and  C_21
REMARK                            x       y       z     vdW  Elec       q    Type
REMARK                         _______ _______ _______ _____ _____    ______ ____
ROOT
ATOM      1  N   UNL     1       1.958   8.112  19.156  0.00  0.00    +0.000 NA
ATOM      2  C   UNL     1       1.863   7.954  20.588  0.00  0.00    +0.000 C 
ATOM      3  C   UNL     1       0.865   9.001  21.112  0.00  0.00    +0.000 C 
ATOM      4  C   UNL     1       0.667   9.992  19.939  0.00  0.00    +0.000 C 
ATOM      5  C   UNL     1       1.359   9.351  18.727  0.00  0.00    +0.000 C 
ENDROOT
BRANCH   1   6
ATOM      6  C   UNL     1       1.784   6.958  18.302  0.00  0.00    +0.000 C 
BRANCH   6  16
ATOM      7  C   UNL     1       4.953   6.635  17.541  0.00  0.00    +0.000 C 
ATOM      8  C   UNL     1       4.085   5.735  18.337  0.00  0.00    +0.000 A 
ATOM      9  N   UNL     1       4.596   4.567  18.845  0.00  0.00    +0.000 NA
ATOM     10  C   UNL     1       3.617   4.035  19.545  0.00  0.00    +0.000 A 
ATOM     11  C   UNL     1       3.567   2.839  20.315  0.00  0.00    +0.000 A 
ATOM     12  C   UNL     1       2.462   2.545  21.023  0.00  0.00    +0.000 A 
ATOM     13  C   UNL     1       1.299   3.413  21.011  0.00  0.00    +0.000 A 
ATOM     14  C   UNL     1       1.321   4.519  20.249  0.00  0.00    +0.000 A 
ATOM     15  N   UNL     1       2.470   4.828  19.516  0.00  0.00    +0.000 N 
ATOM     16  C   UNL     1       2.752   5.893  18.684  0.00  0.00    +0.000 A 
ENDBRANCH   6  16
ENDBRANCH   1   6
BRANCH   3  17
ATOM     17  C   UNL     1      -0.309   8.299  21.800  0.00  0.00    +0.000 C 
BRANCH  17  18
ATOM     18  O   UNL     1      -0.762   8.972  22.958  0.00  0.00    +0.000 OA
ATOM     19  H   UNL     1      -1.601   9.423  22.780  0.00  0.00    +0.000 HD
ENDBRANCH  17  18
ENDBRANCH   3  17
BRANCH   4  20
ATOM     20  C   UNL     1      -0.713  10.545  19.502  0.00  0.00    +0.000 C 
BRANCH  20  21
ATOM     21  N   UNL     1      -0.928  10.867  18.074  0.00  0.00    +0.000 NA
ATOM     22  C   UNL     1      -2.015  10.075  17.473  0.00  0.00    +0.000 C 
ATOM     23  C   UNL     1      -1.335  12.287  17.958  0.00  0.00    +0.000 C 
ENDBRANCH  20  21
ENDBRANCH   4  20
TORSDOF 6
ENDMDL
MODEL 7
REMARK VINA RESULT:      -6.0      7.949     10.770
REMARK  Name = 
REMARK  9 active torsions:
REMARK  status: ('A' for Active; 'I' for Inactive)
REMARK    1  A    between atoms: C_1  and  C_2
REMARK    2  A    between atoms: C_10  and  C_11
REMARK    3  A    between atoms: C_11  and  N_12
REMARK    4  A    between atoms: C_14  and  C_15
REMARK    5  A    between atoms: C_15  and  O_16
REMARK    6  A    between atoms: C_17  and  C_18
REMARK    7  A    between atoms: C_18  and  N_19
REMARK    8  A    between atoms: N_19  and  C_20
REMARK    9  A    between atoms: N_19  and  C_21
REMARK                            x       y       z     vdW  Elec       q    Type
REMARK                         _______ _______ _______ _____ _____    ______ ____
ROOT
ATOM      1  N   UNL     1      -2.138  10.415  18.140  0.00  0.00    +0.000 NA
ATOM      2  C   UNL     1      -2.164   9.629  16.929  0.00  0.00    +0.000 C 
ATOM      3  C   UNL     1      -3.434  10.010  16.148  0.00  0.00    +0.000 C 
ATOM      4  C   UNL     1      -4.304  10.802  17.154  0.00  0.00    +0.000 C 
ATOM      5  C   UNL     1      -3.411  11.048  18.379  0.00  0.00    +0.000 C 
ENDROOT
BRANCH   1   6
ATOM      6  C   UNL     1      -0.948  11.167  18.472  0.00  0.00    +0.000 C 
BRANCH   6  16
ATOM      7  C   UNL     1       1.685   9.350  17.769  0.00  0.00    +0.000 C 
ATOM      8  C   UNL     1       1.019   9.568  19.075  0.00  0.00    +0.000 A 
ATOM      9  N   UNL     1       1.495   8.938  20.198  0.00  0.00    +0.000 NA
ATOM     10  C   UNL     1       0.748   9.379  21.187  0.00  0.00    +0.000 A 
ATOM     11  C   UNL     1       0.789   9.097  22.582  0.00  0.00    +0.000 A 
ATOM     12  C   UNL     1      -0.037   9.747  23.420  0.00  0.00    +0.000 A 
ATOM     13  C   UNL     1      -0.992  10.727  22.937  0.00  0.00    +0.000 A 
ATOM     14  C   UNL     1      -1.070  10.963  21.617  0.00  0.00    +0.000 A 
ATOM     15  N   UNL     1      -0.209  10.292  20.746  0.00  0.00    +0.000 N 
ATOM     16  C   UNL     1      -0.076  10.365  19.373  0.00  0.00    +0.000 A 
ENDBRANCH   6  16
ENDBRANCH   1   6
BRANCH   3  17
ATOM     17  C   UNL     1      -3.048  10.572  14.777  0.00  0.00    +0.000 C 
BRANCH  17  18
ATOM     18  O   UNL     1      -3.807  10.028  13.716  0.00  0.00    +0.000 OA
ATOM     19  H   UNL     1      -4.755  10.134  13.889  0.00  0.00    +0.000 HD
ENDBRANCH  17  18
ENDBRANCH   3  17
BRANCH   4  20
ATOM     20  C   UNL     1      -5.054  12.111  16.801  0.00  0.00    +0.000 C 
BRANCH  20  21
ATOM     21  N   UNL     1      -6.011  12.667  17.783  0.00  0.00    +0.000 NA
ATOM     22  C   UNL     1      -6.783  13.799  17.241  0.00  0.00    +0.000 C 
ATOM     23  C   UNL     1      -6.997  11.621  18.139  0.00  0.00    +0.000 C 
ENDBRANCH  20  21
ENDBRANCH   4  20
TORSDOF 6
ENDMDL
MODEL 8
REMARK VINA RESULT:      -6.0      1.873      6.232
REMARK  Name = 
REMARK  9 active torsions:
REMARK  status: ('A' for Active; 'I' for Inactive)
REMARK    1  A    between atoms: C_1  and  C_2
REMARK    2  A    between atoms: C_10  and  C_11
REMARK    3  A    between atoms: C_11  and  N_12
REMARK    4  A    between atoms: C_14  and  C_15
REMARK    5  A    between atoms: C_15  and  O_16
REMARK    6  A    between atoms: C_17  and  C_18
REMARK    7  A    between atoms: C_18  and  N_19
REMARK    8  A    between atoms: N_19  and  C_20
REMARK    9  A    between atoms: N_19  and  C_21
REMARK                            x       y       z     vdW  Elec       q    Type
REMARK                         _______ _______ _______ _____ _____    ______ ____
ROOT
ATOM      1  N   UNL     1       6.260   4.854  18.892  0.00  0.00    +0.000 NA
ATOM      2  C   UNL     1       7.383   5.761  18.857  0.00  0.00    +0.000 C 
ATOM      3  C   UNL     1       7.609   6.172  17.391  0.00  0.00    +0.000 C 
ATOM      4  C   UNL     1       6.773   5.172  16.557  0.00  0.00    +0.000 C 
ATOM      5  C   UNL     1       5.922   4.391  17.569  0.00  0.00    +0.000 C 
ENDROOT
BRANCH   1   6
ATOM      6  C   UNL     1       5.169   5.109  19.806  0.00  0.00    +0.000 C 
BRANCH   6  16
ATOM      7  C   UNL     1       3.776   7.302  17.811  0.00  0.00    +0.000 C 
ATOM      8  C   UNL     1       3.263   5.986  18.260  0.00  0.00    +0.000 A 
ATOM      9  N   UNL     1       2.026   5.557  17.847  0.00  0.00    +0.000 NA
ATOM     10  C   UNL     1       1.891   4.350  18.350  0.00  0.00    +0.000 A 
ATOM     11  C   UNL     1       0.828   3.408  18.238  0.00  0.00    +0.000 A 
ATOM     12  C   UNL     1       0.959   2.185  18.780  0.00  0.00    +0.000 A 
ATOM     13  C   UNL     1       2.159   1.796  19.498  0.00  0.00    +0.000 A 
ATOM     14  C   UNL     1       3.145   2.695  19.649  0.00  0.00    +0.000 A 
ATOM     15  N   UNL     1       3.013   3.965  19.084  0.00  0.00    +0.000 N 
ATOM     16  C   UNL     1       3.872   5.046  19.079  0.00  0.00    +0.000 A 
ENDBRANCH   6  16
ENDBRANCH   1   6
BRANCH   3  17
ATOM     17  C   UNL     1       7.455   7.689  17.250  0.00  0.00    +0.000 C 
BRANCH  17  18
ATOM     18  O   UNL     1       8.246   8.419  18.166  0.00  0.00    +0.000 OA
ATOM     19  H   UNL     1       9.079   7.954  18.340  0.00  0.00    +0.000 HD
ENDBRANCH  17  18
ENDBRANCH   3  17
BRANCH   4  20
ATOM     20  C   UNL     1       5.885   5.583  15.356  0.00  0.00    +0.000 C 
BRANCH  20  21
ATOM     21  N   UNL     1       6.303   5.179  13.995  0.00  0.00    +0.000 NA
ATOM     22  C   UNL     1       7.758   5.292  13.793  0.00  0.00    +0.000 C 
ATOM     23  C   UNL     1       5.964   3.752  13.792  0.00  0.00    +0.000 C 
ENDBRANCH  20  21
ENDBRANCH   4  20
TORSDOF 6
ENDMDL
MODEL 9
REMARK VINA RESULT:      -6.0      4.189      6.951
REMARK  Name = 
REMARK  9 active torsions:
REMARK  status: ('A' for Active; 'I' for Inactive)
REMARK    1  A    between atoms: C_1  and  C_2
REMARK    2  A    between atoms: C_10  and  C_11
REMARK    3  A    between atoms: C_11  and  N_12
REMARK    4  A    between atoms: C_14  and  C_15
REMARK    5  A    between atoms: C_15  and  O_16
REMARK    6  A    between atoms: C_17  and  C_18
REMARK    7  A    between atoms: C_18  and  N_19
REMARK    8  A    between atoms: N_19  and  C_20
REMARK    9  A    between atoms: N_19  and  C_21
REMARK                            x       y       z     vdW  Elec       q    Type
REMARK                         _______ _______ _______ _____ _____    ______ ____
ROOT
ATOM      1  N   UNL     1       2.067   7.990  19.063  0.00  0.00    +0.000 NA
ATOM      2  C   UNL     1       1.852   7.927  20.489  0.00  0.00    +0.000 C 
ATOM      3  C   UNL     1       0.886   9.063  20.871  0.00  0.00    +0.000 C 
ATOM      4  C   UNL     1       0.844   9.990  19.631  0.00  0.00    +0.000 C 
ATOM      5  C   UNL     1       1.584   9.235  18.518  0.00  0.00    +0.000 C 
ENDROOT
BRANCH   1   6
ATOM      6  C   UNL     1       1.885   6.799  18.265  0.00  0.00    +0.000 C 
BRANCH   6  16
ATOM      7  C   UNL     1       5.075   6.434  17.615  0.00  0.00    +0.000 C 
ATOM      8  C   UNL     1       4.176   5.564  18.410  0.00  0.00    +0.000 A 
ATOM      9  N   UNL     1       4.661   4.409  18.970  0.00  0.00    +0.000 NA
ATOM     10  C   UNL     1       3.657   3.904  19.653  0.00  0.00    +0.000 A 
ATOM     11  C   UNL     1       3.574   2.732  20.458  0.00  0.00    +0.000 A 
ATOM     12  C   UNL     1       2.445   2.467  21.138  0.00  0.00    +0.000 A 
ATOM     13  C   UNL     1       1.289   3.342  21.063  0.00  0.00    +0.000 A 
ATOM     14  C   UNL     1       1.343   4.424  20.269  0.00  0.00    +0.000 A 
ATOM     15  N   UNL     1       2.517   4.703  19.564  0.00  0.00    +0.000 N 
ATOM     16  C   UNL     1       2.833   5.740  18.710  0.00  0.00    +0.000 A 
ENDBRANCH   6  16
ENDBRANCH   1   6
BRANCH   3  17
ATOM     17  C   UNL     1      -0.380   8.476  21.500  0.00  0.00    +0.000 C 
BRANCH  17  18
ATOM     18  O   UNL     1      -0.636   8.967  22.801  0.00  0.00    +0.000 OA
ATOM     19  H   UNL     1      -1.480   9.443  22.823  0.00  0.00    +0.000 HD
ENDBRANCH  17  18
ENDBRANCH   3  17
BRANCH   4  20
ATOM     20  C   UNL     1      -0.460  10.596  19.054  0.00  0.00    +0.000 C 
BRANCH  20  21
ATOM     21  N   UNL     1      -0.841  11.969  19.455  0.00  0.00    +0.000 NA
ATOM     22  C   UNL     1      -1.490  12.012  20.777  0.00  0.00    +0.000 C 
ATOM     23  C   UNL     1       0.384  12.795  19.565  0.00  0.00    +0.000 C 
ENDBRANCH  20  21
ENDBRANCH   4  20
TORSDOF 6
ENDMDL
