MODEL 1
REMARK VINA RESULT:      -7.3      0.000      0.000
REMARK  Name = 
REMARK  7 active torsions:
REMARK  status: ('A' for Active; 'I' for Inactive)
REMARK    1  A    between atoms: C_1  and  O_2
REMARK    2  A    between atoms: O_2  and  C_3
REMARK    3  A    between atoms: C_6  and  C_7
REMARK    4  A    between atoms: C_8  and  C_9
REMARK    5  A    between atoms: C_11  and  N_12
REMARK    6  A    between atoms: N_13  and  C_14
REMARK    7  A    between atoms: C_25  and  C_26
REMARK                            x       y       z     vdW  Elec       q    Type
REMARK                         _______ _______ _______ _____ _____    ______ ____
ROOT
ATOM      1  C   UNL     1      -2.349  12.220  20.221  0.00  0.00    +0.000 A 
ATOM      2  C   UNL     1      -1.204  11.583  19.784  0.00  0.00    +0.000 A 
ATOM      3  C   UNL     1      -1.199  10.907  18.646  0.00  0.00    +0.000 A 
ATOM      4  N   UNL     1      -2.281  10.812  17.891  0.00  0.00    +0.000 N 
ATOM      5  C   UNL     1      -3.461  11.424  18.267  0.00  0.00    +0.000 A 
ATOM      6  S   UNL     1      -4.781  11.302  17.336  0.00  0.00    +0.000 S 
ATOM      7  C   UNL     1      -3.501  12.145  19.452  0.00  0.00    +0.000 A 
ENDROOT
BRANCH   4   8
ATOM      8  C   UNL     1      -2.228  10.044  16.638  0.00  0.00    +0.000 C 
ATOM      9  O   UNL     1      -2.228  10.044  16.638  0.00  0.00    +0.000 OA
ATOM     10  C   UNL     1      -2.228  10.044  16.638  0.00  0.00    +0.000 C 
ATOM     11  C   UNL     1      -2.228  10.044  16.638  0.00  0.00    +0.000 C 
ATOM     12  O   UNL     1      -2.228  10.044  16.638  0.00  0.00    +0.000 OA
ATOM     13  C   UNL     1      -2.228  10.044  16.638  0.00  0.00    +0.000 C 
ATOM     14  O   UNL     1      -2.228  10.044  16.638  0.00  0.00    +0.000 OA
ATOM     15  C   UNL     1      -2.228  10.044  16.638  0.00  0.00    +0.000 C 
ATOM     16  O   UNL     1      -2.228  10.044  16.638  0.00  0.00    +0.000 OA
ENDBRANCH   4   8
BRANCH   1  20
ATOM     17  C   UNL     1      -2.878  14.225  23.955  0.00  0.00    +0.000 A 
ATOM     18  C   UNL     1      -3.268  12.901  23.850  0.00  0.00    +0.000 A 
ATOM     19  C   UNL     1      -2.852  12.273  22.653  0.00  0.00    +0.000 A 
ATOM     20  C   UNL     1      -2.457  12.915  21.568  0.00  0.00    +0.000 A 
ATOM     21  C   UNL     1      -2.152  14.239  21.722  0.00  0.00    +0.000 A 
ATOM     22  C   UNL     1      -2.409  14.890  22.905  0.00  0.00    +0.000 A 
BRANCH  17  24
ATOM     23  C   UNL     1      -1.719  15.477  25.726  0.00  0.00    +0.000 C 
ATOM     24  O   UNL     1      -2.871  14.794  25.256  0.00  0.00    +0.000 OA
ENDBRANCH  17  24
ENDBRANCH   1  20
BRANCH   3  25
ATOM     25  N   UNL     1       0.040  10.247  18.209  0.00  0.00    +0.000 N 
ATOM     26  H   UNL     1       0.761  10.076  18.858  0.00  0.00    +0.000 HD
ATOM     27  H   UNL     1       0.148   9.976  17.269  0.00  0.00    +0.000 HD
ENDBRANCH   3  25
BRANCH   2  28
ATOM     28  C   UNL     1       0.063  11.658  20.620  0.00  0.00    +0.000 C 
ATOM     29  N   UNL     1       1.114  11.722  21.314  0.00  0.00    +0.000 NA
ENDBRANCH   2  28
BRANCH   7  30
ATOM     30  C   UNL     1      -4.778  12.839  19.896  0.00  0.00    +0.000 C 
ATOM     31  N   UNL     1      -5.838  13.415  20.265  0.00  0.00    +0.000 NA
ENDBRANCH   7  30
TORSDOF 6
ENDMDL
MODEL 2
REMARK VINA RESULT:      -7.0      8.978     11.490
REMARK  Name = 
REMARK  7 active torsions:
REMARK  status: ('A' for Active; 'I' for Inactive)
REMARK    1  A    between atoms: C_1  and  O_2
REMARK    2  A    between atoms: O_2  and  C_3
REMARK    3  A    between atoms: C_6  and  C_7
REMARK    4  A    between atoms: C_8  and  C_9
REMARK    5  A    between atoms: C_11  and  N_12
REMARK    6  A    between atoms: N_13  and  C_14
REMARK    7  A    between atoms: C_25  and  C_26
REMARK                            x       y       z     vdW  Elec       q    Type
REMARK                         _______ _______ _______ _____ _____    ______ ____
ROOT
ATOM      1  C   UNL     1       3.882   4.167  17.865  0.00  0.00    +0.000 A 
ATOM      2  C   UNL     1       3.567   2.872  18.227  0.00  0.00    +0.000 A 
ATOM      3  C   UNL     1       2.688   2.634  19.187  0.00  0.00    +0.000 A 
ATOM      4  N   UNL     1       2.086   3.617  19.835  0.00  0.00    +0.000 N 
ATOM      5  C   UNL     1       2.353   4.937  19.525  0.00  0.00    +0.000 A 
ATOM      6  S   UNL     1       1.611   6.134  20.325  0.00  0.00    +0.000 S 
ATOM      7  C   UNL     1       3.266   5.223  18.520  0.00  0.00    +0.000 A 
ENDROOT
BRANCH   4   8
ATOM      8  C   UNL     1       1.121   3.303  20.900  0.00  0.00    +0.000 C 
ATOM      9  O   UNL     1       1.121   3.303  20.900  0.00  0.00    +0.000 OA
ATOM     10  C   UNL     1       1.121   3.303  20.900  0.00  0.00    +0.000 C 
ATOM     11  C   UNL     1       1.121   3.303  20.900  0.00  0.00    +0.000 C 
ATOM     12  O   UNL     1       1.121   3.303  20.900  0.00  0.00    +0.000 OA
ATOM     13  C   UNL     1       1.121   3.303  20.900  0.00  0.00    +0.000 C 
ATOM     14  O   UNL     1       1.121   3.303  20.900  0.00  0.00    +0.000 OA
ATOM     15  C   UNL     1       1.121   3.303  20.900  0.00  0.00    +0.000 C 
ATOM     16  O   UNL     1       1.121   3.303  20.900  0.00  0.00    +0.000 OA
ENDBRANCH   4   8
BRANCH   1  20
ATOM     17  C   UNL     1       6.963   4.908  15.001  0.00  0.00    +0.000 A 
ATOM     18  C   UNL     1       5.695   4.589  14.545  0.00  0.00    +0.000 A 
ATOM     19  C   UNL     1       4.708   4.579  15.558  0.00  0.00    +0.000 A 
ATOM     20  C   UNL     1       4.962   4.513  16.853  0.00  0.00    +0.000 A 
ATOM     21  C   UNL     1       6.249   4.772  17.233  0.00  0.00    +0.000 A 
ATOM     22  C   UNL     1       7.246   4.923  16.299  0.00  0.00    +0.000 A 
BRANCH  17  24
ATOM     23  C   UNL     1       7.667   5.115  12.653  0.00  0.00    +0.000 C 
ATOM     24  O   UNL     1       7.902   5.353  14.033  0.00  0.00    +0.000 OA
ENDBRANCH  17  24
ENDBRANCH   1  20
BRANCH   3  25
ATOM     25  N   UNL     1       2.372   1.243  19.541  0.00  0.00    +0.000 N 
ATOM     26  H   UNL     1       1.821   0.694  18.936  0.00  0.00    +0.000 HD
ATOM     27  H   UNL     1       2.712   0.859  20.382  0.00  0.00    +0.000 HD
ENDBRANCH   3  25
BRANCH   2  28
ATOM     28  C   UNL     1       4.237   1.709  17.515  0.00  0.00    +0.000 C 
ATOM     29  N   UNL     1       4.793   0.743  16.924  0.00  0.00    +0.000 NA
ENDBRANCH   2  28
BRANCH   7  30
ATOM     30  C   UNL     1       3.582   6.661  18.144  0.00  0.00    +0.000 C 
ATOM     31  N   UNL     1       3.844   7.855  17.831  0.00  0.00    +0.000 NA
ENDBRANCH   7  30
TORSDOF 6
ENDMDL
MODEL 3
REMARK VINA RESULT:      -7.0      1.631      1.759
REMARK  Name = 
REMARK  7 active torsions:
REMARK  status: ('A' for Active; 'I' for Inactive)
REMARK    1  A    between atoms: C_1  and  O_2
REMARK    2  A    between atoms: O_2  and  C_3
REMARK    3  A    between atoms: C_6  and  C_7
REMARK    4  A    between atoms: C_8  and  C_9
REMARK    5  A    between atoms: C_11  and  N_12
REMARK    6  A    between atoms: N_13  and  C_14
REMARK    7  A    between atoms: C_25  and  C_26
REMARK                            x       y       z     vdW  Elec       q    Type
REMARK                         _______ _______ _______ _____ _____    ______ ____
ROOT
ATOM      1  C   UNL     1      -3.598  12.794  20.251  0.00  0.00    +0.000 A 
ATOM      2  C   UNL     1      -2.567  12.347  19.449  0.00  0.00    +0.000 A 
ATOM      3  C   UNL     1      -2.813  11.834  18.254  0.00  0.00    +0.000 A 
ATOM      4  N   UNL     1      -4.046  11.726  17.787  0.00  0.00    +0.000 N 
ATOM      5  C   UNL     1      -5.126  12.153  18.535  0.00  0.00    +0.000 A 
ATOM      6  S   UNL     1      -6.632  12.017  17.955  0.00  0.00    +0.000 S 
ATOM      7  C   UNL     1      -4.903  12.701  19.791  0.00  0.00    +0.000 A 
ENDROOT
BRANCH   4   8
ATOM      8  C   UNL     1      -4.270  11.143  16.456  0.00  0.00    +0.000 C 
ATOM      9  O   UNL     1      -4.270  11.143  16.456  0.00  0.00    +0.000 OA
ATOM     10  C   UNL     1      -4.270  11.143  16.456  0.00  0.00    +0.000 C 
ATOM     11  C   UNL     1      -4.270  11.143  16.456  0.00  0.00    +0.000 C 
ATOM     12  O   UNL     1      -4.270  11.143  16.456  0.00  0.00    +0.000 OA
ATOM     13  C   UNL     1      -4.270  11.143  16.456  0.00  0.00    +0.000 C 
ATOM     14  O   UNL     1      -4.270  11.143  16.456  0.00  0.00    +0.000 OA
ATOM     15  C   UNL     1      -4.270  11.143  16.456  0.00  0.00    +0.000 C 
ATOM     16  O   UNL     1      -4.270  11.143  16.456  0.00  0.00    +0.000 OA
ENDBRANCH   4   8
BRANCH   1  20
ATOM     17  C   UNL     1      -3.268  14.204  24.269  0.00  0.00    +0.000 A 
ATOM     18  C   UNL     1      -3.534  12.862  24.056  0.00  0.00    +0.000 A 
ATOM     19  C   UNL     1      -3.406  12.460  22.705  0.00  0.00    +0.000 A 
ATOM     20  C   UNL     1      -3.397  13.287  21.675  0.00  0.00    +0.000 A 
ATOM     21  C   UNL     1      -3.197  14.609  21.958  0.00  0.00    +0.000 A 
ATOM     22  C   UNL     1      -3.180  15.059  23.256  0.00  0.00    +0.000 A 
BRANCH  17  24
ATOM     23  C   UNL     1      -1.833  15.425  25.850  0.00  0.00    +0.000 C 
ATOM     24  O   UNL     1      -2.957  14.595  25.598  0.00  0.00    +0.000 OA
ENDBRANCH  17  24
ENDBRANCH   1  20
BRANCH   3  25
ATOM     25  N   UNL     1      -1.689  11.374  17.425  0.00  0.00    +0.000 N 
ATOM     26  H   UNL     1      -0.933  11.978  17.243  0.00  0.00    +0.000 HD
ATOM     27  H   UNL     1      -1.692  10.463  17.054  0.00  0.00    +0.000 HD
ENDBRANCH   3  25
BRANCH   2  28
ATOM     28  C   UNL     1      -1.133  12.444  19.945  0.00  0.00    +0.000 C 
ATOM     29  N   UNL     1       0.057  12.525  20.356  0.00  0.00    +0.000 NA
ENDBRANCH   2  28
BRANCH   7  30
ATOM     30  C   UNL     1      -6.064  13.189  20.642  0.00  0.00    +0.000 C 
ATOM     31  N   UNL     1      -7.026  13.594  21.349  0.00  0.00    +0.000 NA
ENDBRANCH   7  30
TORSDOF 6
ENDMDL
MODEL 4
REMARK VINA RESULT:      -6.9     10.897     12.469
REMARK  Name = 
REMARK  7 active torsions:
REMARK  status: ('A' for Active; 'I' for Inactive)
REMARK    1  A    between atoms: C_1  and  O_2
REMARK    2  A    between atoms: O_2  and  C_3
REMARK    3  A    between atoms: C_6  and  C_7
REMARK    4  A    between atoms: C_8  and  C_9
REMARK    5  A    between atoms: C_11  and  N_12
REMARK    6  A    between atoms: N_13  and  C_14
REMARK    7  A    between atoms: C_25  and  C_26
REMARK                            x       y       z     vdW  Elec       q    Type
REMARK                         _______ _______ _______ _____ _____    ______ ____
ROOT
ATOM      1  C   UNL     1       8.895  14.749  19.654  0.00  0.00    +0.000 A 
ATOM      2  C   UNL     1       9.237  15.545  18.579  0.00  0.00    +0.000 A 
ATOM      3  C   UNL     1      10.049  15.094  17.636  0.00  0.00    +0.000 A 
ATOM      4  N   UNL     1      10.565  13.878  17.688  0.00  0.00    +0.000 N 
ATOM      5  C   UNL     1      10.266  13.027  18.735  0.00  0.00    +0.000 A 
ATOM      6  S   UNL     1      10.903  11.539  18.790  0.00  0.00    +0.000 S 
ATOM      7  C   UNL     1       9.414  13.465  19.739  0.00  0.00    +0.000 A 
ENDROOT
BRANCH   4   8
ATOM      8  C   UNL     1      11.468  13.425  16.619  0.00  0.00    +0.000 C 
ATOM      9  O   UNL     1      11.468  13.425  16.619  0.00  0.00    +0.000 OA
ATOM     10  C   UNL     1      11.468  13.425  16.619  0.00  0.00    +0.000 C 
ATOM     11  C   UNL     1      11.468  13.425  16.619  0.00  0.00    +0.000 C 
ATOM     12  O   UNL     1      11.468  13.425  16.619  0.00  0.00    +0.000 OA
ATOM     13  C   UNL     1      11.468  13.425  16.619  0.00  0.00    +0.000 C 
ATOM     14  O   UNL     1      11.468  13.425  16.619  0.00  0.00    +0.000 OA
ATOM     15  C   UNL     1      11.468  13.425  16.619  0.00  0.00    +0.000 C 
ATOM     16  O   UNL     1      11.468  13.425  16.619  0.00  0.00    +0.000 OA
ENDBRANCH   4   8
BRANCH   1  20
ATOM     17  C   UNL     1       6.583  15.916  23.051  0.00  0.00    +0.000 A 
ATOM     18  C   UNL     1       7.962  16.018  23.118  0.00  0.00    +0.000 A 
ATOM     19  C   UNL     1       8.614  15.818  21.878  0.00  0.00    +0.000 A 
ATOM     20  C   UNL     1       8.062  15.240  20.827  0.00  0.00    +0.000 A 
ATOM     21  C   UNL     1       6.702  15.106  20.850  0.00  0.00    +0.000 A 
ATOM     22  C   UNL     1       5.982  15.405  21.982  0.00  0.00    +0.000 A 
BRANCH  17  24
ATOM     23  C   UNL     1       5.237  15.686  25.097  0.00  0.00    +0.000 C 
ATOM     24  O   UNL     1       5.841  16.506  24.107  0.00  0.00    +0.000 OA
ENDBRANCH  17  24
ENDBRANCH   1  20
BRANCH   3  25
ATOM     25  N   UNL     1      10.385  15.968  16.502  0.00  0.00    +0.000 N 
ATOM     26  H   UNL     1       9.885  16.805  16.360  0.00  0.00    +0.000 HD
ATOM     27  H   UNL     1      11.110  15.717  15.885  0.00  0.00    +0.000 HD
ENDBRANCH   3  25
BRANCH   2  28
ATOM     28  C   UNL     1       8.674  16.953  18.478  0.00  0.00    +0.000 C 
ATOM     29  N   UNL     1       8.207  18.122  18.396  0.00  0.00    +0.000 NA
ENDBRANCH   2  28
BRANCH   7  30
ATOM     30  C   UNL     1       9.055  12.557  20.903  0.00  0.00    +0.000 C 
ATOM     31  N   UNL     1       8.758  11.803  21.870  0.00  0.00    +0.000 NA
ENDBRANCH   7  30
TORSDOF 6
ENDMDL
MODEL 5
REMARK VINA RESULT:      -6.8      1.087      2.808
REMARK  Name = 
REMARK  7 active torsions:
REMARK  status: ('A' for Active; 'I' for Inactive)
REMARK    1  A    between atoms: C_1  and  O_2
REMARK    2  A    between atoms: O_2  and  C_3
REMARK    3  A    between atoms: C_6  and  C_7
REMARK    4  A    between atoms: C_8  and  C_9
REMARK    5  A    between atoms: C_11  and  N_12
REMARK    6  A    between atoms: N_13  and  C_14
REMARK    7  A    between atoms: C_25  and  C_26
REMARK                            x       y       z     vdW  Elec       q    Type
REMARK                         _______ _______ _______ _____ _____    ______ ____
ROOT
ATOM      1  C   UNL     1      -2.610  12.087  20.245  0.00  0.00    +0.000 A 
ATOM      2  C   UNL     1      -3.645  12.030  19.332  0.00  0.00    +0.000 A 
ATOM      3  C   UNL     1      -3.501  11.386  18.185  0.00  0.00    +0.000 A 
ATOM      4  N   UNL     1      -2.368  10.782  17.868  0.00  0.00    +0.000 N 
ATOM      5  C   UNL     1      -1.291  10.798  18.733  0.00  0.00    +0.000 A 
ATOM      6  S   UNL     1       0.092  10.055  18.335  0.00  0.00    +0.000 S 
ATOM      7  C   UNL     1      -1.409  11.460  19.947  0.00  0.00    +0.000 A 
ENDROOT
BRANCH   4   8
ATOM      8  C   UNL     1      -2.254  10.084  16.578  0.00  0.00    +0.000 C 
ATOM      9  O   UNL     1      -2.254  10.084  16.578  0.00  0.00    +0.000 OA
ATOM     10  C   UNL     1      -2.254  10.084  16.578  0.00  0.00    +0.000 C 
ATOM     11  C   UNL     1      -2.254  10.084  16.578  0.00  0.00    +0.000 C 
ATOM     12  O   UNL     1      -2.254  10.084  16.578  0.00  0.00    +0.000 OA
ATOM     13  C   UNL     1      -2.254  10.084  16.578  0.00  0.00    +0.000 C 
ATOM     14  O   UNL     1      -2.254  10.084  16.578  0.00  0.00    +0.000 OA
ATOM     15  C   UNL     1      -2.254  10.084  16.578  0.00  0.00    +0.000 C 
ATOM     16  O   UNL     1      -2.254  10.084  16.578  0.00  0.00    +0.000 OA
ENDBRANCH   4   8
BRANCH   1  20
ATOM     17  C   UNL     1      -2.999  14.431  23.795  0.00  0.00    +0.000 A 
ATOM     18  C   UNL     1      -3.423  13.112  23.818  0.00  0.00    +0.000 A 
ATOM     19  C   UNL     1      -3.051  12.370  22.673  0.00  0.00    +0.000 A 
ATOM     20  C   UNL     1      -2.669  12.903  21.526  0.00  0.00    +0.000 A 
ATOM     21  C   UNL     1      -2.328  14.226  21.554  0.00  0.00    +0.000 A 
ATOM     22  C   UNL     1      -2.540  14.987  22.679  0.00  0.00    +0.000 A 
BRANCH  17  24
ATOM     23  C   UNL     1      -1.692  15.458  25.607  0.00  0.00    +0.000 C 
ATOM     24  O   UNL     1      -2.946  15.112  25.039  0.00  0.00    +0.000 OA
ENDBRANCH  17  24
ENDBRANCH   1  20
BRANCH   3  25
ATOM     25  N   UNL     1      -4.627  11.341  17.241  0.00  0.00    +0.000 N 
ATOM     26  H   UNL     1      -4.699  10.600  16.597  0.00  0.00    +0.000 HD
ATOM     27  H   UNL     1      -5.309  12.050  17.255  0.00  0.00    +0.000 HD
ENDBRANCH   3  25
BRANCH   2  28
ATOM     28  C   UNL     1      -4.965  12.716  19.650  0.00  0.00    +0.000 C 
ATOM     29  N   UNL     1      -6.059  13.285  19.913  0.00  0.00    +0.000 NA
ENDBRANCH   2  28
BRANCH   7  30
ATOM     30  C   UNL     1      -0.250  11.495  20.929  0.00  0.00    +0.000 C 
ATOM     31  N   UNL     1       0.713  11.525  21.743  0.00  0.00    +0.000 NA
ENDBRANCH   7  30
TORSDOF 6
ENDMDL
MODEL 6
REMARK VINA RESULT:      -6.8      1.390      3.060
REMARK  Name = 
REMARK  7 active torsions:
REMARK  status: ('A' for Active; 'I' for Inactive)
REMARK    1  A    between atoms: C_1  and  O_2
REMARK    2  A    between atoms: O_2  and  C_3
REMARK    3  A    between atoms: C_6  and  C_7
REMARK    4  A    between atoms: C_8  and  C_9
REMARK    5  A    between atoms: C_11  and  N_12
REMARK    6  A    between atoms: N_13  and  C_14
REMARK    7  A    between atoms: C_25  and  C_26
REMARK                            x       y       z     vdW  Elec       q    Type
REMARK                         _______ _______ _______ _____ _____    ______ ____
ROOT
ATOM      1  C   UNL     1      -3.045  12.276  20.141  0.00  0.00    +0.000 A 
ATOM      2  C   UNL     1      -3.981  12.045  19.152  0.00  0.00    +0.000 A 
ATOM      3  C   UNL     1      -3.675  11.318  18.089  0.00  0.00    +0.000 A 
ATOM      4  N   UNL     1      -2.472  10.793  17.930  0.00  0.00    +0.000 N 
ATOM      5  C   UNL     1      -1.487  10.983  18.880  0.00  0.00    +0.000 A 
ATOM      6  S   UNL     1      -0.016  10.336  18.677  0.00  0.00    +0.000 S 
ATOM      7  C   UNL     1      -1.774  11.735  20.010  0.00  0.00    +0.000 A 
ENDROOT
BRANCH   4   8
ATOM      8  C   UNL     1      -2.179   9.998  16.728  0.00  0.00    +0.000 C 
ATOM      9  O   UNL     1      -2.179   9.998  16.728  0.00  0.00    +0.000 OA
ATOM     10  C   UNL     1      -2.179   9.998  16.728  0.00  0.00    +0.000 C 
ATOM     11  C   UNL     1      -2.179   9.998  16.728  0.00  0.00    +0.000 C 
ATOM     12  O   UNL     1      -2.179   9.998  16.728  0.00  0.00    +0.000 OA
ATOM     13  C   UNL     1      -2.179   9.998  16.728  0.00  0.00    +0.000 C 
ATOM     14  O   UNL     1      -2.179   9.998  16.728  0.00  0.00    +0.000 OA
ATOM     15  C   UNL     1      -2.179   9.998  16.728  0.00  0.00    +0.000 C 
ATOM     16  O   UNL     1      -2.179   9.998  16.728  0.00  0.00    +0.000 OA
ENDBRANCH   4   8
BRANCH   1  20
ATOM     17  C   UNL     1      -3.513  14.812  23.545  0.00  0.00    +0.000 A 
ATOM     18  C   UNL     1      -2.967  15.345  22.389  0.00  0.00    +0.000 A 
ATOM     19  C   UNL     1      -3.058  14.490  21.265  0.00  0.00    +0.000 A 
ATOM     20  C   UNL     1      -3.291  13.192  21.329  0.00  0.00    +0.000 A 
ATOM     21  C   UNL     1      -3.766  12.716  22.519  0.00  0.00    +0.000 A 
ATOM     22  C   UNL     1      -3.829  13.525  23.628  0.00  0.00    +0.000 A 
BRANCH  17  24
ATOM     23  C   UNL     1      -5.022  16.518  24.474  0.00  0.00    +0.000 C 
ATOM     24  O   UNL     1      -3.849  15.726  24.579  0.00  0.00    +0.000 OA
ENDBRANCH  17  24
ENDBRANCH   1  20
BRANCH   3  25
ATOM     25  N   UNL     1      -4.700  11.088  17.059  0.00  0.00    +0.000 N 
ATOM     26  H   UNL     1      -4.853  10.179  16.712  0.00  0.00    +0.000 HD
ATOM     27  H   UNL     1      -5.232  11.842  16.718  0.00  0.00    +0.000 HD
ENDBRANCH   3  25
BRANCH   2  28
ATOM     28  C   UNL     1      -5.376  12.633  19.286  0.00  0.00    +0.000 C 
ATOM     29  N   UNL     1      -6.533  13.123  19.398  0.00  0.00    +0.000 NA
ENDBRANCH   2  28
BRANCH   7  30
ATOM     30  C   UNL     1      -0.720  11.961  21.081  0.00  0.00    +0.000 C 
ATOM     31  N   UNL     1       0.155  12.148  21.970  0.00  0.00    +0.000 NA
ENDBRANCH   7  30
TORSDOF 6
ENDMDL
MODEL 7
REMARK VINA RESULT:      -6.8      1.909      3.491
REMARK  Name = 
REMARK  7 active torsions:
REMARK  status: ('A' for Active; 'I' for Inactive)
REMARK    1  A    between atoms: C_1  and  O_2
REMARK    2  A    between atoms: O_2  and  C_3
REMARK    3  A    between atoms: C_6  and  C_7
REMARK    4  A    between atoms: C_8  and  C_9
REMARK    5  A    between atoms: C_11  and  N_12
REMARK    6  A    between atoms: N_13  and  C_14
REMARK    7  A    between atoms: C_25  and  C_26
REMARK                            x       y       z     vdW  Elec       q    Type
REMARK                         _______ _______ _______ _____ _____    ______ ____
ROOT
ATOM      1  C   UNL     1      -3.929  12.692  20.518  0.00  0.00    +0.000 A 
ATOM      2  C   UNL     1      -5.158  12.720  19.890  0.00  0.00    +0.000 A 
ATOM      3  C   UNL     1      -5.294  12.276  18.650  0.00  0.00    +0.000 A 
ATOM      4  N   UNL     1      -4.267  11.797  17.969  0.00  0.00    +0.000 N 
ATOM      5  C   UNL     1      -3.008  11.739  18.535  0.00  0.00    +0.000 A 
ATOM      6  S   UNL     1      -1.756  11.151  17.692  0.00  0.00    +0.000 S 
ATOM      7  C   UNL     1      -2.830  12.191  19.834  0.00  0.00    +0.000 A 
ENDROOT
BRANCH   4   8
ATOM      8  C   UNL     1      -4.467  11.321  16.592  0.00  0.00    +0.000 C 
ATOM      9  O   UNL     1      -4.467  11.321  16.592  0.00  0.00    +0.000 OA
ATOM     10  C   UNL     1      -4.467  11.321  16.592  0.00  0.00    +0.000 C 
ATOM     11  C   UNL     1      -4.467  11.321  16.592  0.00  0.00    +0.000 C 
ATOM     12  O   UNL     1      -4.467  11.321  16.592  0.00  0.00    +0.000 OA
ATOM     13  C   UNL     1      -4.467  11.321  16.592  0.00  0.00    +0.000 C 
ATOM     14  O   UNL     1      -4.467  11.321  16.592  0.00  0.00    +0.000 OA
ATOM     15  C   UNL     1      -4.467  11.321  16.592  0.00  0.00    +0.000 C 
ATOM     16  O   UNL     1      -4.467  11.321  16.592  0.00  0.00    +0.000 OA
ENDBRANCH   4   8
BRANCH   1  20
ATOM     17  C   UNL     1      -2.998  14.302  24.363  0.00  0.00    +0.000 A 
ATOM     18  C   UNL     1      -2.759  15.079  23.242  0.00  0.00    +0.000 A 
ATOM     19  C   UNL     1      -3.301  14.545  22.048  0.00  0.00    +0.000 A 
ATOM     20  C   UNL     1      -3.678  13.289  21.893  0.00  0.00    +0.000 A 
ATOM     21  C   UNL     1      -3.830  12.554  23.036  0.00  0.00    +0.000 A 
ATOM     22  C   UNL     1      -3.445  13.056  24.255  0.00  0.00    +0.000 A 
BRANCH  17  24
ATOM     23  C   UNL     1      -1.656  15.561  25.995  0.00  0.00    +0.000 C 
ATOM     24  O   UNL     1      -2.878  14.941  25.626  0.00  0.00    +0.000 OA
ENDBRANCH  17  24
ENDBRANCH   1  20
BRANCH   3  25
ATOM     25  N   UNL     1      -6.621  12.315  18.016  0.00  0.00    +0.000 N 
ATOM     26  H   UNL     1      -6.841  11.680  17.297  0.00  0.00    +0.000 HD
ATOM     27  H   UNL     1      -7.288  12.975  18.312  0.00  0.00    +0.000 HD
ENDBRANCH   3  25
BRANCH   2  28
ATOM     28  C   UNL     1      -6.367  13.268  20.630  0.00  0.00    +0.000 C 
ATOM     29  N   UNL     1      -7.371  13.722  21.245  0.00  0.00    +0.000 NA
ENDBRANCH   2  28
BRANCH   7  30
ATOM     30  C   UNL     1      -1.462  12.138  20.495  0.00  0.00    +0.000 C 
ATOM     31  N   UNL     1      -0.328  12.093  21.043  0.00  0.00    +0.000 NA
ENDBRANCH   7  30
TORSDOF 6
ENDMDL
MODEL 8
REMARK VINA RESULT:      -6.8      2.956      3.719
REMARK  Name = 
REMARK  7 active torsions:
REMARK  status: ('A' for Active; 'I' for Inactive)
REMARK    1  A    between atoms: C_1  and  O_2
REMARK    2  A    between atoms: O_2  and  C_3
REMARK    3  A    between atoms: C_6  and  C_7
REMARK    4  A    between atoms: C_8  and  C_9
REMARK    5  A    between atoms: C_11  and  N_12
REMARK    6  A    between atoms: N_13  and  C_14
REMARK    7  A    between atoms: C_25  and  C_26
REMARK                            x       y       z     vdW  Elec       q    Type
REMARK                         _______ _______ _______ _____ _____    ______ ____
ROOT
ATOM      1  C   UNL     1      -4.141  12.852  20.997  0.00  0.00    +0.000 A 
ATOM      2  C   UNL     1      -3.754  12.410  19.747  0.00  0.00    +0.000 A 
ATOM      3  C   UNL     1      -4.609  11.779  18.958  0.00  0.00    +0.000 A 
ATOM      4  N   UNL     1      -5.855  11.545  19.334  0.00  0.00    +0.000 N 
ATOM      5  C   UNL     1      -6.311  11.959  20.571  0.00  0.00    +0.000 A 
ATOM      6  S   UNL     1      -7.839  11.667  21.023  0.00  0.00    +0.000 S 
ATOM      7  C   UNL     1      -5.442  12.628  21.422  0.00  0.00    +0.000 A 
ENDROOT
BRANCH   4   8
ATOM      8  C   UNL     1      -6.767  10.835  18.425  0.00  0.00    +0.000 C 
ATOM      9  O   UNL     1      -6.767  10.835  18.425  0.00  0.00    +0.000 OA
ATOM     10  C   UNL     1      -6.767  10.835  18.425  0.00  0.00    +0.000 C 
ATOM     11  C   UNL     1      -6.767  10.835  18.425  0.00  0.00    +0.000 C 
ATOM     12  O   UNL     1      -6.767  10.835  18.425  0.00  0.00    +0.000 OA
ATOM     13  C   UNL     1      -6.767  10.835  18.425  0.00  0.00    +0.000 C 
ATOM     14  O   UNL     1      -6.767  10.835  18.425  0.00  0.00    +0.000 OA
ATOM     15  C   UNL     1      -6.767  10.835  18.425  0.00  0.00    +0.000 C 
ATOM     16  O   UNL     1      -6.767  10.835  18.425  0.00  0.00    +0.000 OA
ENDBRANCH   4   8
BRANCH   1  20
ATOM     17  C   UNL     1      -1.279  14.607  23.638  0.00  0.00    +0.000 A 
ATOM     18  C   UNL     1      -1.959  15.428  22.754  0.00  0.00    +0.000 A 
ATOM     19  C   UNL     1      -3.029  14.789  22.085  0.00  0.00    +0.000 A 
ATOM     20  C   UNL     1      -3.182  13.480  21.996  0.00  0.00    +0.000 A 
ATOM     21  C   UNL     1      -2.432  12.720  22.850  0.00  0.00    +0.000 A 
ATOM     22  C   UNL     1      -1.456  13.291  23.631  0.00  0.00    +0.000 A 
BRANCH  17  24
ATOM     23  C   UNL     1      -1.109  15.690  25.840  0.00  0.00    +0.000 C 
ATOM     24  O   UNL     1      -0.499  15.245  24.638  0.00  0.00    +0.000 OA
ENDBRANCH  17  24
ENDBRANCH   1  20
BRANCH   3  25
ATOM     25  N   UNL     1      -4.163  11.330  17.631  0.00  0.00    +0.000 N 
ATOM     26  H   UNL     1      -4.544  10.512  17.235  0.00  0.00    +0.000 HD
ATOM     27  H   UNL     1      -3.486  11.846  17.139  0.00  0.00    +0.000 HD
ENDBRANCH   3  25
BRANCH   2  28
ATOM     28  C   UNL     1      -2.329  12.650  19.273  0.00  0.00    +0.000 C 
ATOM     29  N   UNL     1      -1.147  12.850  18.881  0.00  0.00    +0.000 NA
ENDBRANCH   2  28
BRANCH   7  30
ATOM     30  C   UNL     1      -5.907  13.106  22.787  0.00  0.00    +0.000 C 
ATOM     31  N   UNL     1      -6.292  13.502  23.921  0.00  0.00    +0.000 NA
ENDBRANCH   7  30
TORSDOF 6
ENDMDL
MODEL 9
REMARK VINA RESULT:      -6.8      2.820      4.327
REMARK  Name = 
REMARK  7 active torsions:
REMARK  status: ('A' for Active; 'I' for Inactive)
REMARK    1  A    between atoms: C_1  and  O_2
REMARK    2  A    between atoms: O_2  and  C_3
REMARK    3  A    between atoms: C_6  and  C_7
REMARK    4  A    between atoms: C_8  and  C_9
REMARK    5  A    between atoms: C_11  and  N_12
REMARK    6  A    between atoms: N_13  and  C_14
REMARK    7  A    between atoms: C_25  and  C_26
REMARK                            x       y       z     vdW  Elec       q    Type
REMARK                         _______ _______ _______ _____ _____    ______ ____
ROOT
ATOM      1  C   UNL     1      -4.165  12.741  21.079  0.00  0.00    +0.000 A 
ATOM      2  C   UNL     1      -5.499  12.528  21.366  0.00  0.00    +0.000 A 
ATOM      3  C   UNL     1      -6.305  11.985  20.467  0.00  0.00    +0.000 A 
ATOM      4  N   UNL     1      -5.871  11.632  19.269  0.00  0.00    +0.000 N 
ATOM      5  C   UNL     1      -4.548  11.816  18.914  0.00  0.00    +0.000 A 
ATOM      6  S   UNL     1      -4.025  11.381  17.444  0.00  0.00    +0.000 S 
ATOM      7  C   UNL     1      -3.673  12.378  19.833  0.00  0.00    +0.000 A 
ENDROOT
BRANCH   4   8
ATOM      8  C   UNL     1      -6.806  11.039  18.303  0.00  0.00    +0.000 C 
ATOM      9  O   UNL     1      -6.806  11.039  18.303  0.00  0.00    +0.000 OA
ATOM     10  C   UNL     1      -6.806  11.039  18.303  0.00  0.00    +0.000 C 
ATOM     11  C   UNL     1      -6.806  11.039  18.303  0.00  0.00    +0.000 C 
ATOM     12  O   UNL     1      -6.806  11.039  18.303  0.00  0.00    +0.000 OA
ATOM     13  C   UNL     1      -6.806  11.039  18.303  0.00  0.00    +0.000 C 
ATOM     14  O   UNL     1      -6.806  11.039  18.303  0.00  0.00    +0.000 OA
ATOM     15  C   UNL     1      -6.806  11.039  18.303  0.00  0.00    +0.000 C 
ATOM     16  O   UNL     1      -6.806  11.039  18.303  0.00  0.00    +0.000 OA
ENDBRANCH   4   8
BRANCH   1  20
ATOM     17  C   UNL     1      -1.320  14.752  23.551  0.00  0.00    +0.000 A 
ATOM     18  C   UNL     1      -2.043  15.493  22.630  0.00  0.00    +0.000 A 
ATOM     19  C   UNL     1      -3.102  14.778  22.023  0.00  0.00    +0.000 A 
ATOM     20  C   UNL     1      -3.211  13.462  22.019  0.00  0.00    +0.000 A 
ATOM     21  C   UNL     1      -2.421  12.782  22.903  0.00  0.00    +0.000 A 
ATOM     22  C   UNL     1      -1.452  13.433  23.628  0.00  0.00    +0.000 A 
BRANCH  17  24
ATOM     23  C   UNL     1      -1.044  15.697  25.804  0.00  0.00    +0.000 C 
ATOM     24  O   UNL     1      -0.545  15.477  24.494  0.00  0.00    +0.000 OA
ENDBRANCH  17  24
ENDBRANCH   1  20
BRANCH   3  25
ATOM     25  N   UNL     1      -7.718  11.767  20.811  0.00  0.00    +0.000 N 
ATOM     26  H   UNL     1      -8.314  12.538  20.954  0.00  0.00    +0.000 HD
ATOM     27  H   UNL     1      -8.068  10.851  20.897  0.00  0.00    +0.000 HD
ENDBRANCH   3  25
BRANCH   2  28
ATOM     28  C   UNL     1      -6.046  12.923  22.728  0.00  0.00    +0.000 C 
ATOM     29  N   UNL     1      -6.500  13.251  23.858  0.00  0.00    +0.000 NA
ENDBRANCH   2  28
BRANCH   7  30
ATOM     30  C   UNL     1      -2.210  12.590  19.483  0.00  0.00    +0.000 C 
ATOM     31  N   UNL     1      -0.995  12.766  19.194  0.00  0.00    +0.000 NA
ENDBRANCH   7  30
TORSDOF 6
ENDMDL
