MODEL 1
REMARK VINA RESULT:      -9.3      0.000      0.000
REMARK  Name = 
REMARK  7 active torsions:
REMARK  status: ('A' for Active; 'I' for Inactive)
REMARK    1  A    between atoms: O_1  and  C_2
REMARK    2  A    between atoms: C_5  and  C_6
REMARK    3  A    between atoms: C_7  and  C_8
REMARK    4  A    between atoms: C_10  and  C_11
REMARK    5  A    between atoms: C_16  and  O_17
REMARK    6  A    between atoms: N_18  and  C_19
REMARK    7  A    between atoms: C_26  and  O_27
REMARK                            x       y       z     vdW  Elec       q    Type
REMARK                         _______ _______ _______ _____ _____    ______ ____
ROOT
ATOM      1  C   UNL     1       7.301   7.256  17.448  0.00  0.00    +0.000 A 
ATOM      2  N   UNL     1       7.611   6.674  16.250  0.00  0.00    +0.000 NA
ATOM      3  C   UNL     1       6.660   5.769  16.053  0.00  0.00    +0.000 A 
ATOM      4  N   UNL     1       5.842   5.764  17.189  0.00  0.00    +0.000 N 
ATOM      5  N   UNL     1       6.178   6.801  18.004  0.00  0.00    +0.000 NA
ENDROOT
BRANCH   3   6
ATOM      6  C   UNL     1       6.443   5.012  14.795  0.00  0.00    +0.000 A 
ATOM      7  C   UNL     1       5.278   4.240  14.601  0.00  0.00    +0.000 A 
ATOM      8  C   UNL     1       5.085   3.465  13.453  0.00  0.00    +0.000 A 
ATOM      9  C   UNL     1       6.014   3.514  12.423  0.00  0.00    +0.000 A 
ATOM     10  C   UNL     1       7.138   4.327  12.549  0.00  0.00    +0.000 A 
ATOM     11  C   UNL     1       7.355   5.056  13.727  0.00  0.00    +0.000 A 
BRANCH  11  12
ATOM     12  O   UNL     1       8.496   5.804  13.825  0.00  0.00    +0.000 OA
ATOM     13  H   UNL     1       8.302   6.627  14.300  0.00  0.00    +0.000 HD
ENDBRANCH  11  12
ENDBRANCH   3   6
BRANCH   4  14
ATOM     14  C   UNL     1       4.744   4.924  17.521  0.00  0.00    +0.000 A 
ATOM     15  C   UNL     1       4.915   3.546  17.717  0.00  0.00    +0.000 A 
ATOM     16  C   UNL     1       3.798   2.717  17.847  0.00  0.00    +0.000 A 
ATOM     17  C   UNL     1       2.515   3.261  17.807  0.00  0.00    +0.000 A 
ATOM     18  C   UNL     1       2.345   4.641  17.685  0.00  0.00    +0.000 A 
ATOM     19  C   UNL     1       3.456   5.478  17.563  0.00  0.00    +0.000 A 
ENDBRANCH   4  14
BRANCH   1  21
ATOM     20  C   UNL     1       7.984   9.609  17.767  0.00  0.00    +0.000 C 
ATOM     21  C   UNL     1       8.131   8.289  17.993  0.00  0.00    +0.000 C 
BRANCH  20  25
ATOM     22  C   UNL     1      10.580  12.755  19.142  0.00  0.00    +0.000 A 
ATOM     23  C   UNL     1      10.726  11.468  19.647  0.00  0.00    +0.000 A 
ATOM     24  C   UNL     1       9.855  10.450  19.226  0.00  0.00    +0.000 A 
ATOM     25  C   UNL     1       8.826  10.704  18.302  0.00  0.00    +0.000 A 
ATOM     26  C   UNL     1       8.703  12.022  17.821  0.00  0.00    +0.000 A 
ATOM     27  C   UNL     1       9.572  13.035  18.233  0.00  0.00    +0.000 A 
BRANCH  22  28
ATOM     28  O   UNL     1      11.410  13.770  19.506  0.00  0.00    +0.000 OA
ATOM     29  H   UNL     1      11.320  14.494  18.867  0.00  0.00    +0.000 HD
ENDBRANCH  22  28
BRANCH  26  30
ATOM     30  O   UNL     1       7.736  12.407  16.928  0.00  0.00    +0.000 OA
ATOM     31  H   UNL     1       7.957  13.292  16.594  0.00  0.00    +0.000 HD
ENDBRANCH  26  30
ENDBRANCH  20  25
ENDBRANCH   1  21
TORSDOF 7
ENDMDL
MODEL 2
REMARK VINA RESULT:      -9.1      5.214      7.174
REMARK  Name = 
REMARK  7 active torsions:
REMARK  status: ('A' for Active; 'I' for Inactive)
REMARK    1  A    between atoms: O_1  and  C_2
REMARK    2  A    between atoms: C_5  and  C_6
REMARK    3  A    between atoms: C_7  and  C_8
REMARK    4  A    between atoms: C_10  and  C_11
REMARK    5  A    between atoms: C_16  and  O_17
REMARK    6  A    between atoms: N_18  and  C_19
REMARK    7  A    between atoms: C_26  and  O_27
REMARK                            x       y       z     vdW  Elec       q    Type
REMARK                         _______ _______ _______ _____ _____    ______ ____
ROOT
ATOM      1  C   UNL     1       2.681   8.070  17.866  0.00  0.00    +0.000 A 
ATOM      2  N   UNL     1       1.903   7.041  18.321  0.00  0.00    +0.000 NA
ATOM      3  C   UNL     1       2.657   5.957  18.190  0.00  0.00    +0.000 A 
ATOM      4  N   UNL     1       3.851   6.348  17.571  0.00  0.00    +0.000 N 
ATOM      5  N   UNL     1       3.909   7.706  17.494  0.00  0.00    +0.000 NA
ENDROOT
BRANCH   3   6
ATOM      6  C   UNL     1       2.333   4.614  18.733  0.00  0.00    +0.000 A 
ATOM      7  C   UNL     1       2.118   3.515  17.876  0.00  0.00    +0.000 A 
ATOM      8  C   UNL     1       1.745   2.258  18.362  0.00  0.00    +0.000 A 
ATOM      9  C   UNL     1       1.665   2.043  19.730  0.00  0.00    +0.000 A 
ATOM     10  C   UNL     1       1.946   3.088  20.608  0.00  0.00    +0.000 A 
ATOM     11  C   UNL     1       2.263   4.362  20.113  0.00  0.00    +0.000 A 
BRANCH  11  12
ATOM     12  O   UNL     1       2.485   5.369  21.011  0.00  0.00    +0.000 OA
ATOM     13  H   UNL     1       2.467   5.007  21.912  0.00  0.00    +0.000 HD
ENDBRANCH  11  12
ENDBRANCH   3   6
BRANCH   4  14
ATOM     14  C   UNL     1       4.951   5.562  17.128  0.00  0.00    +0.000 A 
ATOM     15  C   UNL     1       6.036   5.288  17.973  0.00  0.00    +0.000 A 
ATOM     16  C   UNL     1       7.186   4.686  17.457  0.00  0.00    +0.000 A 
ATOM     17  C   UNL     1       7.245   4.333  16.109  0.00  0.00    +0.000 A 
ATOM     18  C   UNL     1       6.139   4.539  15.283  0.00  0.00    +0.000 A 
ATOM     19  C   UNL     1       4.983   5.134  15.794  0.00  0.00    +0.000 A 
ENDBRANCH   4  14
BRANCH   1  21
ATOM     20  C   UNL     1       1.457   9.988  18.828  0.00  0.00    +0.000 C 
ATOM     21  C   UNL     1       2.179   9.412  17.848  0.00  0.00    +0.000 C 
BRANCH  20  25
ATOM     22  C   UNL     1      -0.138  13.981  18.632  0.00  0.00    +0.000 A 
ATOM     23  C   UNL     1       1.238  13.788  18.665  0.00  0.00    +0.000 A 
ATOM     24  C   UNL     1       1.758  12.487  18.768  0.00  0.00    +0.000 A 
ATOM     25  C   UNL     1       0.912  11.366  18.842  0.00  0.00    +0.000 A 
ATOM     26  C   UNL     1      -0.476  11.603  18.816  0.00  0.00    +0.000 A 
ATOM     27  C   UNL     1      -0.995  12.894  18.708  0.00  0.00    +0.000 A 
BRANCH  22  28
ATOM     28  O   UNL     1      -0.689  15.221  18.516  0.00  0.00    +0.000 OA
ATOM     29  H   UNL     1      -1.602  15.190  18.842  0.00  0.00    +0.000 HD
ENDBRANCH  22  28
BRANCH  26  30
ATOM     30  O   UNL     1      -1.409  10.601  18.894  0.00  0.00    +0.000 OA
ATOM     31  H   UNL     1      -1.175  10.016  19.632  0.00  0.00    +0.000 HD
ENDBRANCH  26  30
ENDBRANCH  20  25
ENDBRANCH   1  21
TORSDOF 7
ENDMDL
MODEL 3
REMARK VINA RESULT:      -9.1      1.256      3.681
REMARK  Name = 
REMARK  7 active torsions:
REMARK  status: ('A' for Active; 'I' for Inactive)
REMARK    1  A    between atoms: O_1  and  C_2
REMARK    2  A    between atoms: C_5  and  C_6
REMARK    3  A    between atoms: C_7  and  C_8
REMARK    4  A    between atoms: C_10  and  C_11
REMARK    5  A    between atoms: C_16  and  O_17
REMARK    6  A    between atoms: N_18  and  C_19
REMARK    7  A    between atoms: C_26  and  O_27
REMARK                            x       y       z     vdW  Elec       q    Type
REMARK                         _______ _______ _______ _____ _____    ______ ____
ROOT
ATOM      1  C   UNL     1       7.426   7.439  17.524  0.00  0.00    +0.000 A 
ATOM      2  N   UNL     1       6.272   7.071  18.158  0.00  0.00    +0.000 NA
ATOM      3  C   UNL     1       5.776   6.085  17.421  0.00  0.00    +0.000 A 
ATOM      4  N   UNL     1       6.604   5.940  16.300  0.00  0.00    +0.000 N 
ATOM      5  N   UNL     1       7.717   6.709  16.446  0.00  0.00    +0.000 NA
ENDROOT
BRANCH   3   6
ATOM      6  C   UNL     1       4.633   5.219  17.802  0.00  0.00    +0.000 A 
ATOM      7  C   UNL     1       3.306   5.583  17.490  0.00  0.00    +0.000 A 
ATOM      8  C   UNL     1       2.211   4.816  17.900  0.00  0.00    +0.000 A 
ATOM      9  C   UNL     1       2.419   3.611  18.556  0.00  0.00    +0.000 A 
ATOM     10  C   UNL     1       3.720   3.183  18.811  0.00  0.00    +0.000 A 
ATOM     11  C   UNL     1       4.812   3.984  18.450  0.00  0.00    +0.000 A 
BRANCH  11  12
ATOM     12  O   UNL     1       6.069   3.546  18.763  0.00  0.00    +0.000 OA
ATOM     13  H   UNL     1       6.110   2.582  18.654  0.00  0.00    +0.000 HD
ENDBRANCH  11  12
ENDBRANCH   3   6
BRANCH   4  14
ATOM     14  C   UNL     1       6.467   5.092  15.167  0.00  0.00    +0.000 A 
ATOM     15  C   UNL     1       7.449   5.053  14.166  0.00  0.00    +0.000 A 
ATOM     16  C   UNL     1       7.202   4.366  12.975  0.00  0.00    +0.000 A 
ATOM     17  C   UNL     1       5.992   3.699  12.790  0.00  0.00    +0.000 A 
ATOM     18  C   UNL     1       5.044   3.677  13.814  0.00  0.00    +0.000 A 
ATOM     19  C   UNL     1       5.286   4.354  15.011  0.00  0.00    +0.000 A 
ENDBRANCH   4  14
BRANCH   1  21
ATOM     20  C   UNL     1       8.111   9.805  17.721  0.00  0.00    +0.000 C 
ATOM     21  C   UNL     1       8.236   8.502  18.042  0.00  0.00    +0.000 C 
BRANCH  20  25
ATOM     22  C   UNL     1      10.644  13.041  19.000  0.00  0.00    +0.000 A 
ATOM     23  C   UNL     1      10.862  11.759  19.490  0.00  0.00    +0.000 A 
ATOM     24  C   UNL     1      10.012  10.710  19.102  0.00  0.00    +0.000 A 
ATOM     25  C   UNL     1       8.935  10.929  18.225  0.00  0.00    +0.000 A 
ATOM     26  C   UNL     1       8.740  12.244  17.759  0.00  0.00    +0.000 A 
ATOM     27  C   UNL     1       9.587  13.287  18.139  0.00  0.00    +0.000 A 
BRANCH  22  28
ATOM     28  O   UNL     1      11.451  14.086  19.334  0.00  0.00    +0.000 OA
ATOM     29  H   UNL     1      11.067  14.904  18.981  0.00  0.00    +0.000 HD
ENDBRANCH  22  28
BRANCH  26  30
ATOM     30  O   UNL     1       7.720  12.596  16.912  0.00  0.00    +0.000 OA
ATOM     31  H   UNL     1       8.082  12.698  16.017  0.00  0.00    +0.000 HD
ENDBRANCH  26  30
ENDBRANCH  20  25
ENDBRANCH   1  21
TORSDOF 7
ENDMDL
MODEL 4
REMARK VINA RESULT:      -9.0      5.189      7.244
REMARK  Name = 
REMARK  7 active torsions:
REMARK  status: ('A' for Active; 'I' for Inactive)
REMARK    1  A    between atoms: O_1  and  C_2
REMARK    2  A    between atoms: C_5  and  C_6
REMARK    3  A    between atoms: C_7  and  C_8
REMARK    4  A    between atoms: C_10  and  C_11
REMARK    5  A    between atoms: C_16  and  O_17
REMARK    6  A    between atoms: N_18  and  C_19
REMARK    7  A    between atoms: C_26  and  O_27
REMARK                            x       y       z     vdW  Elec       q    Type
REMARK                         _______ _______ _______ _____ _____    ______ ____
ROOT
ATOM      1  C   UNL     1       2.618   8.075  17.958  0.00  0.00    +0.000 A 
ATOM      2  N   UNL     1       1.980   6.921  18.319  0.00  0.00    +0.000 NA
ATOM      3  C   UNL     1       2.847   5.952  18.050  0.00  0.00    +0.000 A 
ATOM      4  N   UNL     1       3.964   6.543  17.446  0.00  0.00    +0.000 N 
ATOM      5  N   UNL     1       3.864   7.898  17.516  0.00  0.00    +0.000 NA
ENDROOT
BRANCH   3   6
ATOM      6  C   UNL     1       2.698   4.531  18.451  0.00  0.00    +0.000 A 
ATOM      7  C   UNL     1       2.634   3.505  17.486  0.00  0.00    +0.000 A 
ATOM      8  C   UNL     1       2.426   2.167  17.839  0.00  0.00    +0.000 A 
ATOM      9  C   UNL     1       2.367   1.808  19.178  0.00  0.00    +0.000 A 
ATOM     10  C   UNL     1       2.504   2.787  20.159  0.00  0.00    +0.000 A 
ATOM     11  C   UNL     1       2.654   4.134  19.799  0.00  0.00    +0.000 A 
BRANCH  11  12
ATOM     12  O   UNL     1       2.737   5.066  20.796  0.00  0.00    +0.000 OA
ATOM     13  H   UNL     1       1.867   5.169  21.214  0.00  0.00    +0.000 HD
ENDBRANCH  11  12
ENDBRANCH   3   6
BRANCH   4  14
ATOM     14  C   UNL     1       5.127   5.942  16.890  0.00  0.00    +0.000 A 
ATOM     15  C   UNL     1       5.218   5.665  15.519  0.00  0.00    +0.000 A 
ATOM     16  C   UNL     1       6.280   4.901  15.031  0.00  0.00    +0.000 A 
ATOM     17  C   UNL     1       7.265   4.436  15.903  0.00  0.00    +0.000 A 
ATOM     18  C   UNL     1       7.214   4.771  17.256  0.00  0.00    +0.000 A 
ATOM     19  C   UNL     1       6.159   5.542  17.750  0.00  0.00    +0.000 A 
ENDBRANCH   4  14
BRANCH   1  21
ATOM     20  C   UNL     1       1.133   9.685  19.101  0.00  0.00    +0.000 C 
ATOM     21  C   UNL     1       1.967   9.344  18.100  0.00  0.00    +0.000 C 
BRANCH  20  25
ATOM     22  C   UNL     1      -0.753  13.539  19.450  0.00  0.00    +0.000 A 
ATOM     23  C   UNL     1       0.270  13.188  20.325  0.00  0.00    +0.000 A 
ATOM     24  C   UNL     1       0.859  11.916  20.235  0.00  0.00    +0.000 A 
ATOM     25  C   UNL     1       0.434  10.980  19.277  0.00  0.00    +0.000 A 
ATOM     26  C   UNL     1      -0.612  11.368  18.416  0.00  0.00    +0.000 A 
ATOM     27  C   UNL     1      -1.195  12.634  18.499  0.00  0.00    +0.000 A 
BRANCH  22  28
ATOM     28  O   UNL     1      -1.342  14.765  19.488  0.00  0.00    +0.000 OA
ATOM     29  H   UNL     1      -0.744  15.388  19.930  0.00  0.00    +0.000 HD
ENDBRANCH  22  28
BRANCH  26  30
ATOM     30  O   UNL     1      -1.129  10.547  17.447  0.00  0.00    +0.000 OA
ATOM     31  H   UNL     1      -0.923  10.926  16.577  0.00  0.00    +0.000 HD
ENDBRANCH  26  30
ENDBRANCH  20  25
ENDBRANCH   1  21
TORSDOF 7
ENDMDL
MODEL 5
REMARK VINA RESULT:      -9.0      5.007      7.099
REMARK  Name = 
REMARK  7 active torsions:
REMARK  status: ('A' for Active; 'I' for Inactive)
REMARK    1  A    between atoms: O_1  and  C_2
REMARK    2  A    between atoms: C_5  and  C_6
REMARK    3  A    between atoms: C_7  and  C_8
REMARK    4  A    between atoms: C_10  and  C_11
REMARK    5  A    between atoms: C_16  and  O_17
REMARK    6  A    between atoms: N_18  and  C_19
REMARK    7  A    between atoms: C_26  and  O_27
REMARK                            x       y       z     vdW  Elec       q    Type
REMARK                         _______ _______ _______ _____ _____    ______ ____
ROOT
ATOM      1  C   UNL     1       2.482   8.112  17.863  0.00  0.00    +0.000 A 
ATOM      2  N   UNL     1       1.713   7.065  18.288  0.00  0.00    +0.000 NA
ATOM      3  C   UNL     1       2.520   6.012  18.257  0.00  0.00    +0.000 A 
ATOM      4  N   UNL     1       3.744   6.436  17.723  0.00  0.00    +0.000 N 
ATOM      5  N   UNL     1       3.751   7.792  17.605  0.00  0.00    +0.000 NA
ENDROOT
BRANCH   3   6
ATOM      6  C   UNL     1       2.208   4.673  18.817  0.00  0.00    +0.000 A 
ATOM      7  C   UNL     1       2.009   3.560  17.975  0.00  0.00    +0.000 A 
ATOM      8  C   UNL     1       1.648   2.305  18.478  0.00  0.00    +0.000 A 
ATOM      9  C   UNL     1       1.565   2.109  19.849  0.00  0.00    +0.000 A 
ATOM     10  C   UNL     1       1.832   3.169  20.712  0.00  0.00    +0.000 A 
ATOM     11  C   UNL     1       2.136   4.439  20.201  0.00  0.00    +0.000 A 
BRANCH  11  12
ATOM     12  O   UNL     1       2.344   5.461  21.085  0.00  0.00    +0.000 OA
ATOM     13  H   UNL     1       1.534   5.991  21.161  0.00  0.00    +0.000 HD
ENDBRANCH  11  12
ENDBRANCH   3   6
BRANCH   4  14
ATOM     14  C   UNL     1       4.908   5.687  17.398  0.00  0.00    +0.000 A 
ATOM     15  C   UNL     1       5.877   5.392  18.367  0.00  0.00    +0.000 A 
ATOM     16  C   UNL     1       7.097   4.830  17.984  0.00  0.00    +0.000 A 
ATOM     17  C   UNL     1       7.341   4.537  16.643  0.00  0.00    +0.000 A 
ATOM     18  C   UNL     1       6.350   4.763  15.687  0.00  0.00    +0.000 A 
ATOM     19  C   UNL     1       5.125   5.317  16.063  0.00  0.00    +0.000 A 
ENDBRANCH   4  14
BRANCH   1  21
ATOM     20  C   UNL     1       1.435  10.153  18.783  0.00  0.00    +0.000 C 
ATOM     21  C   UNL     1       1.927   9.430  17.758  0.00  0.00    +0.000 C 
BRANCH  20  25
ATOM     22  C   UNL     1      -0.213  14.129  18.803  0.00  0.00    +0.000 A 
ATOM     23  C   UNL     1      -1.026  13.042  19.108  0.00  0.00    +0.000 A 
ATOM     24  C   UNL     1      -0.497  11.741  19.064  0.00  0.00    +0.000 A 
ATOM     25  C   UNL     1       0.845  11.510  18.713  0.00  0.00    +0.000 A 
ATOM     26  C   UNL     1       1.633  12.634  18.400  0.00  0.00    +0.000 A 
ATOM     27  C   UNL     1       1.111  13.928  18.449  0.00  0.00    +0.000 A 
BRANCH  22  28
ATOM     28  O   UNL     1      -0.675  15.408  18.848  0.00  0.00    +0.000 OA
ATOM     29  H   UNL     1      -0.135  15.958  18.259  0.00  0.00    +0.000 HD
ENDBRANCH  22  28
BRANCH  26  30
ATOM     30  O   UNL     1       2.950  12.547  18.029  0.00  0.00    +0.000 OA
ATOM     31  H   UNL     1       3.040  11.846  17.364  0.00  0.00    +0.000 HD
ENDBRANCH  26  30
ENDBRANCH  20  25
ENDBRANCH   1  21
TORSDOF 7
ENDMDL
MODEL 6
REMARK VINA RESULT:      -8.9      5.069      7.100
REMARK  Name = 
REMARK  7 active torsions:
REMARK  status: ('A' for Active; 'I' for Inactive)
REMARK    1  A    between atoms: O_1  and  C_2
REMARK    2  A    between atoms: C_5  and  C_6
REMARK    3  A    between atoms: C_7  and  C_8
REMARK    4  A    between atoms: C_10  and  C_11
REMARK    5  A    between atoms: C_16  and  O_17
REMARK    6  A    between atoms: N_18  and  C_19
REMARK    7  A    between atoms: C_26  and  O_27
REMARK                            x       y       z     vdW  Elec       q    Type
REMARK                         _______ _______ _______ _____ _____    ______ ____
ROOT
ATOM      1  C   UNL     1       2.417   8.154  17.829  0.00  0.00    +0.000 A 
ATOM      2  N   UNL     1       1.753   7.009  18.173  0.00  0.00    +0.000 NA
ATOM      3  C   UNL     1       2.658   6.044  18.070  0.00  0.00    +0.000 A 
ATOM      4  N   UNL     1       3.834   6.621  17.576  0.00  0.00    +0.000 N 
ATOM      5  N   UNL     1       3.710   7.976  17.556  0.00  0.00    +0.000 NA
ENDROOT
BRANCH   3   6
ATOM      6  C   UNL     1       2.477   4.644  18.530  0.00  0.00    +0.000 A 
ATOM      7  C   UNL     1       2.422   3.577  17.611  0.00  0.00    +0.000 A 
ATOM      8  C   UNL     1       2.184   2.260  18.018  0.00  0.00    +0.000 A 
ATOM      9  C   UNL     1       2.086   1.962  19.369  0.00  0.00    +0.000 A 
ATOM     10  C   UNL     1       2.214   2.982  20.309  0.00  0.00    +0.000 A 
ATOM     11  C   UNL     1       2.394   4.309  19.893  0.00  0.00    +0.000 A 
BRANCH  11  12
ATOM     12  O   UNL     1       2.467   5.284  20.849  0.00  0.00    +0.000 OA
ATOM     13  H   UNL     1       3.100   5.016  21.534  0.00  0.00    +0.000 HD
ENDBRANCH  11  12
ENDBRANCH   3   6
BRANCH   4  14
ATOM     14  C   UNL     1       5.064   6.013  17.204  0.00  0.00    +0.000 A 
ATOM     15  C   UNL     1       5.318   5.635  15.878  0.00  0.00    +0.000 A 
ATOM     16  C   UNL     1       6.444   4.867  15.575  0.00  0.00    +0.000 A 
ATOM     17  C   UNL     1       7.330   4.497  16.585  0.00  0.00    +0.000 A 
ATOM     18  C   UNL     1       7.119   4.933  17.894  0.00  0.00    +0.000 A 
ATOM     19  C   UNL     1       5.999   5.708  18.204  0.00  0.00    +0.000 A 
ENDBRANCH   4  14
BRANCH   1  21
ATOM     20  C   UNL     1       1.408  10.135  18.907  0.00  0.00    +0.000 C 
ATOM     21  C   UNL     1       1.738   9.416  17.817  0.00  0.00    +0.000 C 
BRANCH  20  25
ATOM     22  C   UNL     1      -0.540  13.963  19.189  0.00  0.00    +0.000 A 
ATOM     23  C   UNL     1      -1.155  12.834  19.717  0.00  0.00    +0.000 A 
ATOM     24  C   UNL     1      -0.537  11.579  19.592  0.00  0.00    +0.000 A 
ATOM     25  C   UNL     1       0.698  11.435  18.935  0.00  0.00    +0.000 A 
ATOM     26  C   UNL     1       1.284  12.600  18.403  0.00  0.00    +0.000 A 
ATOM     27  C   UNL     1       0.675  13.849  18.532  0.00  0.00    +0.000 A 
BRANCH  22  28
ATOM     28  O   UNL     1      -1.092  15.202  19.300  0.00  0.00    +0.000 OA
ATOM     29  H   UNL     1      -0.643  15.802  18.685  0.00  0.00    +0.000 HD
ENDBRANCH  22  28
BRANCH  26  30
ATOM     30  O   UNL     1       2.478  12.598  17.729  0.00  0.00    +0.000 OA
ATOM     31  H   UNL     1       3.149  12.170  18.286  0.00  0.00    +0.000 HD
ENDBRANCH  26  30
ENDBRANCH  20  25
ENDBRANCH   1  21
TORSDOF 7
ENDMDL
MODEL 7
REMARK VINA RESULT:      -8.9      5.214      7.459
REMARK  Name = 
REMARK  7 active torsions:
REMARK  status: ('A' for Active; 'I' for Inactive)
REMARK    1  A    between atoms: O_1  and  C_2
REMARK    2  A    between atoms: C_5  and  C_6
REMARK    3  A    between atoms: C_7  and  C_8
REMARK    4  A    between atoms: C_10  and  C_11
REMARK    5  A    between atoms: C_16  and  O_17
REMARK    6  A    between atoms: N_18  and  C_19
REMARK    7  A    between atoms: C_26  and  O_27
REMARK                            x       y       z     vdW  Elec       q    Type
REMARK                         _______ _______ _______ _____ _____    ______ ____
ROOT
ATOM      1  C   UNL     1       2.475   8.076  18.016  0.00  0.00    +0.000 A 
ATOM      2  N   UNL     1       1.873   6.894  18.346  0.00  0.00    +0.000 NA
ATOM      3  C   UNL     1       2.784   5.963  18.090  0.00  0.00    +0.000 A 
ATOM      4  N   UNL     1       3.893   6.604  17.523  0.00  0.00    +0.000 N 
ATOM      5  N   UNL     1       3.738   7.954  17.606  0.00  0.00    +0.000 NA
ENDROOT
BRANCH   3   6
ATOM      6  C   UNL     1       2.681   4.532  18.471  0.00  0.00    +0.000 A 
ATOM      7  C   UNL     1       2.634   3.519  17.491  0.00  0.00    +0.000 A 
ATOM      8  C   UNL     1       2.469   2.171  17.826  0.00  0.00    +0.000 A 
ATOM      9  C   UNL     1       2.437   1.790  19.159  0.00  0.00    +0.000 A 
ATOM     10  C   UNL     1       2.559   2.758  20.154  0.00  0.00    +0.000 A 
ATOM     11  C   UNL     1       2.666   4.114  19.813  0.00  0.00    +0.000 A 
BRANCH  11  12
ATOM     12  O   UNL     1       2.735   5.033  20.823  0.00  0.00    +0.000 OA
ATOM     13  H   UNL     1       1.868   5.105  21.252  0.00  0.00    +0.000 HD
ENDBRANCH  11  12
ENDBRANCH   3   6
BRANCH   4  14
ATOM     14  C   UNL     1       5.093   6.057  16.993  0.00  0.00    +0.000 A 
ATOM     15  C   UNL     1       5.240   5.822  15.618  0.00  0.00    +0.000 A 
ATOM     16  C   UNL     1       6.343   5.106  15.147  0.00  0.00    +0.000 A 
ATOM     17  C   UNL     1       7.311   4.647  16.039  0.00  0.00    +0.000 A 
ATOM     18  C   UNL     1       7.203   4.942  17.399  0.00  0.00    +0.000 A 
ATOM     19  C   UNL     1       6.107   5.664  17.877  0.00  0.00    +0.000 A 
ENDBRANCH   4  14
BRANCH   1  21
ATOM     20  C   UNL     1       0.887   9.608  19.130  0.00  0.00    +0.000 C 
ATOM     21  C   UNL     1       1.770   9.317  18.155  0.00  0.00    +0.000 C 
BRANCH  20  25
ATOM     22  C   UNL     1      -1.457  13.161  19.763  0.00  0.00    +0.000 A 
ATOM     23  C   UNL     1      -1.702  12.361  18.653  0.00  0.00    +0.000 A 
ATOM     24  C   UNL     1      -0.912  11.222  18.426  0.00  0.00    +0.000 A 
ATOM     25  C   UNL     1       0.132  10.871  19.300  0.00  0.00    +0.000 A 
ATOM     26  C   UNL     1       0.357  11.713  20.407  0.00  0.00    +0.000 A 
ATOM     27  C   UNL     1      -0.431  12.842  20.638  0.00  0.00    +0.000 A 
BRANCH  22  28
ATOM     28  O   UNL     1      -2.206  14.265  20.034  0.00  0.00    +0.000 OA
ATOM     29  H   UNL     1      -2.855  14.044  20.720  0.00  0.00    +0.000 HD
ENDBRANCH  22  28
BRANCH  26  30
ATOM     30  O   UNL     1       1.349  11.492  21.327  0.00  0.00    +0.000 OA
ATOM     31  H   UNL     1       0.944  11.171  22.150  0.00  0.00    +0.000 HD
ENDBRANCH  26  30
ENDBRANCH  20  25
ENDBRANCH   1  21
TORSDOF 7
ENDMDL
MODEL 8
REMARK VINA RESULT:      -8.9      5.040      6.424
REMARK  Name = 
REMARK  7 active torsions:
REMARK  status: ('A' for Active; 'I' for Inactive)
REMARK    1  A    between atoms: O_1  and  C_2
REMARK    2  A    between atoms: C_5  and  C_6
REMARK    3  A    between atoms: C_7  and  C_8
REMARK    4  A    between atoms: C_10  and  C_11
REMARK    5  A    between atoms: C_16  and  O_17
REMARK    6  A    between atoms: N_18  and  C_19
REMARK    7  A    between atoms: C_26  and  O_27
REMARK                            x       y       z     vdW  Elec       q    Type
REMARK                         _______ _______ _______ _____ _____    ______ ____
ROOT
ATOM      1  C   UNL     1       2.457   7.943  18.050  0.00  0.00    +0.000 A 
ATOM      2  N   UNL     1       3.732   7.786  17.582  0.00  0.00    +0.000 NA
ATOM      3  C   UNL     1       3.949   6.477  17.611  0.00  0.00    +0.000 A 
ATOM      4  N   UNL     1       2.821   5.876  18.185  0.00  0.00    +0.000 N 
ATOM      5  N   UNL     1       1.832   6.799  18.333  0.00  0.00    +0.000 NA
ENDROOT
BRANCH   3   6
ATOM      6  C   UNL     1       5.119   5.786  17.014  0.00  0.00    +0.000 A 
ATOM      7  C   UNL     1       5.254   5.658  15.616  0.00  0.00    +0.000 A 
ATOM      8  C   UNL     1       6.313   4.953  15.035  0.00  0.00    +0.000 A 
ATOM      9  C   UNL     1       7.318   4.432  15.838  0.00  0.00    +0.000 A 
ATOM     10  C   UNL     1       7.256   4.608  17.218  0.00  0.00    +0.000 A 
ATOM     11  C   UNL     1       6.162   5.265  17.799  0.00  0.00    +0.000 A 
BRANCH  11  12
ATOM     12  O   UNL     1       6.120   5.373  19.162  0.00  0.00    +0.000 OA
ATOM     13  H   UNL     1       5.198   5.479  19.448  0.00  0.00    +0.000 HD
ENDBRANCH  11  12
ENDBRANCH   3   6
BRANCH   4  14
ATOM     14  C   UNL     1       2.582   4.516  18.524  0.00  0.00    +0.000 A 
ATOM     15  C   UNL     1       2.756   3.491  17.583  0.00  0.00    +0.000 A 
ATOM     16  C   UNL     1       2.329   2.194  17.879  0.00  0.00    +0.000 A 
ATOM     17  C   UNL     1       1.754   1.913  19.117  0.00  0.00    +0.000 A 
ATOM     18  C   UNL     1       1.647   2.916  20.081  0.00  0.00    +0.000 A 
ATOM     19  C   UNL     1       2.079   4.214  19.797  0.00  0.00    +0.000 A 
ENDBRANCH   4  14
BRANCH   1  21
ATOM     20  C   UNL     1       0.990   9.626  19.107  0.00  0.00    +0.000 C 
ATOM     21  C   UNL     1       1.880   9.249  18.169  0.00  0.00    +0.000 C 
BRANCH  20  25
ATOM     22  C   UNL     1      -0.678  13.585  19.379  0.00  0.00    +0.000 A 
ATOM     23  C   UNL     1       0.313  13.190  20.271  0.00  0.00    +0.000 A 
ATOM     24  C   UNL     1       0.830  11.885  20.207  0.00  0.00    +0.000 A 
ATOM     25  C   UNL     1       0.363  10.961  19.256  0.00  0.00    +0.000 A 
ATOM     26  C   UNL     1      -0.648  11.395  18.377  0.00  0.00    +0.000 A 
ATOM     27  C   UNL     1      -1.160  12.693  18.435  0.00  0.00    +0.000 A 
BRANCH  22  28
ATOM     28  O   UNL     1      -1.197  14.843  19.392  0.00  0.00    +0.000 OA
ATOM     29  H   UNL     1      -2.069  14.827  18.965  0.00  0.00    +0.000 HD
ENDBRANCH  22  28
BRANCH  26  30
ATOM     30  O   UNL     1      -1.200  10.590  17.413  0.00  0.00    +0.000 OA
ATOM     31  H   UNL     1      -1.573   9.803  17.842  0.00  0.00    +0.000 HD
ENDBRANCH  26  30
ENDBRANCH  20  25
ENDBRANCH   1  21
TORSDOF 7
ENDMDL
MODEL 9
REMARK VINA RESULT:      -8.8      1.351      3.732
REMARK  Name = 
REMARK  7 active torsions:
REMARK  status: ('A' for Active; 'I' for Inactive)
REMARK    1  A    between atoms: O_1  and  C_2
REMARK    2  A    between atoms: C_5  and  C_6
REMARK    3  A    between atoms: C_7  and  C_8
REMARK    4  A    between atoms: C_10  and  C_11
REMARK    5  A    between atoms: C_16  and  O_17
REMARK    6  A    between atoms: N_18  and  C_19
REMARK    7  A    between atoms: C_26  and  O_27
REMARK                            x       y       z     vdW  Elec       q    Type
REMARK                         _______ _______ _______ _____ _____    ______ ____
ROOT
ATOM      1  C   UNL     1       7.325   7.239  17.448  0.00  0.00    +0.000 A 
ATOM      2  N   UNL     1       6.141   6.837  18.002  0.00  0.00    +0.000 NA
ATOM      3  C   UNL     1       5.685   5.893  17.189  0.00  0.00    +0.000 A 
ATOM      4  N   UNL     1       6.569   5.808  16.106  0.00  0.00    +0.000 N 
ATOM      5  N   UNL     1       7.671   6.568  16.348  0.00  0.00    +0.000 NA
ENDROOT
BRANCH   3   6
ATOM      6  C   UNL     1       4.527   5.007  17.466  0.00  0.00    +0.000 A 
ATOM      7  C   UNL     1       4.676   3.605  17.512  0.00  0.00    +0.000 A 
ATOM      8  C   UNL     1       3.586   2.750  17.704  0.00  0.00    +0.000 A 
ATOM      9  C   UNL     1       2.327   3.280  17.946  0.00  0.00    +0.000 A 
ATOM     10  C   UNL     1       2.159   4.662  17.984  0.00  0.00    +0.000 A 
ATOM     11  C   UNL     1       3.244   5.514  17.733  0.00  0.00    +0.000 A 
BRANCH  11  12
ATOM     12  O   UNL     1       3.021   6.864  17.734  0.00  0.00    +0.000 OA
ATOM     13  H   UNL     1       3.788   7.316  18.120  0.00  0.00    +0.000 HD
ENDBRANCH  11  12
ENDBRANCH   3   6
BRANCH   4  14
ATOM     14  C   UNL     1       6.491   5.023  14.923  0.00  0.00    +0.000 A 
ATOM     15  C   UNL     1       7.528   5.027  13.978  0.00  0.00    +0.000 A 
ATOM     16  C   UNL     1       7.344   4.407  12.740  0.00  0.00    +0.000 A 
ATOM     17  C   UNL     1       6.143   3.761  12.453  0.00  0.00    +0.000 A 
ATOM     18  C   UNL     1       5.138   3.693  13.419  0.00  0.00    +0.000 A 
ATOM     19  C   UNL     1       5.316   4.304  14.662  0.00  0.00    +0.000 A 
ENDBRANCH   4  14
BRANCH   1  21
ATOM     20  C   UNL     1       8.045   9.583  17.753  0.00  0.00    +0.000 C 
ATOM     21  C   UNL     1       8.105   8.273  18.062  0.00  0.00    +0.000 C 
BRANCH  20  25
ATOM     22  C   UNL     1      10.518  12.730  19.335  0.00  0.00    +0.000 A 
ATOM     23  C   UNL     1      10.643  11.438  19.832  0.00  0.00    +0.000 A 
ATOM     24  C   UNL     1       9.809  10.419  19.342  0.00  0.00    +0.000 A 
ATOM     25  C   UNL     1       8.841  10.677  18.356  0.00  0.00    +0.000 A 
ATOM     26  C   UNL     1       8.738  12.001  17.885  0.00  0.00    +0.000 A 
ATOM     27  C   UNL     1       9.570  13.014  18.366  0.00  0.00    +0.000 A 
BRANCH  22  28
ATOM     28  O   UNL     1      11.314  13.747  19.766  0.00  0.00    +0.000 OA
ATOM     29  H   UNL     1      10.811  14.299  20.385  0.00  0.00    +0.000 HD
ENDBRANCH  22  28
BRANCH  26  30
ATOM     30  O   UNL     1       7.829  12.390  16.936  0.00  0.00    +0.000 OA
ATOM     31  H   UNL     1       6.940  12.145  17.238  0.00  0.00    +0.000 HD
ENDBRANCH  26  30
ENDBRANCH  20  25
ENDBRANCH   1  21
TORSDOF 7
ENDMDL
