MODEL 1
REMARK VINA RESULT:      -7.1      0.000      0.000
REMARK  Name = 
REMARK  12 active torsions:
REMARK  status: ('A' for Active; 'I' for Inactive)
REMARK    1  A    between atoms: C_1  and  C_2
REMARK    2  A    between atoms: C_2  and  C_3
REMARK    3  A    between atoms: C_3  and  C_4
REMARK    4  A    between atoms: C_3  and  N_21
REMARK    5  A    between atoms: N_13  and  C_14
REMARK    6  A    between atoms: C_14  and  C_15
REMARK    7  A    between atoms: N_21  and  C_22
REMARK    8  A    between atoms: C_22  and  C_23
REMARK    9  A    between atoms: C_23  and  C_24
REMARK   10  A    between atoms: C_24  and  N_25
REMARK   11  A    between atoms: C_26  and  C_28
REMARK   12  A    between atoms: C_31  and  C_32
REMARK                            x       y       z     vdW  Elec       q    Type
REMARK                         _______ _______ _______ _____ _____    ______ ____
ROOT
ATOM      1  C   UNL     1       0.669  11.028  18.789  0.00  0.00    +0.000 C 
ENDROOT
BRANCH   1   2
ATOM      2  C   UNL     1       1.040  12.514  19.314  0.00  0.00    +0.000 A 
ATOM      3  N   UNL     1       1.709  13.185  18.439  0.00  0.00    +0.000 NA
ATOM      4  C   UNL     1       2.046  14.486  18.808  0.00  0.00    +0.000 A 
ATOM      5  C   UNL     1       2.547  15.531  18.037  0.00  0.00    +0.000 A 
ATOM      6  C   UNL     1       2.736  16.571  18.949  0.00  0.00    +0.000 A 
ATOM      7  O   UNL     1       2.341  16.204  20.196  0.00  0.00    +0.000 OA
ATOM      8  C   UNL     1       1.879  14.924  20.083  0.00  0.00    +0.000 A 
ATOM      9  C   UNL     1       1.204  14.183  21.099  0.00  0.00    +0.000 A 
ATOM     10  O   UNL     1       1.270  14.440  22.313  0.00  0.00    +0.000 OA
ATOM     11  N   UNL     1       0.632  12.996  20.567  0.00  0.00    +0.000 N 
BRANCH  11  12
ATOM     12  C   UNL     1      -0.290  12.331  21.487  0.00  0.00    +0.000 C 
BRANCH  12  13
ATOM     13  C   UNL     1      -1.799  12.644  21.483  0.00  0.00    +0.000 A 
ATOM     14  C   UNL     1      -2.594  13.004  20.380  0.00  0.00    +0.000 A 
ATOM     15  C   UNL     1      -3.997  13.218  20.567  0.00  0.00    +0.000 A 
ATOM     16  C   UNL     1      -4.593  13.057  21.820  0.00  0.00    +0.000 A 
ATOM     17  C   UNL     1      -3.800  12.729  22.905  0.00  0.00    +0.000 A 
ATOM     18  C   UNL     1      -2.407  12.541  22.740  0.00  0.00    +0.000 A 
ENDBRANCH  12  13
ENDBRANCH  11  12
ENDBRANCH   1   2
BRANCH   1  19
ATOM     19  N   UNL     1       1.269   9.585  19.234  0.00  0.00    +0.000 N 
ATOM     20  C   UNL     1       1.962   8.889  18.169  0.00  0.00    +0.000 C 
ATOM     21  O   UNL     1       2.158   9.375  17.055  0.00  0.00    +0.000 OA
BRANCH  20  22
ATOM     22  C   UNL     1       2.573   7.547  18.330  0.00  0.00    +0.000 A 
ATOM     23  C   UNL     1       1.943   6.452  18.929  0.00  0.00    +0.000 A 
ATOM     24  C   UNL     1       2.552   5.176  18.904  0.00  0.00    +0.000 A 
ATOM     25  C   UNL     1       3.798   4.993  18.294  0.00  0.00    +0.000 A 
ATOM     26  C   UNL     1       4.520   3.681  18.218  0.00  0.00    +0.000 C 
ATOM     27  C   UNL     1       4.381   6.074  17.653  0.00  0.00    +0.000 A 
ATOM     28  C   UNL     1       3.717   7.294  17.617  0.00  0.00    +0.000 A 
ENDBRANCH  20  22
BRANCH  19  29
ATOM     29  C   UNL     1       1.091   8.960  20.648  0.00  0.00    +0.000 C 
BRANCH  29  30
ATOM     30  C   UNL     1      -0.272   8.692  21.562  0.00  0.00    +0.000 C 
BRANCH  30  31
ATOM     31  C   UNL     1      -0.754   9.252  22.988  0.00  0.00    +0.000 C 
BRANCH  31  32
ATOM     32  N   UNL     1       0.335   9.537  23.952  0.00  0.00    +0.000 NA
ATOM     33  H   UNL     1       0.930  10.274  23.585  0.00  0.00    +0.000 HD
ATOM     34  H   UNL     1       0.945   8.740  24.057  0.00  0.00    +0.000 HD
ENDBRANCH  31  32
ENDBRANCH  30  31
ENDBRANCH  29  30
ENDBRANCH  19  29
ENDBRANCH   1  19
BRANCH   1  36
ATOM     35  C   UNL     1      -1.928  10.092  18.272  0.00  0.00    +0.000 C 
ATOM     36  C   UNL     1      -0.773  11.082  18.056  0.00  0.00    +0.000 C 
ENDBRANCH   1  36
TORSDOF 10
ENDMDL
MODEL 2
REMARK VINA RESULT:      -7.1      2.267      3.582
REMARK  Name = 
REMARK  12 active torsions:
REMARK  status: ('A' for Active; 'I' for Inactive)
REMARK    1  A    between atoms: C_1  and  C_2
REMARK    2  A    between atoms: C_2  and  C_3
REMARK    3  A    between atoms: C_3  and  C_4
REMARK    4  A    between atoms: C_3  and  N_21
REMARK    5  A    between atoms: N_13  and  C_14
REMARK    6  A    between atoms: C_14  and  C_15
REMARK    7  A    between atoms: N_21  and  C_22
REMARK    8  A    between atoms: C_22  and  C_23
REMARK    9  A    between atoms: C_23  and  C_24
REMARK   10  A    between atoms: C_24  and  N_25
REMARK   11  A    between atoms: C_26  and  C_28
REMARK   12  A    between atoms: C_31  and  C_32
REMARK                            x       y       z     vdW  Elec       q    Type
REMARK                         _______ _______ _______ _____ _____    ______ ____
ROOT
ATOM      1  C   UNL     1       0.698   9.384  19.928  0.00  0.00    +0.000 C 
ENDROOT
BRANCH   1   2
ATOM      2  C   UNL     1       0.788  10.932  19.464  0.00  0.00    +0.000 A 
ATOM      3  N   UNL     1       2.008  11.331  19.337  0.00  0.00    +0.000 NA
ATOM      4  C   UNL     1       2.169  12.650  18.915  0.00  0.00    +0.000 A 
ATOM      5  C   UNL     1       3.309  13.310  18.465  0.00  0.00    +0.000 A 
ATOM      6  C   UNL     1       2.879  14.618  18.232  0.00  0.00    +0.000 A 
ATOM      7  O   UNL     1       1.551  14.747  18.485  0.00  0.00    +0.000 OA
ATOM      8  C   UNL     1       1.119  13.509  18.868  0.00  0.00    +0.000 A 
ATOM      9  C   UNL     1      -0.240  13.121  19.070  0.00  0.00    +0.000 A 
ATOM     10  O   UNL     1      -1.170  13.915  19.291  0.00  0.00    +0.000 OA
ATOM     11  N   UNL     1      -0.350  11.709  19.202  0.00  0.00    +0.000 N 
BRANCH  11  12
ATOM     12  C   UNL     1      -1.729  11.225  19.146  0.00  0.00    +0.000 C 
BRANCH  12  13
ATOM     13  C   UNL     1      -2.410  10.882  17.806  0.00  0.00    +0.000 A 
ATOM     14  C   UNL     1      -1.959   9.979  16.826  0.00  0.00    +0.000 A 
ATOM     15  C   UNL     1      -2.754   9.760  15.656  0.00  0.00    +0.000 A 
ATOM     16  C   UNL     1      -3.977  10.412  15.479  0.00  0.00    +0.000 A 
ATOM     17  C   UNL     1      -4.400  11.319  16.435  0.00  0.00    +0.000 A 
ATOM     18  C   UNL     1      -3.611  11.565  17.584  0.00  0.00    +0.000 A 
ENDBRANCH  12  13
ENDBRANCH  11  12
ENDBRANCH   1   2
BRANCH   1  19
ATOM     19  N   UNL     1       1.724   8.153  19.656  0.00  0.00    +0.000 N 
ATOM     20  C   UNL     1       2.210   8.090  18.293  0.00  0.00    +0.000 C 
ATOM     21  O   UNL     1       1.946   8.936  17.439  0.00  0.00    +0.000 OA
BRANCH  20  22
ATOM     22  C   UNL     1       3.138   7.041  17.802  0.00  0.00    +0.000 A 
ATOM     23  C   UNL     1       2.840   5.676  17.752  0.00  0.00    +0.000 A 
ATOM     24  C   UNL     1       3.733   4.774  17.131  0.00  0.00    +0.000 A 
ATOM     25  C   UNL     1       4.934   5.229  16.573  0.00  0.00    +0.000 A 
ATOM     26  C   UNL     1       5.941   4.349  15.895  0.00  0.00    +0.000 C 
ATOM     27  C   UNL     1       5.184   6.591  16.577  0.00  0.00    +0.000 A 
ATOM     28  C   UNL     1       4.246   7.464  17.114  0.00  0.00    +0.000 A 
ENDBRANCH  20  22
BRANCH  19  29
ATOM     29  C   UNL     1       2.126   7.094  20.724  0.00  0.00    +0.000 C 
BRANCH  29  30
ATOM     30  C   UNL     1       1.635   5.521  20.944  0.00  0.00    +0.000 C 
BRANCH  30  31
ATOM     31  C   UNL     1       2.426   4.123  20.941  0.00  0.00    +0.000 C 
BRANCH  31  32
ATOM     32  N   UNL     1       2.112   3.222  22.076  0.00  0.00    +0.000 NA
ATOM     33  H   UNL     1       2.774   3.378  22.828  0.00  0.00    +0.000 HD
ATOM     34  H   UNL     1       2.237   2.254  21.817  0.00  0.00    +0.000 HD
ENDBRANCH  31  32
ENDBRANCH  30  31
ENDBRANCH  29  30
ENDBRANCH  19  29
ENDBRANCH   1  19
BRANCH   1  36
ATOM     35  C   UNL     1      -0.018   9.472  22.642  0.00  0.00    +0.000 C 
ATOM     36  C   UNL     1      -0.350   9.271  21.156  0.00  0.00    +0.000 C 
ENDBRANCH   1  36
TORSDOF 10
ENDMDL
MODEL 3
REMARK VINA RESULT:      -7.0      1.059      1.346
REMARK  Name = 
REMARK  12 active torsions:
REMARK  status: ('A' for Active; 'I' for Inactive)
REMARK    1  A    between atoms: C_1  and  C_2
REMARK    2  A    between atoms: C_2  and  C_3
REMARK    3  A    between atoms: C_3  and  C_4
REMARK    4  A    between atoms: C_3  and  N_21
REMARK    5  A    between atoms: N_13  and  C_14
REMARK    6  A    between atoms: C_14  and  C_15
REMARK    7  A    between atoms: N_21  and  C_22
REMARK    8  A    between atoms: C_22  and  C_23
REMARK    9  A    between atoms: C_23  and  C_24
REMARK   10  A    between atoms: C_24  and  N_25
REMARK   11  A    between atoms: C_26  and  C_28
REMARK   12  A    between atoms: C_31  and  C_32
REMARK                            x       y       z     vdW  Elec       q    Type
REMARK                         _______ _______ _______ _____ _____    ______ ____
ROOT
ATOM      1  C   UNL     1       0.848  10.839  19.035  0.00  0.00    +0.000 C 
ENDROOT
BRANCH   1   2
ATOM      2  C   UNL     1       1.507  12.272  19.399  0.00  0.00    +0.000 A 
ATOM      3  N   UNL     1       2.232  12.732  18.436  0.00  0.00    +0.000 NA
ATOM      4  C   UNL     1       2.814  13.978  18.664  0.00  0.00    +0.000 A 
ATOM      5  C   UNL     1       3.446  14.844  17.776  0.00  0.00    +0.000 A 
ATOM      6  C   UNL     1       3.870  15.907  18.575  0.00  0.00    +0.000 A 
ATOM      7  O   UNL     1       3.491  15.727  19.867  0.00  0.00    +0.000 OA
ATOM      8  C   UNL     1       2.804  14.547  19.897  0.00  0.00    +0.000 A 
ATOM      9  C   UNL     1       2.070  14.032  21.008  0.00  0.00    +0.000 A 
ATOM     10  O   UNL     1       2.252  14.377  22.188  0.00  0.00    +0.000 OA
ATOM     11  N   UNL     1       1.266  12.927  20.617  0.00  0.00    +0.000 N 
BRANCH  11  12
ATOM     12  C   UNL     1       0.297  12.523  21.635  0.00  0.00    +0.000 C 
BRANCH  12  13
ATOM     13  C   UNL     1      -0.875  13.437  22.042  0.00  0.00    +0.000 A 
ATOM     14  C   UNL     1      -1.175  13.919  23.329  0.00  0.00    +0.000 A 
ATOM     15  C   UNL     1      -2.291  14.798  23.505  0.00  0.00    +0.000 A 
ATOM     16  C   UNL     1      -3.074  15.200  22.421  0.00  0.00    +0.000 A 
ATOM     17  C   UNL     1      -2.788  14.702  21.162  0.00  0.00    +0.000 A 
ATOM     18  C   UNL     1      -1.705  13.810  20.977  0.00  0.00    +0.000 A 
ENDBRANCH  12  13
ENDBRANCH  11  12
ENDBRANCH   1   2
BRANCH   1  19
ATOM     19  N   UNL     1       1.416   9.337  19.287  0.00  0.00    +0.000 N 
ATOM     20  C   UNL     1       2.043   8.749  18.121  0.00  0.00    +0.000 C 
ATOM     21  O   UNL     1       2.212   9.354  17.063  0.00  0.00    +0.000 OA
BRANCH  20  22
ATOM     22  C   UNL     1       2.615   7.380  18.102  0.00  0.00    +0.000 A 
ATOM     23  C   UNL     1       1.878   6.208  18.297  0.00  0.00    +0.000 A 
ATOM     24  C   UNL     1       2.486   4.944  18.114  0.00  0.00    +0.000 A 
ATOM     25  C   UNL     1       3.834   4.847  17.751  0.00  0.00    +0.000 A 
ATOM     26  C   UNL     1       4.563   3.555  17.535  0.00  0.00    +0.000 C 
ATOM     27  C   UNL     1       4.533   6.018  17.503  0.00  0.00    +0.000 A 
ATOM     28  C   UNL     1       3.884   7.242  17.603  0.00  0.00    +0.000 A 
ENDBRANCH  20  22
BRANCH  19  29
ATOM     29  C   UNL     1       1.271   8.557  20.626  0.00  0.00    +0.000 C 
BRANCH  29  30
ATOM     30  C   UNL     1       0.004   8.449  21.697  0.00  0.00    +0.000 C 
BRANCH  30  31
ATOM     31  C   UNL     1      -0.608   9.479  22.768  0.00  0.00    +0.000 C 
BRANCH  31  32
ATOM     32  N   UNL     1       0.151   9.590  24.036  0.00  0.00    +0.000 NA
ATOM     33  H   UNL     1       0.660   8.729  24.205  0.00  0.00    +0.000 HD
ATOM     34  H   UNL     1      -0.471   9.683  24.825  0.00  0.00    +0.000 HD
ENDBRANCH  31  32
ENDBRANCH  30  31
ENDBRANCH  29  30
ENDBRANCH  19  29
ENDBRANCH   1  19
BRANCH   1  36
ATOM     35  C   UNL     1      -1.628  10.178  17.886  0.00  0.00    +0.000 C 
ATOM     36  C   UNL     1      -0.738  11.044  18.792  0.00  0.00    +0.000 C 
ENDBRANCH   1  36
TORSDOF 10
ENDMDL
MODEL 4
REMARK VINA RESULT:      -6.7      2.310      5.040
REMARK  Name = 
REMARK  12 active torsions:
REMARK  status: ('A' for Active; 'I' for Inactive)
REMARK    1  A    between atoms: C_1  and  C_2
REMARK    2  A    between atoms: C_2  and  C_3
REMARK    3  A    between atoms: C_3  and  C_4
REMARK    4  A    between atoms: C_3  and  N_21
REMARK    5  A    between atoms: N_13  and  C_14
REMARK    6  A    between atoms: C_14  and  C_15
REMARK    7  A    between atoms: N_21  and  C_22
REMARK    8  A    between atoms: C_22  and  C_23
REMARK    9  A    between atoms: C_23  and  C_24
REMARK   10  A    between atoms: C_24  and  N_25
REMARK   11  A    between atoms: C_26  and  C_28
REMARK   12  A    between atoms: C_31  and  C_32
REMARK                            x       y       z     vdW  Elec       q    Type
REMARK                         _______ _______ _______ _____ _____    ______ ____
ROOT
ATOM      1  C   UNL     1       1.218  11.318  19.025  0.00  0.00    +0.000 C 
ENDROOT
BRANCH   1   2
ATOM      2  C   UNL     1       2.007  12.674  19.428  0.00  0.00    +0.000 A 
ATOM      3  N   UNL     1       2.827  13.051  18.506  0.00  0.00    +0.000 NA
ATOM      4  C   UNL     1       3.527  14.227  18.768  0.00  0.00    +0.000 A 
ATOM      5  C   UNL     1       4.294  15.018  17.917  0.00  0.00    +0.000 A 
ATOM      6  C   UNL     1       4.787  16.031  18.741  0.00  0.00    +0.000 A 
ATOM      7  O   UNL     1       4.324  15.896  20.010  0.00  0.00    +0.000 OA
ATOM      8  C   UNL     1       3.513  14.798  20.000  0.00  0.00    +0.000 A 
ATOM      9  C   UNL     1       2.670  14.368  21.069  0.00  0.00    +0.000 A 
ATOM     10  O   UNL     1       2.826  14.694  22.258  0.00  0.00    +0.000 OA
ATOM     11  N   UNL     1       1.774  13.354  20.633  0.00  0.00    +0.000 N 
BRANCH  11  12
ATOM     12  C   UNL     1       0.715  13.059  21.597  0.00  0.00    +0.000 C 
BRANCH  12  13
ATOM     13  C   UNL     1      -0.591  13.877  21.637  0.00  0.00    +0.000 A 
ATOM     14  C   UNL     1      -0.987  14.897  20.752  0.00  0.00    +0.000 A 
ATOM     15  C   UNL     1      -2.265  15.519  20.926  0.00  0.00    +0.000 A 
ATOM     16  C   UNL     1      -3.131  15.119  21.947  0.00  0.00    +0.000 A 
ATOM     17  C   UNL     1      -2.723  14.135  22.829  0.00  0.00    +0.000 A 
ATOM     18  C   UNL     1      -1.452  13.530  22.685  0.00  0.00    +0.000 A 
ENDBRANCH  12  13
ENDBRANCH  11  12
ENDBRANCH   1   2
BRANCH   1  19
ATOM     19  N   UNL     1      -0.356  10.945  19.175  0.00  0.00    +0.000 N 
ATOM     20  C   UNL     1      -1.244  11.913  18.565  0.00  0.00    +0.000 C 
ATOM     21  O   UNL     1      -0.850  12.882  17.917  0.00  0.00    +0.000 OA
BRANCH  20  22
ATOM     22  C   UNL     1      -2.723  11.798  18.593  0.00  0.00    +0.000 A 
ATOM     23  C   UNL     1      -3.542  12.305  19.606  0.00  0.00    +0.000 A 
ATOM     24  C   UNL     1      -4.949  12.275  19.470  0.00  0.00    +0.000 A 
ATOM     25  C   UNL     1      -5.543  11.723  18.329  0.00  0.00    +0.000 A 
ATOM     26  C   UNL     1      -7.022  11.647  18.096  0.00  0.00    +0.000 C 
ATOM     27  C   UNL     1      -4.717  11.280  17.308  0.00  0.00    +0.000 A 
ATOM     28  C   UNL     1      -3.339  11.406  17.432  0.00  0.00    +0.000 A 
ENDBRANCH  20  22
BRANCH  19  29
ATOM     29  C   UNL     1      -0.893   9.700  19.940  0.00  0.00    +0.000 C 
BRANCH  29  30
ATOM     30  C   UNL     1      -0.380   8.975  21.345  0.00  0.00    +0.000 C 
BRANCH  30  31
ATOM     31  C   UNL     1       0.397   9.531  22.637  0.00  0.00    +0.000 C 
BRANCH  31  32
ATOM     32  N   UNL     1       1.869   9.358  22.606  0.00  0.00    +0.000 NA
ATOM     33  H   UNL     1       2.315  10.163  23.034  0.00  0.00    +0.000 HD
ATOM     34  H   UNL     1       2.214   9.343  21.658  0.00  0.00    +0.000 HD
ENDBRANCH  31  32
ENDBRANCH  30  31
ENDBRANCH  29  30
ENDBRANCH  19  29
ENDBRANCH   1  19
BRANCH   1  36
ATOM     35  C   UNL     1       2.083   8.965  17.760  0.00  0.00    +0.000 C 
ATOM     36  C   UNL     1       2.122  10.486  17.972  0.00  0.00    +0.000 C 
ENDBRANCH   1  36
TORSDOF 10
ENDMDL
MODEL 5
REMARK VINA RESULT:      -6.7      1.388      1.752
REMARK  Name = 
REMARK  12 active torsions:
REMARK  status: ('A' for Active; 'I' for Inactive)
REMARK    1  A    between atoms: C_1  and  C_2
REMARK    2  A    between atoms: C_2  and  C_3
REMARK    3  A    between atoms: C_3  and  C_4
REMARK    4  A    between atoms: C_3  and  N_21
REMARK    5  A    between atoms: N_13  and  C_14
REMARK    6  A    between atoms: C_14  and  C_15
REMARK    7  A    between atoms: N_21  and  C_22
REMARK    8  A    between atoms: C_22  and  C_23
REMARK    9  A    between atoms: C_23  and  C_24
REMARK   10  A    between atoms: C_24  and  N_25
REMARK   11  A    between atoms: C_26  and  C_28
REMARK   12  A    between atoms: C_31  and  C_32
REMARK                            x       y       z     vdW  Elec       q    Type
REMARK                         _______ _______ _______ _____ _____    ______ ____
ROOT
ATOM      1  C   UNL     1       0.633  10.171  19.112  0.00  0.00    +0.000 C 
ENDROOT
BRANCH   1   2
ATOM      2  C   UNL     1       0.962  11.699  19.536  0.00  0.00    +0.000 A 
ATOM      3  N   UNL     1       1.670  12.308  18.645  0.00  0.00    +0.000 NA
ATOM      4  C   UNL     1       1.975  13.638  18.926  0.00  0.00    +0.000 A 
ATOM      5  C   UNL     1       2.506  14.626  18.101  0.00  0.00    +0.000 A 
ATOM      6  C   UNL     1       2.638  15.737  18.936  0.00  0.00    +0.000 A 
ATOM      7  O   UNL     1       2.183  15.464  20.186  0.00  0.00    +0.000 OA
ATOM      8  C   UNL     1       1.739  14.173  20.152  0.00  0.00    +0.000 A 
ATOM      9  C   UNL     1       1.019  13.507  21.189  0.00  0.00    +0.000 A 
ATOM     10  O   UNL     1       1.019  13.859  22.380  0.00  0.00    +0.000 OA
ATOM     11  N   UNL     1       0.485  12.273  20.724  0.00  0.00    +0.000 N 
BRANCH  11  12
ATOM     12  C   UNL     1      -0.477  11.671  21.646  0.00  0.00    +0.000 C 
BRANCH  12  13
ATOM     13  C   UNL     1      -1.889  12.258  21.835  0.00  0.00    +0.000 A 
ATOM     14  C   UNL     1      -2.702  12.859  20.856  0.00  0.00    +0.000 A 
ATOM     15  C   UNL     1      -4.012  13.312  21.216  0.00  0.00    +0.000 A 
ATOM     16  C   UNL     1      -4.502  13.152  22.514  0.00  0.00    +0.000 A 
ATOM     17  C   UNL     1      -3.687  12.584  23.476  0.00  0.00    +0.000 A 
ATOM     18  C   UNL     1      -2.380  12.156  23.142  0.00  0.00    +0.000 A 
ENDBRANCH  12  13
ENDBRANCH  11  12
ENDBRANCH   1   2
BRANCH   1  19
ATOM     19  N   UNL     1       1.540   8.831  19.256  0.00  0.00    +0.000 N 
ATOM     20  C   UNL     1       2.170   8.419  18.018  0.00  0.00    +0.000 C 
ATOM     21  O   UNL     1       2.101   9.065  16.973  0.00  0.00    +0.000 OA
BRANCH  20  22
ATOM     22  C   UNL     1       3.026   7.213  17.898  0.00  0.00    +0.000 A 
ATOM     23  C   UNL     1       2.548   5.902  17.820  0.00  0.00    +0.000 A 
ATOM     24  C   UNL     1       3.435   4.832  17.559  0.00  0.00    +0.000 A 
ATOM     25  C   UNL     1       4.804   5.067  17.390  0.00  0.00    +0.000 A 
ATOM     26  C   UNL     1       5.819   4.000  17.110  0.00  0.00    +0.000 C 
ATOM     27  C   UNL     1       5.253   6.378  17.409  0.00  0.00    +0.000 A 
ATOM     28  C   UNL     1       4.344   7.415  17.578  0.00  0.00    +0.000 A 
ENDBRANCH  20  22
BRANCH  19  29
ATOM     29  C   UNL     1       1.698   8.016  20.573  0.00  0.00    +0.000 C 
BRANCH  29  30
ATOM     30  C   UNL     1       1.125   6.516  21.005  0.00  0.00    +0.000 C 
BRANCH  30  31
ATOM     31  C   UNL     1       1.760   5.043  20.921  0.00  0.00    +0.000 C 
BRANCH  31  32
ATOM     32  N   UNL     1       0.818   3.976  20.510  0.00  0.00    +0.000 NA
ATOM     33  H   UNL     1       0.697   3.316  21.271  0.00  0.00    +0.000 HD
ATOM     34  H   UNL     1       1.196   3.429  19.750  0.00  0.00    +0.000 HD
ENDBRANCH  31  32
ENDBRANCH  30  31
ENDBRANCH  29  30
ENDBRANCH  19  29
ENDBRANCH   1  19
BRANCH   1  36
ATOM     35  C   UNL     1      -1.830  10.729  17.884  0.00  0.00    +0.000 C 
ATOM     36  C   UNL     1      -0.968  10.016  18.937  0.00  0.00    +0.000 C 
ENDBRANCH   1  36
TORSDOF 10
ENDMDL
MODEL 6
REMARK VINA RESULT:      -6.7      2.317      3.878
REMARK  Name = 
REMARK  12 active torsions:
REMARK  status: ('A' for Active; 'I' for Inactive)
REMARK    1  A    between atoms: C_1  and  C_2
REMARK    2  A    between atoms: C_2  and  C_3
REMARK    3  A    between atoms: C_3  and  C_4
REMARK    4  A    between atoms: C_3  and  N_21
REMARK    5  A    between atoms: N_13  and  C_14
REMARK    6  A    between atoms: C_14  and  C_15
REMARK    7  A    between atoms: N_21  and  C_22
REMARK    8  A    between atoms: C_22  and  C_23
REMARK    9  A    between atoms: C_23  and  C_24
REMARK   10  A    between atoms: C_24  and  N_25
REMARK   11  A    between atoms: C_26  and  C_28
REMARK   12  A    between atoms: C_31  and  C_32
REMARK                            x       y       z     vdW  Elec       q    Type
REMARK                         _______ _______ _______ _____ _____    ______ ____
ROOT
ATOM      1  C   UNL     1       0.729  10.487  19.331  0.00  0.00    +0.000 C 
ENDROOT
BRANCH   1   2
ATOM      2  C   UNL     1      -0.770  10.853  18.839  0.00  0.00    +0.000 A 
ATOM      3  N   UNL     1      -0.975  10.514  17.612  0.00  0.00    +0.000 NA
ATOM      4  C   UNL     1      -2.253  10.776  17.122  0.00  0.00    +0.000 A 
ATOM      5  C   UNL     1      -2.866  10.339  15.951  0.00  0.00    +0.000 A 
ATOM      6  C   UNL     1      -4.119  10.956  15.968  0.00  0.00    +0.000 A 
ATOM      7  O   UNL     1      -4.283  11.695  17.096  0.00  0.00    +0.000 OA
ATOM      8  C   UNL     1      -3.134  11.540  17.818  0.00  0.00    +0.000 A 
ATOM      9  C   UNL     1      -2.916  11.993  19.154  0.00  0.00    +0.000 A 
ATOM     10  O   UNL     1      -3.571  12.893  19.704  0.00  0.00    +0.000 OA
ATOM     11  N   UNL     1      -1.721  11.438  19.689  0.00  0.00    +0.000 N 
BRANCH  11  12
ATOM     12  C   UNL     1      -1.577  11.647  21.130  0.00  0.00    +0.000 C 
BRANCH  12  13
ATOM     13  C   UNL     1      -1.125  13.002  21.706  0.00  0.00    +0.000 A 
ATOM     14  C   UNL     1      -0.507  14.061  21.016  0.00  0.00    +0.000 A 
ATOM     15  C   UNL     1      -0.196  15.269  21.719  0.00  0.00    +0.000 A 
ATOM     16  C   UNL     1      -0.510  15.421  23.071  0.00  0.00    +0.000 A 
ATOM     17  C   UNL     1      -1.094  14.366  23.750  0.00  0.00    +0.000 A 
ATOM     18  C   UNL     1      -1.383  13.156  23.074  0.00  0.00    +0.000 A 
ENDBRANCH  12  13
ENDBRANCH  11  12
ENDBRANCH   1   2
BRANCH   1  19
ATOM     19  N   UNL     1       1.497   9.055  19.355  0.00  0.00    +0.000 N 
ATOM     20  C   UNL     1       2.046   8.667  18.072  0.00  0.00    +0.000 C 
ATOM     21  O   UNL     1       2.015   9.387  17.074  0.00  0.00    +0.000 OA
BRANCH  20  22
ATOM     22  C   UNL     1       2.769   7.391  17.843  0.00  0.00    +0.000 A 
ATOM     23  C   UNL     1       4.157   7.274  17.719  0.00  0.00    +0.000 A 
ATOM     24  C   UNL     1       4.762   5.998  17.651  0.00  0.00    +0.000 A 
ATOM     25  C   UNL     1       3.983   4.836  17.689  0.00  0.00    +0.000 A 
ATOM     26  C   UNL     1       4.534   3.444  17.623  0.00  0.00    +0.000 C 
ATOM     27  C   UNL     1       2.616   4.969  17.873  0.00  0.00    +0.000 A 
ATOM     28  C   UNL     1       2.060   6.232  18.028  0.00  0.00    +0.000 A 
ENDBRANCH  20  22
BRANCH  19  29
ATOM     29  C   UNL     1       1.606   8.139  20.609  0.00  0.00    +0.000 C 
BRANCH  29  30
ATOM     30  C   UNL     1       0.647   8.020  21.963  0.00  0.00    +0.000 C 
BRANCH  30  31
ATOM     31  C   UNL     1      -0.424   9.015  22.629  0.00  0.00    +0.000 C 
BRANCH  31  32
ATOM     32  N   UNL     1       0.047   9.722  23.844  0.00  0.00    +0.000 NA
ATOM     33  H   UNL     1       1.054   9.628  23.923  0.00  0.00    +0.000 HD
ATOM     34  H   UNL     1      -0.321   9.292  24.680  0.00  0.00    +0.000 HD
ENDBRANCH  31  32
ENDBRANCH  30  31
ENDBRANCH  29  30
ENDBRANCH  19  29
ENDBRANCH   1  19
BRANCH   1  36
ATOM     35  C   UNL     1       2.361  12.465  18.187  0.00  0.00    +0.000 C 
ATOM     36  C   UNL     1       1.607  11.845  19.373  0.00  0.00    +0.000 C 
ENDBRANCH   1  36
TORSDOF 10
ENDMDL
MODEL 7
REMARK VINA RESULT:      -6.7      2.277      3.764
REMARK  Name = 
REMARK  12 active torsions:
REMARK  status: ('A' for Active; 'I' for Inactive)
REMARK    1  A    between atoms: C_1  and  C_2
REMARK    2  A    between atoms: C_2  and  C_3
REMARK    3  A    between atoms: C_3  and  C_4
REMARK    4  A    between atoms: C_3  and  N_21
REMARK    5  A    between atoms: N_13  and  C_14
REMARK    6  A    between atoms: C_14  and  C_15
REMARK    7  A    between atoms: N_21  and  C_22
REMARK    8  A    between atoms: C_22  and  C_23
REMARK    9  A    between atoms: C_23  and  C_24
REMARK   10  A    between atoms: C_24  and  N_25
REMARK   11  A    between atoms: C_26  and  C_28
REMARK   12  A    between atoms: C_31  and  C_32
REMARK                            x       y       z     vdW  Elec       q    Type
REMARK                         _______ _______ _______ _____ _____    ______ ____
ROOT
ATOM      1  C   UNL     1       0.672   9.076  20.226  0.00  0.00    +0.000 C 
ENDROOT
BRANCH   1   2
ATOM      2  C   UNL     1       0.641  10.604  19.691  0.00  0.00    +0.000 A 
ATOM      3  N   UNL     1       1.822  11.119  19.624  0.00  0.00    +0.000 NA
ATOM      4  C   UNL     1       1.882  12.428  19.148  0.00  0.00    +0.000 A 
ATOM      5  C   UNL     1       2.980  13.180  18.741  0.00  0.00    +0.000 A 
ATOM      6  C   UNL     1       2.440  14.426  18.417  0.00  0.00    +0.000 A 
ATOM      7  O   UNL     1       1.092  14.431  18.576  0.00  0.00    +0.000 OA
ATOM      8  C   UNL     1       0.758  13.173  18.991  0.00  0.00    +0.000 A 
ATOM      9  C   UNL     1      -0.567  12.658  19.124  0.00  0.00    +0.000 A 
ATOM     10  O   UNL     1      -1.583  13.363  19.245  0.00  0.00    +0.000 OA
ATOM     11  N   UNL     1      -0.547  11.250  19.319  0.00  0.00    +0.000 N 
BRANCH  11  12
ATOM     12  C   UNL     1      -1.865  10.627  19.198  0.00  0.00    +0.000 C 
BRANCH  12  13
ATOM     13  C   UNL     1      -2.635  10.622  17.863  0.00  0.00    +0.000 A 
ATOM     14  C   UNL     1      -3.846  11.277  17.573  0.00  0.00    +0.000 A 
ATOM     15  C   UNL     1      -4.392  11.189  16.253  0.00  0.00    +0.000 A 
ATOM     16  C   UNL     1      -3.736  10.480  15.244  0.00  0.00    +0.000 A 
ATOM     17  C   UNL     1      -2.559   9.818  15.543  0.00  0.00    +0.000 A 
ATOM     18  C   UNL     1      -2.021   9.874  16.851  0.00  0.00    +0.000 A 
ENDBRANCH  12  13
ENDBRANCH  11  12
ENDBRANCH   1   2
BRANCH   1  19
ATOM     19  N   UNL     1       1.705   7.871  19.878  0.00  0.00    +0.000 N 
ATOM     20  C   UNL     1       2.129   7.849  18.493  0.00  0.00    +0.000 C 
ATOM     21  O   UNL     1       1.810   8.708  17.672  0.00  0.00    +0.000 OA
BRANCH  20  22
ATOM     22  C   UNL     1       3.051   6.828  17.935  0.00  0.00    +0.000 A 
ATOM     23  C   UNL     1       2.732   5.478  17.761  0.00  0.00    +0.000 A 
ATOM     24  C   UNL     1       3.626   4.616  17.086  0.00  0.00    +0.000 A 
ATOM     25  C   UNL     1       4.847   5.095  16.597  0.00  0.00    +0.000 A 
ATOM     26  C   UNL     1       5.856   4.258  15.870  0.00  0.00    +0.000 C 
ATOM     27  C   UNL     1       5.120   6.447  16.724  0.00  0.00    +0.000 A 
ATOM     28  C   UNL     1       4.182   7.287  17.312  0.00  0.00    +0.000 A 
ENDBRANCH  20  22
BRANCH  19  29
ATOM     29  C   UNL     1       2.175   6.796  20.901  0.00  0.00    +0.000 C 
BRANCH  29  30
ATOM     30  C   UNL     1       2.452   5.166  20.725  0.00  0.00    +0.000 C 
BRANCH  30  31
ATOM     31  C   UNL     1       1.645   3.866  21.214  0.00  0.00    +0.000 C 
BRANCH  31  32
ATOM     32  N   UNL     1       0.546   3.436  20.317  0.00  0.00    +0.000 NA
ATOM     33  H   UNL     1       0.717   2.487  19.999  0.00  0.00    +0.000 HD
ATOM     34  H   UNL     1       0.525   3.992  19.475  0.00  0.00    +0.000 HD
ENDBRANCH  31  32
ENDBRANCH  30  31
ENDBRANCH  29  30
ENDBRANCH  19  29
ENDBRANCH   1  19
BRANCH   1  36
ATOM     35  C   UNL     1      -0.144   9.954  22.765  0.00  0.00    +0.000 C 
ATOM     36  C   UNL     1      -0.212   8.982  21.577  0.00  0.00    +0.000 C 
ENDBRANCH   1  36
TORSDOF 10
ENDMDL
MODEL 8
REMARK VINA RESULT:      -6.6      2.470      4.142
REMARK  Name = 
REMARK  12 active torsions:
REMARK  status: ('A' for Active; 'I' for Inactive)
REMARK    1  A    between atoms: C_1  and  C_2
REMARK    2  A    between atoms: C_2  and  C_3
REMARK    3  A    between atoms: C_3  and  C_4
REMARK    4  A    between atoms: C_3  and  N_21
REMARK    5  A    between atoms: N_13  and  C_14
REMARK    6  A    between atoms: C_14  and  C_15
REMARK    7  A    between atoms: N_21  and  C_22
REMARK    8  A    between atoms: C_22  and  C_23
REMARK    9  A    between atoms: C_23  and  C_24
REMARK   10  A    between atoms: C_24  and  N_25
REMARK   11  A    between atoms: C_26  and  C_28
REMARK   12  A    between atoms: C_31  and  C_32
REMARK                            x       y       z     vdW  Elec       q    Type
REMARK                         _______ _______ _______ _____ _____    ______ ____
ROOT
ATOM      1  C   UNL     1       1.069  10.023  19.239  0.00  0.00    +0.000 C 
ENDROOT
BRANCH   1   2
ATOM      2  C   UNL     1      -0.434  10.517  18.893  0.00  0.00    +0.000 A 
ATOM      3  N   UNL     1      -0.776  10.221  17.685  0.00  0.00    +0.000 NA
ATOM      4  C   UNL     1      -2.068  10.593  17.318  0.00  0.00    +0.000 A 
ATOM      5  C   UNL     1      -2.818  10.231  16.202  0.00  0.00    +0.000 A 
ATOM      6  C   UNL     1      -4.010  10.944  16.343  0.00  0.00    +0.000 A 
ATOM      7  O   UNL     1      -4.011  11.670  17.491  0.00  0.00    +0.000 OA
ATOM      8  C   UNL     1      -2.818  11.409  18.103  0.00  0.00    +0.000 A 
ATOM      9  C   UNL     1      -2.444  11.816  19.419  0.00  0.00    +0.000 A 
ATOM     10  O   UNL     1      -2.972  12.754  20.038  0.00  0.00    +0.000 OA
ATOM     11  N   UNL     1      -1.254  11.158  19.834  0.00  0.00    +0.000 N 
BRANCH  11  12
ATOM     12  C   UNL     1      -0.964  11.325  21.258  0.00  0.00    +0.000 C 
BRANCH  12  13
ATOM     13  C   UNL     1      -0.641  12.707  21.858  0.00  0.00    +0.000 A 
ATOM     14  C   UNL     1       0.259  13.666  21.359  0.00  0.00    +0.000 A 
ATOM     15  C   UNL     1       0.395  14.920  22.038  0.00  0.00    +0.000 A 
ATOM     16  C   UNL     1      -0.362  15.214  23.174  0.00  0.00    +0.000 A 
ATOM     17  C   UNL     1      -1.226  14.255  23.673  0.00  0.00    +0.000 A 
ATOM     18  C   UNL     1      -1.351  13.002  23.028  0.00  0.00    +0.000 A 
ENDBRANCH  12  13
ENDBRANCH  11  12
ENDBRANCH   1   2
BRANCH   1  19
ATOM     19  N   UNL     1       1.669   8.519  19.362  0.00  0.00    +0.000 N 
ATOM     20  C   UNL     1       2.182   7.992  18.114  0.00  0.00    +0.000 C 
ATOM     21  O   UNL     1       2.242   8.648  17.074  0.00  0.00    +0.000 OA
BRANCH  20  22
ATOM     22  C   UNL     1       2.758   6.632  17.974  0.00  0.00    +0.000 A 
ATOM     23  C   UNL     1       4.056   6.275  18.348  0.00  0.00    +0.000 A 
ATOM     24  C   UNL     1       4.463   4.922  18.312  0.00  0.00    +0.000 A 
ATOM     25  C   UNL     1       3.579   3.923  17.888  0.00  0.00    +0.000 A 
ATOM     26  C   UNL     1       3.920   2.464  17.816  0.00  0.00    +0.000 C 
ATOM     27  C   UNL     1       2.278   4.285  17.578  0.00  0.00    +0.000 A 
ATOM     28  C   UNL     1       1.882   5.610  17.710  0.00  0.00    +0.000 A 
ENDBRANCH  20  22
BRANCH  19  29
ATOM     29  C   UNL     1       1.662   7.676  20.671  0.00  0.00    +0.000 C 
BRANCH  29  30
ATOM     30  C   UNL     1       1.271   6.083  20.943  0.00  0.00    +0.000 C 
BRANCH  30  31
ATOM     31  C   UNL     1       2.162   4.777  21.228  0.00  0.00    +0.000 C 
BRANCH  31  32
ATOM     32  N   UNL     1       1.442   3.487  21.111  0.00  0.00    +0.000 NA
ATOM     33  H   UNL     1       1.410   3.031  22.017  0.00  0.00    +0.000 HD
ATOM     34  H   UNL     1       1.942   2.844  20.514  0.00  0.00    +0.000 HD
ENDBRANCH  31  32
ENDBRANCH  30  31
ENDBRANCH  29  30
ENDBRANCH  19  29
ENDBRANCH   1  19
BRANCH   1  36
ATOM     35  C   UNL     1       1.722  12.615  18.378  0.00  0.00    +0.000 C 
ATOM     36  C   UNL     1       2.089  11.253  18.988  0.00  0.00    +0.000 C 
ENDBRANCH   1  36
TORSDOF 10
ENDMDL
MODEL 9
REMARK VINA RESULT:      -6.6      2.043      3.661
REMARK  Name = 
REMARK  12 active torsions:
REMARK  status: ('A' for Active; 'I' for Inactive)
REMARK    1  A    between atoms: C_1  and  C_2
REMARK    2  A    between atoms: C_2  and  C_3
REMARK    3  A    between atoms: C_3  and  C_4
REMARK    4  A    between atoms: C_3  and  N_21
REMARK    5  A    between atoms: N_13  and  C_14
REMARK    6  A    between atoms: C_14  and  C_15
REMARK    7  A    between atoms: N_21  and  C_22
REMARK    8  A    between atoms: C_22  and  C_23
REMARK    9  A    between atoms: C_23  and  C_24
REMARK   10  A    between atoms: C_24  and  N_25
REMARK   11  A    between atoms: C_26  and  C_28
REMARK   12  A    between atoms: C_31  and  C_32
REMARK                            x       y       z     vdW  Elec       q    Type
REMARK                         _______ _______ _______ _____ _____    ______ ____
ROOT
ATOM      1  C   UNL     1       0.757  10.678  19.248  0.00  0.00    +0.000 C 
ENDROOT
BRANCH   1   2
ATOM      2  C   UNL     1      -0.795  11.117  19.103  0.00  0.00    +0.000 A 
ATOM      3  N   UNL     1      -1.348  10.607  18.055  0.00  0.00    +0.000 NA
ATOM      4  C   UNL     1      -2.694  10.920  17.874  0.00  0.00    +0.000 A 
ATOM      5  C   UNL     1      -3.629  10.367  17.003  0.00  0.00    +0.000 A 
ATOM      6  C   UNL     1      -4.790  11.107  17.230  0.00  0.00    +0.000 A 
ATOM      7  O   UNL     1      -4.596  12.032  18.206  0.00  0.00    +0.000 OA
ATOM      8  C   UNL     1      -3.304  11.875  18.621  0.00  0.00    +0.000 A 
ATOM      9  C   UNL     1      -2.702  12.513  19.748  0.00  0.00    +0.000 A 
ATOM     10  O   UNL     1      -3.129  13.555  20.273  0.00  0.00    +0.000 OA
ATOM     11  N   UNL     1      -1.441  11.929  20.048  0.00  0.00    +0.000 N 
BRANCH  11  12
ATOM     12  C   UNL     1      -0.896  12.352  21.337  0.00  0.00    +0.000 C 
BRANCH  12  13
ATOM     13  C   UNL     1      -1.814  12.775  22.501  0.00  0.00    +0.000 A 
ATOM     14  C   UNL     1      -2.847  12.024  23.091  0.00  0.00    +0.000 A 
ATOM     15  C   UNL     1      -3.568  12.574  24.198  0.00  0.00    +0.000 A 
ATOM     16  C   UNL     1      -3.254  13.833  24.714  0.00  0.00    +0.000 A 
ATOM     17  C   UNL     1      -2.255  14.577  24.111  0.00  0.00    +0.000 A 
ATOM     18  C   UNL     1      -1.551  14.057  22.999  0.00  0.00    +0.000 A 
ENDBRANCH  12  13
ENDBRANCH  11  12
ENDBRANCH   1   2
BRANCH   1  19
ATOM     19  N   UNL     1       1.413   9.199  19.392  0.00  0.00    +0.000 N 
ATOM     20  C   UNL     1       1.995   8.698  18.164  0.00  0.00    +0.000 C 
ATOM     21  O   UNL     1       2.068   9.359  17.128  0.00  0.00    +0.000 OA
BRANCH  20  22
ATOM     22  C   UNL     1       2.630   7.362  18.044  0.00  0.00    +0.000 A 
ATOM     23  C   UNL     1       1.958   6.145  18.186  0.00  0.00    +0.000 A 
ATOM     24  C   UNL     1       2.620   4.927  17.909  0.00  0.00    +0.000 A 
ATOM     25  C   UNL     1       3.960   4.920  17.504  0.00  0.00    +0.000 A 
ATOM     26  C   UNL     1       4.743   3.682  17.189  0.00  0.00    +0.000 C 
ATOM     27  C   UNL     1       4.593   6.137  17.311  0.00  0.00    +0.000 A 
ATOM     28  C   UNL     1       3.890   7.319  17.504  0.00  0.00    +0.000 A 
ENDBRANCH  20  22
BRANCH  19  29
ATOM     29  C   UNL     1       1.390   8.353  20.699  0.00  0.00    +0.000 C 
BRANCH  29  30
ATOM     30  C   UNL     1       0.181   8.088  21.809  0.00  0.00    +0.000 C 
BRANCH  30  31
ATOM     31  C   UNL     1      -0.608   9.063  22.813  0.00  0.00    +0.000 C 
BRANCH  31  32
ATOM     32  N   UNL     1       0.253   9.866  23.714  0.00  0.00    +0.000 NA
ATOM     33  H   UNL     1       0.666  10.634  23.195  0.00  0.00    +0.000 HD
ATOM     34  H   UNL     1       1.039   9.324  24.044  0.00  0.00    +0.000 HD
ENDBRANCH  31  32
ENDBRANCH  30  31
ENDBRANCH  29  30
ENDBRANCH  19  29
ENDBRANCH   1  19
BRANCH   1  36
ATOM     35  C   UNL     1       2.149  13.092  19.603  0.00  0.00    +0.000 C 
ATOM     36  C   UNL     1       1.690  11.901  18.746  0.00  0.00    +0.000 C 
ENDBRANCH   1  36
TORSDOF 10
ENDMDL
