MODEL 1
REMARK VINA RESULT:      -6.2      0.000      0.000
REMARK  Name = 
REMARK  18 active torsions:
REMARK  status: ('A' for Active; 'I' for Inactive)
REMARK    1  A    between atoms: C_1  and  C_2
REMARK    2  A    between atoms: C_2  and  C_3
REMARK    3  A    between atoms: C_3  and  C_4
REMARK    4  A    between atoms: C_4  and  C_5
REMARK    5  A    between atoms: C_5  and  C_6
REMARK    6  A    between atoms: C_6  and  C_7
REMARK    7  A    between atoms: C_7  and  C_8
REMARK    8  A    between atoms: C_8  and  C_9
REMARK    9  A    between atoms: C_9  and  C_10
REMARK   10  A    between atoms: C_10  and  C_11
REMARK   11  A    between atoms: C_11  and  C_12
REMARK   12  A    between atoms: C_12  and  C_14
REMARK   13  A    between atoms: C_14  and  C_15
REMARK   14  A    between atoms: C_15  and  O_16
REMARK   15  A    between atoms: O_16  and  C_17
REMARK   16  A    between atoms: C_20  and  C_21
REMARK   17  A    between atoms: C_21  and  O_23
REMARK   18  A    between atoms: O_23  and  C_24
REMARK                            x       y       z     vdW  Elec       q    Type
REMARK                         _______ _______ _______ _____ _____    ______ ____
ROOT
ATOM      1  C   UNL     1       1.623   3.628  20.282  0.00  0.00    +0.000 C 
ATOM      2 CL   UNL     1       1.355   2.689  21.788  0.00  0.00    +0.000 Cl
ENDROOT
BRANCH   1   3
ATOM      3  C   UNL     1       0.996   2.874  19.105  0.00  0.00    +0.000 C 
BRANCH   3   4
ATOM      4  C   UNL     1       2.050   2.415  18.102  0.00  0.00    +0.000 C 
BRANCH   4   5
ATOM      5  O   UNL     1       3.325   2.413  18.741  0.00  0.00    +0.000 OA
BRANCH   5   6
ATOM      6  C   UNL     1       4.240   3.270  18.189  0.00  0.00    +0.000 A 
ATOM      7  C   UNL     1       5.123   3.862  19.091  0.00  0.00    +0.000 A 
ATOM      8  C   UNL     1       6.084   4.765  18.638  0.00  0.00    +0.000 A 
ATOM      9  C   UNL     1       6.189   5.060  17.268  0.00  0.00    +0.000 A 
ATOM     10  C   UNL     1       5.311   4.461  16.368  0.00  0.00    +0.000 A 
ATOM     11  C   UNL     1       4.339   3.566  16.827  0.00  0.00    +0.000 A 
BRANCH   9  12
ATOM     12  C   UNL     1       7.244   6.012  16.849  0.00  0.00    +0.000 C 
ATOM     13  O   UNL     1       7.666   6.092  15.701  0.00  0.00    +0.000 OA
BRANCH  12  14
ATOM     14  O   UNL     1       7.654   6.767  17.895  0.00  0.00    +0.000 OA
ATOM     15  C   UNL     1       7.671   8.165  17.616  0.00  0.00    +0.000 C 
ENDBRANCH  12  14
ENDBRANCH   9  12
ENDBRANCH   5   6
ENDBRANCH   4   5
ENDBRANCH   3   4
ENDBRANCH   1   3
BRANCH   1  16
ATOM     16  C   UNL     1       1.044   5.041  20.426  0.00  0.00    +0.000 C 
BRANCH  16  17
ATOM     17  C   UNL     1       2.072   6.125  20.126  0.00  0.00    +0.000 C 
BRANCH  17  18
ATOM     18  C   UNL     1       2.425   6.151  18.645  0.00  0.00    +0.000 C 
BRANCH  18  19
ATOM     19  C   UNL     1       2.919   7.539  18.265  0.00  0.00    +0.000 C 
BRANCH  19  20
ATOM     20  C   UNL     1       1.810   8.344  17.607  0.00  0.00    +0.000 C 
BRANCH  20  21
ATOM     21  C   UNL     1       1.761   9.750  18.186  0.00  0.00    +0.000 C 
BRANCH  21  22
ATOM     22  C   UNL     1       0.625   9.870  19.191  0.00  0.00    +0.000 C 
BRANCH  22  23
ATOM     23  C   UNL     1       0.841  11.067  20.107  0.00  0.00    +0.000 C 
BRANCH  23  24
ATOM     24  C   UNL     1       0.912  12.355  19.294  0.00  0.00    +0.000 C 
BRANCH  24  26
ATOM     25  C   UNL     1       2.848  13.601  18.304  0.00  0.00    +0.000 C 
ATOM     26  C   UNL     1       2.198  13.119  19.588  0.00  0.00    +0.000 C 
ENDBRANCH  24  26
ENDBRANCH  23  24
ENDBRANCH  22  23
ENDBRANCH  21  22
ENDBRANCH  20  21
ENDBRANCH  19  20
ENDBRANCH  18  19
ENDBRANCH  17  18
ENDBRANCH  16  17
ENDBRANCH   1  16
TORSDOF 16
ENDMDL
MODEL 2
REMARK VINA RESULT:      -6.1      3.534      7.582
REMARK  Name = 
REMARK  18 active torsions:
REMARK  status: ('A' for Active; 'I' for Inactive)
REMARK    1  A    between atoms: C_1  and  C_2
REMARK    2  A    between atoms: C_2  and  C_3
REMARK    3  A    between atoms: C_3  and  C_4
REMARK    4  A    between atoms: C_4  and  C_5
REMARK    5  A    between atoms: C_5  and  C_6
REMARK    6  A    between atoms: C_6  and  C_7
REMARK    7  A    between atoms: C_7  and  C_8
REMARK    8  A    between atoms: C_8  and  C_9
REMARK    9  A    between atoms: C_9  and  C_10
REMARK   10  A    between atoms: C_10  and  C_11
REMARK   11  A    between atoms: C_11  and  C_12
REMARK   12  A    between atoms: C_12  and  C_14
REMARK   13  A    between atoms: C_14  and  C_15
REMARK   14  A    between atoms: C_15  and  O_16
REMARK   15  A    between atoms: O_16  and  C_17
REMARK   16  A    between atoms: C_20  and  C_21
REMARK   17  A    between atoms: C_21  and  O_23
REMARK   18  A    between atoms: O_23  and  C_24
REMARK                            x       y       z     vdW  Elec       q    Type
REMARK                         _______ _______ _______ _____ _____    ______ ____
ROOT
ATOM      1  C   UNL     1       1.822   3.262  19.224  0.00  0.00    +0.000 C 
ATOM      2 CL   UNL     1       0.552   2.102  18.712  0.00  0.00    +0.000 Cl
ENDROOT
BRANCH   1   3
ATOM      3  C   UNL     1       1.634   3.584  20.710  0.00  0.00    +0.000 C 
BRANCH   3   4
ATOM      4  C   UNL     1       2.235   4.937  21.076  0.00  0.00    +0.000 C 
BRANCH   4   5
ATOM      5  O   UNL     1       2.655   5.594  19.881  0.00  0.00    +0.000 OA
BRANCH   5   6
ATOM      6  C   UNL     1       2.189   6.874  19.742  0.00  0.00    +0.000 A 
ATOM      7  C   UNL     1       2.454   7.476  18.513  0.00  0.00    +0.000 A 
ATOM      8  C   UNL     1       2.040   8.785  18.270  0.00  0.00    +0.000 A 
ATOM      9  C   UNL     1       1.327   9.494  19.251  0.00  0.00    +0.000 A 
ATOM     10  C   UNL     1       1.055   8.889  20.475  0.00  0.00    +0.000 A 
ATOM     11  C   UNL     1       1.484   7.581  20.721  0.00  0.00    +0.000 A 
BRANCH   9  12
ATOM     12  C   UNL     1       0.897  10.875  18.924  0.00  0.00    +0.000 C 
ATOM     13  O   UNL     1       1.627  11.704  18.394  0.00  0.00    +0.000 OA
BRANCH  12  14
ATOM     14  O   UNL     1      -0.395  11.073  19.279  0.00  0.00    +0.000 OA
ATOM     15  C   UNL     1      -1.318  10.863  18.214  0.00  0.00    +0.000 C 
ENDBRANCH  12  14
ENDBRANCH   9  12
ENDBRANCH   5   6
ENDBRANCH   4   5
ENDBRANCH   3   4
ENDBRANCH   1   3
BRANCH   1  16
ATOM     16  C   UNL     1       3.215   2.687  18.939  0.00  0.00    +0.000 C 
BRANCH  16  17
ATOM     17  C   UNL     1       3.650   2.905  17.495  0.00  0.00    +0.000 C 
BRANCH  17  18
ATOM     18  C   UNL     1       4.760   3.943  17.408  0.00  0.00    +0.000 C 
BRANCH  18  19
ATOM     19  C   UNL     1       5.009   4.299  15.949  0.00  0.00    +0.000 C 
BRANCH  19  20
ATOM     20  C   UNL     1       6.447   4.748  15.742  0.00  0.00    +0.000 C 
BRANCH  20  21
ATOM     21  C   UNL     1       6.814   4.685  14.267  0.00  0.00    +0.000 C 
BRANCH  21  22
ATOM     22  C   UNL     1       5.719   3.981  13.478  0.00  0.00    +0.000 C 
BRANCH  22  23
ATOM     23  C   UNL     1       6.316   3.177  12.330  0.00  0.00    +0.000 C 
BRANCH  23  24
ATOM     24  C   UNL     1       5.211   2.604  11.449  0.00  0.00    +0.000 C 
BRANCH  24  26
ATOM     25  C   UNL     1       3.256   3.462  10.136  0.00  0.00    +0.000 C 
ATOM     26  C   UNL     1       3.974   3.495  11.474  0.00  0.00    +0.000 C 
ENDBRANCH  24  26
ENDBRANCH  23  24
ENDBRANCH  22  23
ENDBRANCH  21  22
ENDBRANCH  20  21
ENDBRANCH  19  20
ENDBRANCH  18  19
ENDBRANCH  17  18
ENDBRANCH  16  17
ENDBRANCH   1  16
TORSDOF 16
ENDMDL
MODEL 3
REMARK VINA RESULT:      -5.9      3.299      7.211
REMARK  Name = 
REMARK  18 active torsions:
REMARK  status: ('A' for Active; 'I' for Inactive)
REMARK    1  A    between atoms: C_1  and  C_2
REMARK    2  A    between atoms: C_2  and  C_3
REMARK    3  A    between atoms: C_3  and  C_4
REMARK    4  A    between atoms: C_4  and  C_5
REMARK    5  A    between atoms: C_5  and  C_6
REMARK    6  A    between atoms: C_6  and  C_7
REMARK    7  A    between atoms: C_7  and  C_8
REMARK    8  A    between atoms: C_8  and  C_9
REMARK    9  A    between atoms: C_9  and  C_10
REMARK   10  A    between atoms: C_10  and  C_11
REMARK   11  A    between atoms: C_11  and  C_12
REMARK   12  A    between atoms: C_12  and  C_14
REMARK   13  A    between atoms: C_14  and  C_15
REMARK   14  A    between atoms: C_15  and  O_16
REMARK   15  A    between atoms: O_16  and  C_17
REMARK   16  A    between atoms: C_20  and  C_21
REMARK   17  A    between atoms: C_21  and  O_23
REMARK   18  A    between atoms: O_23  and  C_24
REMARK                            x       y       z     vdW  Elec       q    Type
REMARK                         _______ _______ _______ _____ _____    ______ ____
ROOT
ATOM      1  C   UNL     1       6.450   5.627  18.239  0.00  0.00    +0.000 C 
ATOM      2 CL   UNL     1       7.777   4.586  17.624  0.00  0.00    +0.000 Cl
ENDROOT
BRANCH   1   3
ATOM      3  C   UNL     1       5.705   6.241  17.050  0.00  0.00    +0.000 C 
BRANCH   3   4
ATOM      4  C   UNL     1       4.848   7.430  17.472  0.00  0.00    +0.000 C 
BRANCH   4   5
ATOM      5  O   UNL     1       3.474   7.058  17.397  0.00  0.00    +0.000 OA
BRANCH   5   6
ATOM      6  C   UNL     1       2.637   7.811  18.176  0.00  0.00    +0.000 A 
ATOM      7  C   UNL     1       2.430   7.331  19.469  0.00  0.00    +0.000 A 
ATOM      8  C   UNL     1       1.582   8.011  20.342  0.00  0.00    +0.000 A 
ATOM      9  C   UNL     1       0.955   9.201  19.935  0.00  0.00    +0.000 A 
ATOM     10  C   UNL     1       1.169   9.684  18.647  0.00  0.00    +0.000 A 
ATOM     11  C   UNL     1       2.009   8.992  17.769  0.00  0.00    +0.000 A 
BRANCH   9  12
ATOM     12  C   UNL     1       0.082   9.887  20.916  0.00  0.00    +0.000 C 
ATOM     13  O   UNL     1      -0.273  11.055  20.806  0.00  0.00    +0.000 OA
BRANCH  12  14
ATOM     14  O   UNL     1      -0.265   9.049  21.921  0.00  0.00    +0.000 OA
ATOM     15  C   UNL     1      -0.265   9.667  23.206  0.00  0.00    +0.000 C 
ENDBRANCH  12  14
ENDBRANCH   9  12
ENDBRANCH   5   6
ENDBRANCH   4   5
ENDBRANCH   3   4
ENDBRANCH   1   3
BRANCH   1  16
ATOM     16  C   UNL     1       5.512   4.816  19.141  0.00  0.00    +0.000 C 
BRANCH  16  17
ATOM     17  C   UNL     1       4.685   3.802  18.360  0.00  0.00    +0.000 C 
BRANCH  17  18
ATOM     18  C   UNL     1       4.284   2.628  19.240  0.00  0.00    +0.000 C 
BRANCH  18  19
ATOM     19  C   UNL     1       3.602   1.565  18.390  0.00  0.00    +0.000 C 
BRANCH  19  20
ATOM     20  C   UNL     1       2.717   2.206  17.334  0.00  0.00    +0.000 C 
BRANCH  20  21
ATOM     21  C   UNL     1       1.682   3.111  17.989  0.00  0.00    +0.000 C 
BRANCH  21  22
ATOM     22  C   UNL     1       0.691   2.284  18.796  0.00  0.00    +0.000 C 
BRANCH  22  23
ATOM     23  C   UNL     1       0.372   2.969  20.118  0.00  0.00    +0.000 C 
BRANCH  23  24
ATOM     24  C   UNL     1       1.134   4.285  20.235  0.00  0.00    +0.000 C 
BRANCH  24  26
ATOM     25  C   UNL     1       2.207   2.850  21.987  0.00  0.00    +0.000 C 
ATOM     26  C   UNL     1       2.119   4.246  21.398  0.00  0.00    +0.000 C 
ENDBRANCH  24  26
ENDBRANCH  23  24
ENDBRANCH  22  23
ENDBRANCH  21  22
ENDBRANCH  20  21
ENDBRANCH  19  20
ENDBRANCH  18  19
ENDBRANCH  17  18
ENDBRANCH  16  17
ENDBRANCH   1  16
TORSDOF 16
ENDMDL
MODEL 4
REMARK VINA RESULT:      -5.9      3.639      7.709
REMARK  Name = 
REMARK  18 active torsions:
REMARK  status: ('A' for Active; 'I' for Inactive)
REMARK    1  A    between atoms: C_1  and  C_2
REMARK    2  A    between atoms: C_2  and  C_3
REMARK    3  A    between atoms: C_3  and  C_4
REMARK    4  A    between atoms: C_4  and  C_5
REMARK    5  A    between atoms: C_5  and  C_6
REMARK    6  A    between atoms: C_6  and  C_7
REMARK    7  A    between atoms: C_7  and  C_8
REMARK    8  A    between atoms: C_8  and  C_9
REMARK    9  A    between atoms: C_9  and  C_10
REMARK   10  A    between atoms: C_10  and  C_11
REMARK   11  A    between atoms: C_11  and  C_12
REMARK   12  A    between atoms: C_12  and  C_14
REMARK   13  A    between atoms: C_14  and  C_15
REMARK   14  A    between atoms: C_15  and  O_16
REMARK   15  A    between atoms: O_16  and  C_17
REMARK   16  A    between atoms: C_20  and  C_21
REMARK   17  A    between atoms: C_21  and  O_23
REMARK   18  A    between atoms: O_23  and  C_24
REMARK                            x       y       z     vdW  Elec       q    Type
REMARK                         _______ _______ _______ _____ _____    ______ ____
ROOT
ATOM      1  C   UNL     1       2.630   2.915  18.695  0.00  0.00    +0.000 C 
ATOM      2 CL   UNL     1       3.604   1.409  18.623  0.00  0.00    +0.000 Cl
ENDROOT
BRANCH   1   3
ATOM      3  C   UNL     1       3.108   3.763  19.878  0.00  0.00    +0.000 C 
BRANCH   3   4
ATOM      4  C   UNL     1       2.252   5.013  20.060  0.00  0.00    +0.000 C 
BRANCH   4   5
ATOM      5  O   UNL     1       3.038   6.160  19.743  0.00  0.00    +0.000 OA
BRANCH   5   6
ATOM      6  C   UNL     1       2.320   7.315  19.583  0.00  0.00    +0.000 A 
ATOM      7  C   UNL     1       2.325   7.847  18.294  0.00  0.00    +0.000 A 
ATOM      8  C   UNL     1       1.640   9.031  18.023  0.00  0.00    +0.000 A 
ATOM      9  C   UNL     1       0.916   9.678  19.039  0.00  0.00    +0.000 A 
ATOM     10  C   UNL     1       0.905   9.141  20.324  0.00  0.00    +0.000 A 
ATOM     11  C   UNL     1       1.605   7.960  20.595  0.00  0.00    +0.000 A 
BRANCH   9  12
ATOM     12  C   UNL     1       0.192  10.921  18.682  0.00  0.00    +0.000 C 
ATOM     13  O   UNL     1       0.699  12.036  18.728  0.00  0.00    +0.000 OA
BRANCH  12  14
ATOM     14  O   UNL     1      -1.076  10.646  18.298  0.00  0.00    +0.000 OA
ATOM     15  C   UNL     1      -1.922  11.793  18.258  0.00  0.00    +0.000 C 
ENDBRANCH  12  14
ENDBRANCH   9  12
ENDBRANCH   5   6
ENDBRANCH   4   5
ENDBRANCH   3   4
ENDBRANCH   1   3
BRANCH   1  16
ATOM     16  C   UNL     1       2.732   3.679  17.370  0.00  0.00    +0.000 C 
BRANCH  16  17
ATOM     17  C   UNL     1       4.175   3.917  16.944  0.00  0.00    +0.000 C 
BRANCH  17  18
ATOM     18  C   UNL     1       4.483   5.405  16.859  0.00  0.00    +0.000 C 
BRANCH  18  19
ATOM     19  C   UNL     1       5.989   5.609  16.781  0.00  0.00    +0.000 C 
BRANCH  19  20
ATOM     20  C   UNL     1       6.659   4.420  16.112  0.00  0.00    +0.000 C 
BRANCH  20  21
ATOM     21  C   UNL     1       6.989   4.745  14.662  0.00  0.00    +0.000 C 
BRANCH  21  22
ATOM     22  C   UNL     1       5.852   4.307  13.749  0.00  0.00    +0.000 C 
BRANCH  22  23
ATOM     23  C   UNL     1       6.249   3.073  12.951  0.00  0.00    +0.000 C 
BRANCH  23  24
ATOM     24  C   UNL     1       5.574   3.081  11.584  0.00  0.00    +0.000 C 
BRANCH  24  26
ATOM     25  C   UNL     1       3.342   3.168  10.446  0.00  0.00    +0.000 C 
ATOM     26  C   UNL     1       4.125   3.543  11.692  0.00  0.00    +0.000 C 
ENDBRANCH  24  26
ENDBRANCH  23  24
ENDBRANCH  22  23
ENDBRANCH  21  22
ENDBRANCH  20  21
ENDBRANCH  19  20
ENDBRANCH  18  19
ENDBRANCH  17  18
ENDBRANCH  16  17
ENDBRANCH   1  16
TORSDOF 16
ENDMDL
MODEL 5
REMARK VINA RESULT:      -5.8      3.231      7.063
REMARK  Name = 
REMARK  18 active torsions:
REMARK  status: ('A' for Active; 'I' for Inactive)
REMARK    1  A    between atoms: C_1  and  C_2
REMARK    2  A    between atoms: C_2  and  C_3
REMARK    3  A    between atoms: C_3  and  C_4
REMARK    4  A    between atoms: C_4  and  C_5
REMARK    5  A    between atoms: C_5  and  C_6
REMARK    6  A    between atoms: C_6  and  C_7
REMARK    7  A    between atoms: C_7  and  C_8
REMARK    8  A    between atoms: C_8  and  C_9
REMARK    9  A    between atoms: C_9  and  C_10
REMARK   10  A    between atoms: C_10  and  C_11
REMARK   11  A    between atoms: C_11  and  C_12
REMARK   12  A    between atoms: C_12  and  C_14
REMARK   13  A    between atoms: C_14  and  C_15
REMARK   14  A    between atoms: C_15  and  O_16
REMARK   15  A    between atoms: O_16  and  C_17
REMARK   16  A    between atoms: C_20  and  C_21
REMARK   17  A    between atoms: C_21  and  O_23
REMARK   18  A    between atoms: O_23  and  C_24
REMARK                            x       y       z     vdW  Elec       q    Type
REMARK                         _______ _______ _______ _____ _____    ______ ____
ROOT
ATOM      1  C   UNL     1       1.692   3.442  21.150  0.00  0.00    +0.000 C 
ATOM      2 CL   UNL     1       2.970   2.233  21.504  0.00  0.00    +0.000 Cl
ENDROOT
BRANCH   1   3
ATOM      3  C   UNL     1       2.280   4.849  21.299  0.00  0.00    +0.000 C 
BRANCH   3   4
ATOM      4  C   UNL     1       1.513   5.873  20.468  0.00  0.00    +0.000 C 
BRANCH   4   5
ATOM      5  O   UNL     1       2.441   6.801  19.910  0.00  0.00    +0.000 OA
BRANCH   5   6
ATOM      6  C   UNL     1       1.896   8.006  19.553  0.00  0.00    +0.000 A 
ATOM      7  C   UNL     1       1.176   8.655  20.555  0.00  0.00    +0.000 A 
ATOM      8  C   UNL     1       0.564   9.881  20.295  0.00  0.00    +0.000 A 
ATOM      9  C   UNL     1       0.695  10.483  19.033  0.00  0.00    +0.000 A 
ATOM     10  C   UNL     1       1.421   9.837  18.035  0.00  0.00    +0.000 A 
ATOM     11  C   UNL     1       2.022   8.601  18.295  0.00  0.00    +0.000 A 
BRANCH   9  12
ATOM     12  C   UNL     1       0.038  11.796  18.825  0.00  0.00    +0.000 C 
ATOM     13  O   UNL     1       0.644  12.816  18.520  0.00  0.00    +0.000 OA
BRANCH  12  14
ATOM     14  O   UNL     1      -1.300  11.698  19.009  0.00  0.00    +0.000 OA
ATOM     15  C   UNL     1      -2.023  11.434  17.809  0.00  0.00    +0.000 C 
ENDBRANCH  12  14
ENDBRANCH   9  12
ENDBRANCH   5   6
ENDBRANCH   4   5
ENDBRANCH   3   4
ENDBRANCH   1   3
BRANCH   1  16
ATOM     16  C   UNL     1       1.115   3.212  19.748  0.00  0.00    +0.000 C 
BRANCH  16  17
ATOM     17  C   UNL     1       1.639   1.935  19.104  0.00  0.00    +0.000 C 
BRANCH  17  18
ATOM     18  C   UNL     1       2.275   2.223  17.752  0.00  0.00    +0.000 C 
BRANCH  18  19
ATOM     19  C   UNL     1       3.715   2.676  17.954  0.00  0.00    +0.000 C 
BRANCH  19  20
ATOM     20  C   UNL     1       4.077   3.774  16.968  0.00  0.00    +0.000 C 
BRANCH  20  21
ATOM     21  C   UNL     1       3.912   5.142  17.615  0.00  0.00    +0.000 C 
BRANCH  21  22
ATOM     22  C   UNL     1       4.953   6.113  17.075  0.00  0.00    +0.000 C 
BRANCH  22  23
ATOM     23  C   UNL     1       5.320   5.763  15.640  0.00  0.00    +0.000 C 
BRANCH  23  24
ATOM     24  C   UNL     1       6.763   5.278  15.561  0.00  0.00    +0.000 C 
BRANCH  24  26
ATOM     25  C   UNL     1       6.033   3.856  13.631  0.00  0.00    +0.000 C 
ATOM     26  C   UNL     1       7.104   4.796  14.155  0.00  0.00    +0.000 C 
ENDBRANCH  24  26
ENDBRANCH  23  24
ENDBRANCH  22  23
ENDBRANCH  21  22
ENDBRANCH  20  21
ENDBRANCH  19  20
ENDBRANCH  18  19
ENDBRANCH  17  18
ENDBRANCH  16  17
ENDBRANCH   1  16
TORSDOF 16
ENDMDL
MODEL 6
REMARK VINA RESULT:      -5.8      2.959      6.257
REMARK  Name = 
REMARK  18 active torsions:
REMARK  status: ('A' for Active; 'I' for Inactive)
REMARK    1  A    between atoms: C_1  and  C_2
REMARK    2  A    between atoms: C_2  and  C_3
REMARK    3  A    between atoms: C_3  and  C_4
REMARK    4  A    between atoms: C_4  and  C_5
REMARK    5  A    between atoms: C_5  and  C_6
REMARK    6  A    between atoms: C_6  and  C_7
REMARK    7  A    between atoms: C_7  and  C_8
REMARK    8  A    between atoms: C_8  and  C_9
REMARK    9  A    between atoms: C_9  and  C_10
REMARK   10  A    between atoms: C_10  and  C_11
REMARK   11  A    between atoms: C_11  and  C_12
REMARK   12  A    between atoms: C_12  and  C_14
REMARK   13  A    between atoms: C_14  and  C_15
REMARK   14  A    between atoms: C_15  and  O_16
REMARK   15  A    between atoms: O_16  and  C_17
REMARK   16  A    between atoms: C_20  and  C_21
REMARK   17  A    between atoms: C_21  and  O_23
REMARK   18  A    between atoms: O_23  and  C_24
REMARK                            x       y       z     vdW  Elec       q    Type
REMARK                         _______ _______ _______ _____ _____    ______ ____
ROOT
ATOM      1  C   UNL     1       2.160   2.186  19.216  0.00  0.00    +0.000 C 
ATOM      2 CL   UNL     1       3.886   1.734  19.408  0.00  0.00    +0.000 Cl
ENDROOT
BRANCH   1   3
ATOM      3  C   UNL     1       1.711   2.978  20.448  0.00  0.00    +0.000 C 
BRANCH   3   4
ATOM      4  C   UNL     1       0.963   4.250  20.061  0.00  0.00    +0.000 C 
BRANCH   4   5
ATOM      5  O   UNL     1       1.706   5.379  20.514  0.00  0.00    +0.000 OA
BRANCH   5   6
ATOM      6  C   UNL     1       2.685   5.799  19.653  0.00  0.00    +0.000 A 
ATOM      7  C   UNL     1       3.959   5.289  19.902  0.00  0.00    +0.000 A 
ATOM      8  C   UNL     1       5.033   5.664  19.096  0.00  0.00    +0.000 A 
ATOM      9  C   UNL     1       4.833   6.533  18.011  0.00  0.00    +0.000 A 
ATOM     10  C   UNL     1       3.559   7.035  17.758  0.00  0.00    +0.000 A 
ATOM     11  C   UNL     1       2.486   6.667  18.576  0.00  0.00    +0.000 A 
BRANCH   9  12
ATOM     12  C   UNL     1       6.012   6.877  17.180  0.00  0.00    +0.000 C 
ATOM     13  O   UNL     1       5.967   7.008  15.962  0.00  0.00    +0.000 OA
BRANCH  12  14
ATOM     14  O   UNL     1       7.114   7.033  17.951  0.00  0.00    +0.000 OA
ATOM     15  C   UNL     1       7.835   8.233  17.680  0.00  0.00    +0.000 C 
ENDBRANCH  12  14
ENDBRANCH   9  12
ENDBRANCH   5   6
ENDBRANCH   4   5
ENDBRANCH   3   4
ENDBRANCH   1   3
BRANCH   1  16
ATOM     16  C   UNL     1       1.959   2.985  17.922  0.00  0.00    +0.000 C 
BRANCH  16  17
ATOM     17  C   UNL     1       2.876   2.516  16.799  0.00  0.00    +0.000 C 
BRANCH  17  18
ATOM     18  C   UNL     1       3.780   3.643  16.323  0.00  0.00    +0.000 C 
BRANCH  18  19
ATOM     19  C   UNL     1       5.219   3.342  16.721  0.00  0.00    +0.000 C 
BRANCH  19  20
ATOM     20  C   UNL     1       6.146   3.472  15.523  0.00  0.00    +0.000 C 
BRANCH  20  21
ATOM     21  C   UNL     1       5.475   4.277  14.419  0.00  0.00    +0.000 C 
BRANCH  21  22
ATOM     22  C   UNL     1       6.043   3.890  13.061  0.00  0.00    +0.000 C 
BRANCH  22  23
ATOM     23  C   UNL     1       5.005   3.138  12.239  0.00  0.00    +0.000 C 
BRANCH  23  24
ATOM     24  C   UNL     1       4.385   4.058  11.193  0.00  0.00    +0.000 C 
BRANCH  24  26
ATOM     25  C   UNL     1       2.720   4.235   9.329  0.00  0.00    +0.000 C 
ATOM     26  C   UNL     1       3.286   3.341  10.417  0.00  0.00    +0.000 C 
ENDBRANCH  24  26
ENDBRANCH  23  24
ENDBRANCH  22  23
ENDBRANCH  21  22
ENDBRANCH  20  21
ENDBRANCH  19  20
ENDBRANCH  18  19
ENDBRANCH  17  18
ENDBRANCH  16  17
ENDBRANCH   1  16
TORSDOF 16
ENDMDL
MODEL 7
REMARK VINA RESULT:      -5.7      4.526      9.013
REMARK  Name = 
REMARK  18 active torsions:
REMARK  status: ('A' for Active; 'I' for Inactive)
REMARK    1  A    between atoms: C_1  and  C_2
REMARK    2  A    between atoms: C_2  and  C_3
REMARK    3  A    between atoms: C_3  and  C_4
REMARK    4  A    between atoms: C_4  and  C_5
REMARK    5  A    between atoms: C_5  and  C_6
REMARK    6  A    between atoms: C_6  and  C_7
REMARK    7  A    between atoms: C_7  and  C_8
REMARK    8  A    between atoms: C_8  and  C_9
REMARK    9  A    between atoms: C_9  and  C_10
REMARK   10  A    between atoms: C_10  and  C_11
REMARK   11  A    between atoms: C_11  and  C_12
REMARK   12  A    between atoms: C_12  and  C_14
REMARK   13  A    between atoms: C_14  and  C_15
REMARK   14  A    between atoms: C_15  and  O_16
REMARK   15  A    between atoms: O_16  and  C_17
REMARK   16  A    between atoms: C_20  and  C_21
REMARK   17  A    between atoms: C_21  and  O_23
REMARK   18  A    between atoms: O_23  and  C_24
REMARK                            x       y       z     vdW  Elec       q    Type
REMARK                         _______ _______ _______ _____ _____    ______ ____
ROOT
ATOM      1  C   UNL     1       2.361   7.447  18.201  0.00  0.00    +0.000 C 
ATOM      2 CL   UNL     1       2.489   6.722  19.838  0.00  0.00    +0.000 Cl
ENDROOT
BRANCH   1   3
ATOM      3  C   UNL     1       2.344   8.973  18.331  0.00  0.00    +0.000 C 
BRANCH   3   4
ATOM      4  C   UNL     1       1.082   9.467  19.032  0.00  0.00    +0.000 C 
BRANCH   4   5
ATOM      5  O   UNL     1       1.200   9.211  20.430  0.00  0.00    +0.000 OA
BRANCH   5   6
ATOM      6  C   UNL     1       0.308   9.896  21.212  0.00  0.00    +0.000 A 
ATOM      7  C   UNL     1      -0.268  11.018  20.617  0.00  0.00    +0.000 A 
ATOM      8  C   UNL     1      -1.177  11.799  21.330  0.00  0.00    +0.000 A 
ATOM      9  C   UNL     1      -1.541  11.442  22.639  0.00  0.00    +0.000 A 
ATOM     10  C   UNL     1      -0.971  10.317  23.229  0.00  0.00    +0.000 A 
ATOM     11  C   UNL     1      -0.049   9.543  22.516  0.00  0.00    +0.000 A 
BRANCH   9  12
ATOM     12  C   UNL     1      -2.527  12.302  23.336  0.00  0.00    +0.000 C 
ATOM     13  O   UNL     1      -3.545  11.871  23.867  0.00  0.00    +0.000 OA
BRANCH  12  14
ATOM     14  O   UNL     1      -2.140  13.599  23.309  0.00  0.00    +0.000 OA
ATOM     15  C   UNL     1      -3.199  14.504  23.006  0.00  0.00    +0.000 C 
ENDBRANCH  12  14
ENDBRANCH   9  12
ENDBRANCH   5   6
ENDBRANCH   4   5
ENDBRANCH   3   4
ENDBRANCH   1   3
BRANCH   1  16
ATOM     16  C   UNL     1       3.514   6.964  17.313  0.00  0.00    +0.000 C 
BRANCH  16  17
ATOM     17  C   UNL     1       4.516   6.107  18.075  0.00  0.00    +0.000 C 
BRANCH  17  18
ATOM     18  C   UNL     1       5.320   5.230  17.125  0.00  0.00    +0.000 C 
BRANCH  18  19
ATOM     19  C   UNL     1       4.457   4.068  16.652  0.00  0.00    +0.000 C 
BRANCH  19  20
ATOM     20  C   UNL     1       3.943   3.263  17.835  0.00  0.00    +0.000 C 
BRANCH  20  21
ATOM     21  C   UNL     1       2.561   2.703  17.533  0.00  0.00    +0.000 C 
BRANCH  21  22
ATOM     22  C   UNL     1       1.483   3.673  17.997  0.00  0.00    +0.000 C 
BRANCH  22  23
ATOM     23  C   UNL     1       0.624   3.042  19.084  0.00  0.00    +0.000 C 
BRANCH  23  24
ATOM     24  C   UNL     1       0.895   3.705  20.430  0.00  0.00    +0.000 C 
BRANCH  24  26
ATOM     25  C   UNL     1       2.849   2.603  21.546  0.00  0.00    +0.000 C 
ATOM     26  C   UNL     1       1.335   2.678  21.467  0.00  0.00    +0.000 C 
ENDBRANCH  24  26
ENDBRANCH  23  24
ENDBRANCH  22  23
ENDBRANCH  21  22
ENDBRANCH  20  21
ENDBRANCH  19  20
ENDBRANCH  18  19
ENDBRANCH  17  18
ENDBRANCH  16  17
ENDBRANCH   1  16
TORSDOF 16
ENDMDL
MODEL 8
REMARK VINA RESULT:      -5.7      3.149      6.968
REMARK  Name = 
REMARK  18 active torsions:
REMARK  status: ('A' for Active; 'I' for Inactive)
REMARK    1  A    between atoms: C_1  and  C_2
REMARK    2  A    between atoms: C_2  and  C_3
REMARK    3  A    between atoms: C_3  and  C_4
REMARK    4  A    between atoms: C_4  and  C_5
REMARK    5  A    between atoms: C_5  and  C_6
REMARK    6  A    between atoms: C_6  and  C_7
REMARK    7  A    between atoms: C_7  and  C_8
REMARK    8  A    between atoms: C_8  and  C_9
REMARK    9  A    between atoms: C_9  and  C_10
REMARK   10  A    between atoms: C_10  and  C_11
REMARK   11  A    between atoms: C_11  and  C_12
REMARK   12  A    between atoms: C_12  and  C_14
REMARK   13  A    between atoms: C_14  and  C_15
REMARK   14  A    between atoms: C_15  and  O_16
REMARK   15  A    between atoms: O_16  and  C_17
REMARK   16  A    between atoms: C_20  and  C_21
REMARK   17  A    between atoms: C_21  and  O_23
REMARK   18  A    between atoms: O_23  and  C_24
REMARK                            x       y       z     vdW  Elec       q    Type
REMARK                         _______ _______ _______ _____ _____    ______ ____
ROOT
ATOM      1  C   UNL     1       1.571   3.222  18.921  0.00  0.00    +0.000 C 
ATOM      2 CL   UNL     1       0.514   3.044  20.360  0.00  0.00    +0.000 Cl
ENDROOT
BRANCH   1   3
ATOM      3  C   UNL     1       1.752   4.713  18.616  0.00  0.00    +0.000 C 
BRANCH   3   4
ATOM      4  C   UNL     1       2.184   5.495  19.853  0.00  0.00    +0.000 C 
BRANCH   4   5
ATOM      5  O   UNL     1       2.871   6.673  19.437  0.00  0.00    +0.000 OA
BRANCH   5   6
ATOM      6  C   UNL     1       2.100   7.805  19.421  0.00  0.00    +0.000 A 
ATOM      7  C   UNL     1       2.072   8.490  18.207  0.00  0.00    +0.000 A 
ATOM      8  C   UNL     1       1.332   9.666  18.085  0.00  0.00    +0.000 A 
ATOM      9  C   UNL     1       0.587  10.150  19.173  0.00  0.00    +0.000 A 
ATOM     10  C   UNL     1       0.610   9.460  20.382  0.00  0.00    +0.000 A 
ATOM     11  C   UNL     1       1.364   8.289  20.506  0.00  0.00    +0.000 A 
BRANCH   9  12
ATOM     12  C   UNL     1      -0.194  11.394  18.972  0.00  0.00    +0.000 C 
ATOM     13  O   UNL     1       0.272  12.414  18.478  0.00  0.00    +0.000 OA
BRANCH  12  14
ATOM     14  O   UNL     1      -1.470  11.233  19.395  0.00  0.00    +0.000 OA
ATOM     15  C   UNL     1      -2.444  11.621  18.430  0.00  0.00    +0.000 C 
ENDBRANCH  12  14
ENDBRANCH   9  12
ENDBRANCH   5   6
ENDBRANCH   4   5
ENDBRANCH   3   4
ENDBRANCH   1   3
BRANCH   1  16
ATOM     16  C   UNL     1       2.915   2.523  19.158  0.00  0.00    +0.000 C 
BRANCH  16  17
ATOM     17  C   UNL     1       3.733   2.383  17.880  0.00  0.00    +0.000 C 
BRANCH  17  18
ATOM     18  C   UNL     1       4.726   3.528  17.736  0.00  0.00    +0.000 C 
BRANCH  18  19
ATOM     19  C   UNL     1       5.306   3.871  19.101  0.00  0.00    +0.000 C 
BRANCH  19  20
ATOM     20  C   UNL     1       5.856   5.288  19.111  0.00  0.00    +0.000 C 
BRANCH  20  21
ATOM     21  C   UNL     1       7.242   5.322  18.483  0.00  0.00    +0.000 C 
BRANCH  21  22
ATOM     22  C   UNL     1       7.250   6.234  17.264  0.00  0.00    +0.000 C 
BRANCH  22  23
ATOM     23  C   UNL     1       5.860   6.800  17.008  0.00  0.00    +0.000 C 
BRANCH  23  24
ATOM     24  C   UNL     1       5.304   6.273  15.689  0.00  0.00    +0.000 C 
BRANCH  24  26
ATOM     25  C   UNL     1       5.589   4.261  14.223  0.00  0.00    +0.000 C 
ATOM     26  C   UNL     1       6.304   5.349  15.004  0.00  0.00    +0.000 C 
ENDBRANCH  24  26
ENDBRANCH  23  24
ENDBRANCH  22  23
ENDBRANCH  21  22
ENDBRANCH  20  21
ENDBRANCH  19  20
ENDBRANCH  18  19
ENDBRANCH  17  18
ENDBRANCH  16  17
ENDBRANCH   1  16
TORSDOF 16
ENDMDL
MODEL 9
REMARK VINA RESULT:      -5.7      3.686      7.625
REMARK  Name = 
REMARK  18 active torsions:
REMARK  status: ('A' for Active; 'I' for Inactive)
REMARK    1  A    between atoms: C_1  and  C_2
REMARK    2  A    between atoms: C_2  and  C_3
REMARK    3  A    between atoms: C_3  and  C_4
REMARK    4  A    between atoms: C_4  and  C_5
REMARK    5  A    between atoms: C_5  and  C_6
REMARK    6  A    between atoms: C_6  and  C_7
REMARK    7  A    between atoms: C_7  and  C_8
REMARK    8  A    between atoms: C_8  and  C_9
REMARK    9  A    between atoms: C_9  and  C_10
REMARK   10  A    between atoms: C_10  and  C_11
REMARK   11  A    between atoms: C_11  and  C_12
REMARK   12  A    between atoms: C_12  and  C_14
REMARK   13  A    between atoms: C_14  and  C_15
REMARK   14  A    between atoms: C_15  and  O_16
REMARK   15  A    between atoms: O_16  and  C_17
REMARK   16  A    between atoms: C_20  and  C_21
REMARK   17  A    between atoms: C_21  and  O_23
REMARK   18  A    between atoms: O_23  and  C_24
REMARK                            x       y       z     vdW  Elec       q    Type
REMARK                         _______ _______ _______ _____ _____    ______ ____
ROOT
ATOM      1  C   UNL     1       1.688   3.847  21.124  0.00  0.00    +0.000 C 
ATOM      2 CL   UNL     1       2.885   2.563  21.495  0.00  0.00    +0.000 Cl
ENDROOT
BRANCH   1   3
ATOM      3  C   UNL     1       2.433   5.151  20.823  0.00  0.00    +0.000 C 
BRANCH   3   4
ATOM      4  C   UNL     1       1.625   6.064  19.905  0.00  0.00    +0.000 C 
BRANCH   4   5
ATOM      5  O   UNL     1       2.229   7.356  19.892  0.00  0.00    +0.000 OA
BRANCH   5   6
ATOM      6  C   UNL     1       1.488   8.337  20.498  0.00  0.00    +0.000 A 
ATOM      7  C   UNL     1       0.946   9.291  19.639  0.00  0.00    +0.000 A 
ATOM      8  C   UNL     1       0.189  10.344  20.152  0.00  0.00    +0.000 A 
ATOM      9  C   UNL     1      -0.057  10.432  21.532  0.00  0.00    +0.000 A 
ATOM     10  C   UNL     1       0.478   9.473  22.388  0.00  0.00    +0.000 A 
ATOM     11  C   UNL     1       1.248   8.426  21.872  0.00  0.00    +0.000 A 
BRANCH   9  12
ATOM     12  C   UNL     1      -0.886  11.564  22.011  0.00  0.00    +0.000 C 
ATOM     13  O   UNL     1      -0.949  11.906  23.186  0.00  0.00    +0.000 OA
BRANCH  12  14
ATOM     14  O   UNL     1      -1.538  12.153  20.981  0.00  0.00    +0.000 OA
ATOM     15  C   UNL     1      -1.600  13.574  21.083  0.00  0.00    +0.000 C 
ENDBRANCH  12  14
ENDBRANCH   9  12
ENDBRANCH   5   6
ENDBRANCH   4   5
ENDBRANCH   3   4
ENDBRANCH   1   3
BRANCH   1  16
ATOM     16  C   UNL     1       0.794   3.419  19.955  0.00  0.00    +0.000 C 
BRANCH  16  17
ATOM     17  C   UNL     1       1.390   2.267  19.156  0.00  0.00    +0.000 C 
BRANCH  17  18
ATOM     18  C   UNL     1       2.159   2.779  17.947  0.00  0.00    +0.000 C 
BRANCH  18  19
ATOM     19  C   UNL     1       3.606   2.313  18.031  0.00  0.00    +0.000 C 
BRANCH  19  20
ATOM     20  C   UNL     1       4.545   3.375  17.482  0.00  0.00    +0.000 C 
BRANCH  20  21
ATOM     21  C   UNL     1       3.773   4.644  17.151  0.00  0.00    +0.000 C 
BRANCH  21  22
ATOM     22  C   UNL     1       4.545   5.871  17.617  0.00  0.00    +0.000 C 
BRANCH  22  23
ATOM     23  C   UNL     1       5.708   6.162  16.679  0.00  0.00    +0.000 C 
BRANCH  23  24
ATOM     24  C   UNL     1       5.387   5.685  15.267  0.00  0.00    +0.000 C 
BRANCH  24  26
ATOM     25  C   UNL     1       6.050   3.894  13.643  0.00  0.00    +0.000 C 
ATOM     26  C   UNL     1       6.545   4.884  14.683  0.00  0.00    +0.000 C 
ENDBRANCH  24  26
ENDBRANCH  23  24
ENDBRANCH  22  23
ENDBRANCH  21  22
ENDBRANCH  20  21
ENDBRANCH  19  20
ENDBRANCH  18  19
ENDBRANCH  17  18
ENDBRANCH  16  17
ENDBRANCH   1  16
TORSDOF 16
ENDMDL
