MODEL 1
REMARK VINA RESULT:      -7.1      0.000      0.000
REMARK  Name = 
REMARK  8 active torsions:
REMARK  status: ('A' for Active; 'I' for Inactive)
REMARK    1  A    between atoms: C_1  and  C_2
REMARK    2  A    between atoms: C_2  and  N_3
REMARK    3  A    between atoms: N_3  and  C_4
REMARK    4  A    between atoms: N_3  and  C_6
REMARK    5  A    between atoms: C_4  and  C_5
REMARK    6  A    between atoms: C_6  and  C_7
REMARK    7  A    between atoms: C_7  and  N_8
REMARK    8  A    between atoms: N_22  and  C_23
REMARK                            x       y       z     vdW  Elec       q    Type
REMARK                         _______ _______ _______ _____ _____    ______ ____
ROOT
ATOM      1  N   UNL     1       3.119   6.088  18.315  0.00  0.00    +0.000 N 
ATOM      2  C   UNL     1       3.258   4.687  18.285  0.00  0.00    +0.000 A 
ATOM      3  C   UNL     1       3.793   3.968  17.202  0.00  0.00    +0.000 A 
ATOM      4  C   UNL     1       3.893   2.568  17.213  0.00  0.00    +0.000 A 
ATOM      5  C   UNL     1       3.475   1.845  18.323  0.00  0.00    +0.000 A 
ATOM      6  C   UNL     1       2.930   2.522  19.408  0.00  0.00    +0.000 A 
ATOM      7  C   UNL     1       2.799   3.920  19.370  0.00  0.00    +0.000 A 
ATOM      8  C   UNL     1       2.111   4.602  20.485  0.00  0.00    +0.000 A 
ATOM      9  O   UNL     1       1.726   3.968  21.463  0.00  0.00    +0.000 OA
ATOM     10  C   UNL     1       1.849   6.050  20.385  0.00  0.00    +0.000 A 
ATOM     11  C   UNL     1       1.089   6.667  21.381  0.00  0.00    +0.000 A 
ATOM     12  C   UNL     1       0.880   8.045  21.250  0.00  0.00    +0.000 A 
ATOM     13  N   UNL     1       0.197   8.899  22.059  0.00  0.00    +0.000 NA
ATOM     14  C   UNL     1       0.334  10.073  21.485  0.00  0.00    +0.000 A 
ATOM     15  N   UNL     1       1.096  10.046  20.328  0.00  0.00    +0.000 N 
ATOM     16  C   UNL     1       1.423   8.701  20.149  0.00  0.00    +0.000 A 
ATOM     17  N   UNL     1       2.132   8.113  19.156  0.00  0.00    +0.000 NA
ATOM     18  C   UNL     1       2.358   6.777  19.301  0.00  0.00    +0.000 A 
ENDROOT
BRANCH  15  19
ATOM     19  C   UNL     1       1.455  11.189  19.542  0.00  0.00    +0.000 A 
ATOM     20  C   UNL     1       1.150  12.486  19.996  0.00  0.00    +0.000 A 
ATOM     21  C   UNL     1       1.510  13.613  19.249  0.00  0.00    +0.000 A 
ATOM     22  C   UNL     1       2.183  13.464  18.042  0.00  0.00    +0.000 A 
ATOM     23  C   UNL     1       2.493  12.187  17.581  0.00  0.00    +0.000 A 
ATOM     24  C   UNL     1       2.130  11.057  18.323  0.00  0.00    +0.000 A 
ENDBRANCH  15  19
BRANCH   1  25
ATOM     25  C   UNL     1       3.819   6.960  17.354  0.00  0.00    +0.000 C 
BRANCH  25  26
ATOM     26  C   UNL     1       5.340   7.132  17.630  0.00  0.00    +0.000 C 
BRANCH  26  27
ATOM     27  N   UNL     1       6.275   6.601  16.607  0.00  0.00    +0.000 NA
BRANCH  27  29
ATOM     28  C   UNL     1       7.554   5.830  18.650  0.00  0.00    +0.000 C 
ATOM     29  C   UNL     1       7.191   5.609  17.186  0.00  0.00    +0.000 C 
ENDBRANCH  27  29
BRANCH  27  30
ATOM     30  C   UNL     1       5.541   6.131  15.418  0.00  0.00    +0.000 C 
ATOM     31  C   UNL     1       6.181   4.977  14.648  0.00  0.00    +0.000 C 
ENDBRANCH  27  30
ENDBRANCH  26  27
ENDBRANCH  25  26
ENDBRANCH   1  25
TORSDOF 6
ENDMDL
MODEL 2
REMARK VINA RESULT:      -7.1      5.172      8.194
REMARK  Name = 
REMARK  8 active torsions:
REMARK  status: ('A' for Active; 'I' for Inactive)
REMARK    1  A    between atoms: C_1  and  C_2
REMARK    2  A    between atoms: C_2  and  N_3
REMARK    3  A    between atoms: N_3  and  C_4
REMARK    4  A    between atoms: N_3  and  C_6
REMARK    5  A    between atoms: C_4  and  C_5
REMARK    6  A    between atoms: C_6  and  C_7
REMARK    7  A    between atoms: C_7  and  N_8
REMARK    8  A    between atoms: N_22  and  C_23
REMARK                            x       y       z     vdW  Elec       q    Type
REMARK                         _______ _______ _______ _____ _____    ______ ____
ROOT
ATOM      1  N   UNL     1      -0.923  11.678  19.895  0.00  0.00    +0.000 N 
ATOM      2  C   UNL     1      -0.052  10.580  20.024  0.00  0.00    +0.000 A 
ATOM      3  C   UNL     1       0.565   9.926  18.943  0.00  0.00    +0.000 A 
ATOM      4  C   UNL     1       1.412   8.822  19.124  0.00  0.00    +0.000 A 
ATOM      5  C   UNL     1       1.683   8.349  20.401  0.00  0.00    +0.000 A 
ATOM      6  C   UNL     1       1.082   8.963  21.494  0.00  0.00    +0.000 A 
ATOM      7  C   UNL     1       0.205  10.043  21.298  0.00  0.00    +0.000 A 
ATOM      8  C   UNL     1      -0.509  10.602  22.464  0.00  0.00    +0.000 A 
ATOM      9  O   UNL     1      -0.286  10.178  23.595  0.00  0.00    +0.000 OA
ATOM     10  C   UNL     1      -1.532  11.641  22.246  0.00  0.00    +0.000 A 
ATOM     11  C   UNL     1      -2.293  12.076  23.333  0.00  0.00    +0.000 A 
ATOM     12  C   UNL     1      -3.241  13.074  23.078  0.00  0.00    +0.000 A 
ATOM     13  N   UNL     1      -4.105  13.688  23.931  0.00  0.00    +0.000 NA
ATOM     14  C   UNL     1      -4.746  14.555  23.180  0.00  0.00    +0.000 A 
ATOM     15  N   UNL     1      -4.336  14.560  21.857  0.00  0.00    +0.000 N 
ATOM     16  C   UNL     1      -3.371  13.555  21.778  0.00  0.00    +0.000 A 
ATOM     17  N   UNL     1      -2.667  13.121  20.706  0.00  0.00    +0.000 NA
ATOM     18  C   UNL     1      -1.726  12.169  20.963  0.00  0.00    +0.000 A 
ENDROOT
BRANCH  15  19
ATOM     19  C   UNL     1      -4.821  15.447  20.840  0.00  0.00    +0.000 A 
ATOM     20  C   UNL     1      -4.176  16.676  20.605  0.00  0.00    +0.000 A 
ATOM     21  C   UNL     1      -4.626  17.544  19.604  0.00  0.00    +0.000 A 
ATOM     22  C   UNL     1      -5.721  17.198  18.821  0.00  0.00    +0.000 A 
ATOM     23  C   UNL     1      -6.368  15.986  19.041  0.00  0.00    +0.000 A 
ATOM     24  C   UNL     1      -5.924  15.116  20.046  0.00  0.00    +0.000 A 
ENDBRANCH  15  19
BRANCH   1  25
ATOM     25  C   UNL     1      -1.016  12.453  18.644  0.00  0.00    +0.000 C 
BRANCH  25  26
ATOM     26  C   UNL     1      -1.842  11.766  17.520  0.00  0.00    +0.000 C 
BRANCH  26  27
ATOM     27  N   UNL     1      -3.016  10.962  17.942  0.00  0.00    +0.000 NA
BRANCH  27  29
ATOM     28  C   UNL     1      -5.472  11.132  18.526  0.00  0.00    +0.000 C 
ATOM     29  C   UNL     1      -4.260  11.733  17.824  0.00  0.00    +0.000 C 
ENDBRANCH  27  29
BRANCH  27  30
ATOM     30  C   UNL     1      -3.037   9.661  17.251  0.00  0.00    +0.000 C 
ATOM     31  C   UNL     1      -2.914   9.708  15.729  0.00  0.00    +0.000 C 
ENDBRANCH  27  30
ENDBRANCH  26  27
ENDBRANCH  25  26
ENDBRANCH   1  25
TORSDOF 6
ENDMDL
MODEL 3
REMARK VINA RESULT:      -7.1      0.845      1.264
REMARK  Name = 
REMARK  8 active torsions:
REMARK  status: ('A' for Active; 'I' for Inactive)
REMARK    1  A    between atoms: C_1  and  C_2
REMARK    2  A    between atoms: C_2  and  N_3
REMARK    3  A    between atoms: N_3  and  C_4
REMARK    4  A    between atoms: N_3  and  C_6
REMARK    5  A    between atoms: C_4  and  C_5
REMARK    6  A    between atoms: C_6  and  C_7
REMARK    7  A    between atoms: C_7  and  N_8
REMARK    8  A    between atoms: N_22  and  C_23
REMARK                            x       y       z     vdW  Elec       q    Type
REMARK                         _______ _______ _______ _____ _____    ______ ____
ROOT
ATOM      1  N   UNL     1       3.182   6.373  18.276  0.00  0.00    +0.000 N 
ATOM      2  C   UNL     1       3.311   4.976  18.159  0.00  0.00    +0.000 A 
ATOM      3  C   UNL     1       3.914   4.324  17.069  0.00  0.00    +0.000 A 
ATOM      4  C   UNL     1       4.002   2.926  16.993  0.00  0.00    +0.000 A 
ATOM      5  C   UNL     1       3.502   2.135  18.019  0.00  0.00    +0.000 A 
ATOM      6  C   UNL     1       2.888   2.744  19.107  0.00  0.00    +0.000 A 
ATOM      7  C   UNL     1       2.772   4.144  19.156  0.00  0.00    +0.000 A 
ATOM      8  C   UNL     1       2.014   4.758  20.265  0.00  0.00    +0.000 A 
ATOM      9  O   UNL     1       1.556   4.064  21.169  0.00  0.00    +0.000 OA
ATOM     10  C   UNL     1       1.771   6.212  20.247  0.00  0.00    +0.000 A 
ATOM     11  C   UNL     1       0.949   6.771  21.227  0.00  0.00    +0.000 A 
ATOM     12  C   UNL     1       0.760   8.156  21.176  0.00  0.00    +0.000 A 
ATOM     13  N   UNL     1       0.030   8.963  21.993  0.00  0.00    +0.000 NA
ATOM     14  C   UNL     1       0.217  10.172  21.511  0.00  0.00    +0.000 A 
ATOM     15  N   UNL     1       1.057  10.212  20.410  0.00  0.00    +0.000 N 
ATOM     16  C   UNL     1       1.384   8.878  20.162  0.00  0.00    +0.000 A 
ATOM     17  N   UNL     1       2.156   8.350  19.183  0.00  0.00    +0.000 NA
ATOM     18  C   UNL     1       2.360   7.004  19.252  0.00  0.00    +0.000 A 
ENDROOT
BRANCH  15  19
ATOM     19  C   UNL     1       1.479  11.402  19.730  0.00  0.00    +0.000 A 
ATOM     20  C   UNL     1       1.443  12.645  20.388  0.00  0.00    +0.000 A 
ATOM     21  C   UNL     1       1.869  13.812  19.744  0.00  0.00    +0.000 A 
ATOM     22  C   UNL     1       2.341  13.755  18.438  0.00  0.00    +0.000 A 
ATOM     23  C   UNL     1       2.384  12.532  17.775  0.00  0.00    +0.000 A 
ATOM     24  C   UNL     1       1.953  11.363  18.415  0.00  0.00    +0.000 A 
ENDBRANCH  15  19
BRANCH   1  25
ATOM     25  C   UNL     1       3.954   7.299  17.427  0.00  0.00    +0.000 C 
BRANCH  25  26
ATOM     26  C   UNL     1       5.349   6.764  16.994  0.00  0.00    +0.000 C 
BRANCH  26  27
ATOM     27  N   UNL     1       6.470   6.958  17.947  0.00  0.00    +0.000 NA
BRANCH  27  29
ATOM     28  C   UNL     1       7.591   4.692  17.815  0.00  0.00    +0.000 C 
ATOM     29  C   UNL     1       6.803   5.706  18.639  0.00  0.00    +0.000 C 
ENDBRANCH  27  29
BRANCH  27  30
ATOM     30  C   UNL     1       7.614   7.612  17.287  0.00  0.00    +0.000 C 
ATOM     31  C   UNL     1       8.078   8.931  17.901  0.00  0.00    +0.000 C 
ENDBRANCH  27  30
ENDBRANCH  26  27
ENDBRANCH  25  26
ENDBRANCH   1  25
TORSDOF 6
ENDMDL
MODEL 4
REMARK VINA RESULT:      -7.1      5.006      9.510
REMARK  Name = 
REMARK  8 active torsions:
REMARK  status: ('A' for Active; 'I' for Inactive)
REMARK    1  A    between atoms: C_1  and  C_2
REMARK    2  A    between atoms: C_2  and  N_3
REMARK    3  A    between atoms: N_3  and  C_4
REMARK    4  A    between atoms: N_3  and  C_6
REMARK    5  A    between atoms: C_4  and  C_5
REMARK    6  A    between atoms: C_6  and  C_7
REMARK    7  A    between atoms: C_7  and  N_8
REMARK    8  A    between atoms: N_22  and  C_23
REMARK                            x       y       z     vdW  Elec       q    Type
REMARK                         _______ _______ _______ _____ _____    ______ ____
ROOT
ATOM      1  N   UNL     1      -3.089  12.598  20.281  0.00  0.00    +0.000 N 
ATOM      2  C   UNL     1      -4.087  13.485  20.729  0.00  0.00    +0.000 A 
ATOM      3  C   UNL     1      -4.785  14.378  19.897  0.00  0.00    +0.000 A 
ATOM      4  C   UNL     1      -5.759  15.256  20.397  0.00  0.00    +0.000 A 
ATOM      5  C   UNL     1      -6.078  15.252  21.749  0.00  0.00    +0.000 A 
ATOM      6  C   UNL     1      -5.401  14.390  22.603  0.00  0.00    +0.000 A 
ATOM      7  C   UNL     1      -4.400  13.542  22.098  0.00  0.00    +0.000 A 
ATOM      8  C   UNL     1      -3.617  12.722  23.044  0.00  0.00    +0.000 A 
ATOM      9  O   UNL     1      -3.884  12.724  24.243  0.00  0.00    +0.000 OA
ATOM     10  C   UNL     1      -2.477  11.937  22.536  0.00  0.00    +0.000 A 
ATOM     11  C   UNL     1      -1.662  11.264  23.448  0.00  0.00    +0.000 A 
ATOM     12  C   UNL     1      -0.601  10.521  22.917  0.00  0.00    +0.000 A 
ATOM     13  N   UNL     1       0.336   9.769  23.554  0.00  0.00    +0.000 NA
ATOM     14  C   UNL     1       1.074   9.275  22.585  0.00  0.00    +0.000 A 
ATOM     15  N   UNL     1       0.661   9.653  21.318  0.00  0.00    +0.000 N 
ATOM     16  C   UNL     1      -0.420  10.509  21.536  0.00  0.00    +0.000 A 
ATOM     17  N   UNL     1      -1.178  11.184  20.639  0.00  0.00    +0.000 NA
ATOM     18  C   UNL     1      -2.226  11.883  21.159  0.00  0.00    +0.000 A 
ENDROOT
BRANCH  15  19
ATOM     19  C   UNL     1       1.244   9.210  20.086  0.00  0.00    +0.000 A 
ATOM     20  C   UNL     1       1.823   7.930  19.997  0.00  0.00    +0.000 A 
ATOM     21  C   UNL     1       2.380   7.475  18.796  0.00  0.00    +0.000 A 
ATOM     22  C   UNL     1       2.364   8.287  17.668  0.00  0.00    +0.000 A 
ATOM     23  C   UNL     1       1.794   9.555  17.742  0.00  0.00    +0.000 A 
ATOM     24  C   UNL     1       1.240  10.015  18.943  0.00  0.00    +0.000 A 
ENDBRANCH  15  19
BRANCH   1  25
ATOM     25  C   UNL     1      -2.910  12.289  18.850  0.00  0.00    +0.000 C 
BRANCH  25  26
ATOM     26  C   UNL     1      -3.633  10.998  18.374  0.00  0.00    +0.000 C 
BRANCH  26  27
ATOM     27  N   UNL     1      -4.280  11.040  17.039  0.00  0.00    +0.000 NA
BRANCH  27  29
ATOM     28  C   UNL     1      -6.548  11.818  17.849  0.00  0.00    +0.000 C 
ATOM     29  C   UNL     1      -5.320  12.076  16.984  0.00  0.00    +0.000 C 
ENDBRANCH  27  29
BRANCH  27  30
ATOM     30  C   UNL     1      -3.270  11.132  15.969  0.00  0.00    +0.000 C 
ATOM     31  C   UNL     1      -3.471  10.200  14.776  0.00  0.00    +0.000 C 
ENDBRANCH  27  30
ENDBRANCH  26  27
ENDBRANCH  25  26
ENDBRANCH   1  25
TORSDOF 6
ENDMDL
MODEL 5
REMARK VINA RESULT:      -7.1      4.975      7.844
REMARK  Name = 
REMARK  8 active torsions:
REMARK  status: ('A' for Active; 'I' for Inactive)
REMARK    1  A    between atoms: C_1  and  C_2
REMARK    2  A    between atoms: C_2  and  N_3
REMARK    3  A    between atoms: N_3  and  C_4
REMARK    4  A    between atoms: N_3  and  C_6
REMARK    5  A    between atoms: C_4  and  C_5
REMARK    6  A    between atoms: C_6  and  C_7
REMARK    7  A    between atoms: C_7  and  N_8
REMARK    8  A    between atoms: N_22  and  C_23
REMARK                            x       y       z     vdW  Elec       q    Type
REMARK                         _______ _______ _______ _____ _____    ______ ____
ROOT
ATOM      1  N   UNL     1      -0.747  11.061  19.391  0.00  0.00    +0.000 N 
ATOM      2  C   UNL     1       0.223  10.043  19.323  0.00  0.00    +0.000 A 
ATOM      3  C   UNL     1       0.672   9.455  18.127  0.00  0.00    +0.000 A 
ATOM      4  C   UNL     1       1.629   8.429  18.115  0.00  0.00    +0.000 A 
ATOM      5  C   UNL     1       2.183   7.973  19.304  0.00  0.00    +0.000 A 
ATOM      6  C   UNL     1       1.756   8.523  20.506  0.00  0.00    +0.000 A 
ATOM      7  C   UNL     1       0.769   9.523  20.510  0.00  0.00    +0.000 A 
ATOM      8  C   UNL     1       0.250  10.008  21.805  0.00  0.00    +0.000 A 
ATOM      9  O   UNL     1       0.724   9.598  22.861  0.00  0.00    +0.000 OA
ATOM     10  C   UNL     1      -0.881  10.954  21.814  0.00  0.00    +0.000 A 
ATOM     11  C   UNL     1      -1.451  11.312  23.037  0.00  0.00    +0.000 A 
ATOM     12  C   UNL     1      -2.512  12.223  22.995  0.00  0.00    +0.000 A 
ATOM     13  N   UNL     1      -3.243  12.752  24.014  0.00  0.00    +0.000 NA
ATOM     14  C   UNL     1      -4.090  13.564  23.422  0.00  0.00    +0.000 A 
ATOM     15  N   UNL     1      -3.948  13.615  22.045  0.00  0.00    +0.000 N 
ATOM     16  C   UNL     1      -2.934  12.700  21.757  0.00  0.00    +0.000 A 
ATOM     17  N   UNL     1      -2.417  12.337  20.559  0.00  0.00    +0.000 NA
ATOM     18  C   UNL     1      -1.366  11.471  20.606  0.00  0.00    +0.000 A 
ENDROOT
BRANCH  15  19
ATOM     19  C   UNL     1      -4.696  14.462  21.163  0.00  0.00    +0.000 A 
ATOM     20  C   UNL     1      -4.367  15.825  21.042  0.00  0.00    +0.000 A 
ATOM     21  C   UNL     1      -5.075  16.662  20.171  0.00  0.00    +0.000 A 
ATOM     22  C   UNL     1      -6.117  16.150  19.407  0.00  0.00    +0.000 A 
ATOM     23  C   UNL     1      -6.453  14.803  19.515  0.00  0.00    +0.000 A 
ATOM     24  C   UNL     1      -5.750  13.965  20.389  0.00  0.00    +0.000 A 
ENDBRANCH  15  19
BRANCH   1  25
ATOM     25  C   UNL     1      -1.148  11.834  18.201  0.00  0.00    +0.000 C 
BRANCH  25  26
ATOM     26  C   UNL     1      -1.982  11.031  17.162  0.00  0.00    +0.000 C 
BRANCH  26  27
ATOM     27  N   UNL     1      -3.388  11.457  16.953  0.00  0.00    +0.000 NA
BRANCH  27  29
ATOM     28  C   UNL     1      -3.039  10.067  14.867  0.00  0.00    +0.000 C 
ATOM     29  C   UNL     1      -3.844  11.139  15.593  0.00  0.00    +0.000 C 
ENDBRANCH  27  29
BRANCH  27  30
ATOM     30  C   UNL     1      -4.259  10.941  18.024  0.00  0.00    +0.000 C 
ATOM     31  C   UNL     1      -5.756  11.190  17.849  0.00  0.00    +0.000 C 
ENDBRANCH  27  30
ENDBRANCH  26  27
ENDBRANCH  25  26
ENDBRANCH   1  25
TORSDOF 6
ENDMDL
MODEL 6
REMARK VINA RESULT:      -7.1      5.266      8.245
REMARK  Name = 
REMARK  8 active torsions:
REMARK  status: ('A' for Active; 'I' for Inactive)
REMARK    1  A    between atoms: C_1  and  C_2
REMARK    2  A    between atoms: C_2  and  N_3
REMARK    3  A    between atoms: N_3  and  C_4
REMARK    4  A    between atoms: N_3  and  C_6
REMARK    5  A    between atoms: C_4  and  C_5
REMARK    6  A    between atoms: C_6  and  C_7
REMARK    7  A    between atoms: C_7  and  N_8
REMARK    8  A    between atoms: N_22  and  C_23
REMARK                            x       y       z     vdW  Elec       q    Type
REMARK                         _______ _______ _______ _____ _____    ______ ____
ROOT
ATOM      1  N   UNL     1      -1.012  11.331  19.855  0.00  0.00    +0.000 N 
ATOM      2  C   UNL     1      -0.071  10.295  20.001  0.00  0.00    +0.000 A 
ATOM      3  C   UNL     1       0.508   9.593  18.930  0.00  0.00    +0.000 A 
ATOM      4  C   UNL     1       1.429   8.553  19.131  0.00  0.00    +0.000 A 
ATOM      5  C   UNL     1       1.815   8.197  20.417  0.00  0.00    +0.000 A 
ATOM      6  C   UNL     1       1.254   8.862  21.501  0.00  0.00    +0.000 A 
ATOM      7  C   UNL     1       0.304   9.875  21.290  0.00  0.00    +0.000 A 
ATOM      8  C   UNL     1      -0.361  10.484  22.460  0.00  0.00    +0.000 A 
ATOM      9  O   UNL     1      -0.037  10.163  23.600  0.00  0.00    +0.000 OA
ATOM     10  C   UNL     1      -1.456  11.446  22.240  0.00  0.00    +0.000 A 
ATOM     11  C   UNL     1      -2.166  11.924  23.343  0.00  0.00    +0.000 A 
ATOM     12  C   UNL     1      -3.186  12.846  23.085  0.00  0.00    +0.000 A 
ATOM     13  N   UNL     1      -4.024  13.478  23.950  0.00  0.00    +0.000 NA
ATOM     14  C   UNL     1      -4.765  14.248  23.185  0.00  0.00    +0.000 A 
ATOM     15  N   UNL     1      -4.448  14.171  21.839  0.00  0.00    +0.000 N 
ATOM     16  C   UNL     1      -3.433  13.216  21.765  0.00  0.00    +0.000 A 
ATOM     17  N   UNL     1      -2.779  12.737  20.680  0.00  0.00    +0.000 NA
ATOM     18  C   UNL     1      -1.769  11.861  20.938  0.00  0.00    +0.000 A 
ENDROOT
BRANCH  15  19
ATOM     19  C   UNL     1      -5.053  14.948  20.797  0.00  0.00    +0.000 A 
ATOM     20  C   UNL     1      -6.042  14.380  19.972  0.00  0.00    +0.000 A 
ATOM     21  C   UNL     1      -6.655  15.131  18.962  0.00  0.00    +0.000 A 
ATOM     22  C   UNL     1      -6.294  16.458  18.764  0.00  0.00    +0.000 A 
ATOM     23  C   UNL     1      -5.319  17.034  19.573  0.00  0.00    +0.000 A 
ATOM     24  C   UNL     1      -4.699  16.284  20.581  0.00  0.00    +0.000 A 
ENDBRANCH  15  19
BRANCH   1  25
ATOM     25  C   UNL     1      -1.236  12.000  18.559  0.00  0.00    +0.000 C 
BRANCH  25  26
ATOM     26  C   UNL     1      -2.003  11.141  17.515  0.00  0.00    +0.000 C 
BRANCH  26  27
ATOM     27  N   UNL     1      -3.368  11.589  17.144  0.00  0.00    +0.000 NA
BRANCH  27  29
ATOM     28  C   UNL     1      -2.786  10.095  15.186  0.00  0.00    +0.000 C 
ATOM     29  C   UNL     1      -3.746  11.101  15.811  0.00  0.00    +0.000 C 
ENDBRANCH  27  29
BRANCH  27  30
ATOM     30  C   UNL     1      -4.335  11.264  18.208  0.00  0.00    +0.000 C 
ATOM     31  C   UNL     1      -5.808  11.301  17.809  0.00  0.00    +0.000 C 
ENDBRANCH  27  30
ENDBRANCH  26  27
ENDBRANCH  25  26
ENDBRANCH   1  25
TORSDOF 6
ENDMDL
MODEL 7
REMARK VINA RESULT:      -6.9      6.071     10.179
REMARK  Name = 
REMARK  8 active torsions:
REMARK  status: ('A' for Active; 'I' for Inactive)
REMARK    1  A    between atoms: C_1  and  C_2
REMARK    2  A    between atoms: C_2  and  N_3
REMARK    3  A    between atoms: N_3  and  C_4
REMARK    4  A    between atoms: N_3  and  C_6
REMARK    5  A    between atoms: C_4  and  C_5
REMARK    6  A    between atoms: C_6  and  C_7
REMARK    7  A    between atoms: C_7  and  N_8
REMARK    8  A    between atoms: N_22  and  C_23
REMARK                            x       y       z     vdW  Elec       q    Type
REMARK                         _______ _______ _______ _____ _____    ______ ____
ROOT
ATOM      1  N   UNL     1      -2.481  13.851  21.866  0.00  0.00    +0.000 N 
ATOM      2  C   UNL     1      -2.394  14.519  23.102  0.00  0.00    +0.000 A 
ATOM      3  C   UNL     1      -1.187  14.810  23.762  0.00  0.00    +0.000 A 
ATOM      4  C   UNL     1      -1.156  15.462  25.004  0.00  0.00    +0.000 A 
ATOM      5  C   UNL     1      -2.337  15.861  25.617  0.00  0.00    +0.000 A 
ATOM      6  C   UNL     1      -3.550  15.580  24.999  0.00  0.00    +0.000 A 
ATOM      7  C   UNL     1      -3.572  14.892  23.773  0.00  0.00    +0.000 A 
ATOM      8  C   UNL     1      -4.875  14.504  23.197  0.00  0.00    +0.000 A 
ATOM      9  O   UNL     1      -5.923  14.841  23.740  0.00  0.00    +0.000 OA
ATOM     10  C   UNL     1      -4.900  13.664  21.986  0.00  0.00    +0.000 A 
ATOM     11  C   UNL     1      -6.128  13.195  21.516  0.00  0.00    +0.000 A 
ATOM     12  C   UNL     1      -6.101  12.413  20.355  0.00  0.00    +0.000 A 
ATOM     13  N   UNL     1      -7.128  11.836  19.674  0.00  0.00    +0.000 NA
ATOM     14  C   UNL     1      -6.551  11.241  18.654  0.00  0.00    +0.000 A 
ATOM     15  N   UNL     1      -5.177  11.409  18.613  0.00  0.00    +0.000 N 
ATOM     16  C   UNL     1      -4.872  12.148  19.758  0.00  0.00    +0.000 A 
ATOM     17  N   UNL     1      -3.669  12.564  20.218  0.00  0.00    +0.000 NA
ATOM     18  C   UNL     1      -3.702  13.348  21.332  0.00  0.00    +0.000 A 
ENDROOT
BRANCH  15  19
ATOM     19  C   UNL     1      -4.310  10.923  17.579  0.00  0.00    +0.000 A 
ATOM     20  C   UNL     1      -4.430  11.414  16.266  0.00  0.00    +0.000 A 
ATOM     21  C   UNL     1      -3.580  10.963  15.249  0.00  0.00    +0.000 A 
ATOM     22  C   UNL     1      -2.597  10.020  15.529  0.00  0.00    +0.000 A 
ATOM     23  C   UNL     1      -2.467   9.526  16.823  0.00  0.00    +0.000 A 
ATOM     24  C   UNL     1      -3.319   9.971  17.842  0.00  0.00    +0.000 A 
ENDBRANCH  15  19
BRANCH   1  25
ATOM     25  C   UNL     1      -1.308  13.684  20.988  0.00  0.00    +0.000 C 
BRANCH  25  26
ATOM     26  C   UNL     1      -0.303  12.593  21.457  0.00  0.00    +0.000 C 
BRANCH  26  27
ATOM     27  N   UNL     1      -0.617  11.188  21.096  0.00  0.00    +0.000 NA
BRANCH  27  29
ATOM     28  C   UNL     1       1.066  11.304  19.210  0.00  0.00    +0.000 C 
ATOM     29  C   UNL     1      -0.335  10.927  19.678  0.00  0.00    +0.000 C 
ENDBRANCH  27  29
BRANCH  27  30
ATOM     30  C   UNL     1       0.030  10.248  22.029  0.00  0.00    +0.000 C 
ATOM     31  C   UNL     1      -0.171   8.764  21.732  0.00  0.00    +0.000 C 
ENDBRANCH  27  30
ENDBRANCH  26  27
ENDBRANCH  25  26
ENDBRANCH   1  25
TORSDOF 6
ENDMDL
MODEL 8
REMARK VINA RESULT:      -6.8      6.487     10.790
REMARK  Name = 
REMARK  8 active torsions:
REMARK  status: ('A' for Active; 'I' for Inactive)
REMARK    1  A    between atoms: C_1  and  C_2
REMARK    2  A    between atoms: C_2  and  N_3
REMARK    3  A    between atoms: N_3  and  C_4
REMARK    4  A    between atoms: N_3  and  C_6
REMARK    5  A    between atoms: C_4  and  C_5
REMARK    6  A    between atoms: C_6  and  C_7
REMARK    7  A    between atoms: C_7  and  N_8
REMARK    8  A    between atoms: N_22  and  C_23
REMARK                            x       y       z     vdW  Elec       q    Type
REMARK                         _______ _______ _______ _____ _____    ______ ____
ROOT
ATOM      1  N   UNL     1      -3.163  14.506  21.550  0.00  0.00    +0.000 N 
ATOM      2  C   UNL     1      -3.214  15.282  22.723  0.00  0.00    +0.000 A 
ATOM      3  C   UNL     1      -2.099  15.906  23.310  0.00  0.00    +0.000 A 
ATOM      4  C   UNL     1      -2.200  16.655  24.492  0.00  0.00    +0.000 A 
ATOM      5  C   UNL     1      -3.431  16.818  25.115  0.00  0.00    +0.000 A 
ATOM      6  C   UNL     1      -4.554  16.206  24.570  0.00  0.00    +0.000 A 
ATOM      7  C   UNL     1      -4.434  15.427  23.407  0.00  0.00    +0.000 A 
ATOM      8  C   UNL     1      -5.619  14.694  22.915  0.00  0.00    +0.000 A 
ATOM      9  O   UNL     1      -6.707  14.821  23.469  0.00  0.00    +0.000 OA
ATOM     10  C   UNL     1      -5.465  13.768  21.778  0.00  0.00    +0.000 A 
ATOM     11  C   UNL     1      -6.555  12.983  21.397  0.00  0.00    +0.000 A 
ATOM     12  C   UNL     1      -6.365  12.130  20.304  0.00  0.00    +0.000 A 
ATOM     13  N   UNL     1      -7.238  11.270  19.712  0.00  0.00    +0.000 NA
ATOM     14  C   UNL     1      -6.555  10.739  18.723  0.00  0.00    +0.000 A 
ATOM     15  N   UNL     1      -5.260  11.220  18.615  0.00  0.00    +0.000 N 
ATOM     16  C   UNL     1      -5.119  12.108  19.682  0.00  0.00    +0.000 A 
ATOM     17  N   UNL     1      -4.041  12.835  20.060  0.00  0.00    +0.000 NA
ATOM     18  C   UNL     1      -4.238  13.685  21.107  0.00  0.00    +0.000 A 
ENDROOT
BRANCH  15  19
ATOM     19  C   UNL     1      -4.323  10.861  17.591  0.00  0.00    +0.000 A 
ATOM     20  C   UNL     1      -3.194  10.082  17.906  0.00  0.00    +0.000 A 
ATOM     21  C   UNL     1      -2.279   9.708  16.915  0.00  0.00    +0.000 A 
ATOM     22  C   UNL     1      -2.479  10.102  15.597  0.00  0.00    +0.000 A 
ATOM     23  C   UNL     1      -3.592  10.872  15.271  0.00  0.00    +0.000 A 
ATOM     24  C   UNL     1      -4.507  11.252  16.260  0.00  0.00    +0.000 A 
ENDBRANCH  15  19
BRANCH   1  25
ATOM     25  C   UNL     1      -1.999  14.542  20.644  0.00  0.00    +0.000 C 
BRANCH  25  26
ATOM     26  C   UNL     1      -0.821  13.621  21.073  0.00  0.00    +0.000 C 
BRANCH  26  27
ATOM     27  N   UNL     1      -1.028  12.158  20.944  0.00  0.00    +0.000 NA
BRANCH  27  29
ATOM     28  C   UNL     1       0.351  10.211  20.101  0.00  0.00    +0.000 C 
ATOM     29  C   UNL     1      -0.224  11.600  19.849  0.00  0.00    +0.000 C 
ENDBRANCH  27  29
BRANCH  27  30
ATOM     30  C   UNL     1      -0.841  11.484  22.242  0.00  0.00    +0.000 C 
ATOM     31  C   UNL     1      -1.999  11.601  23.231  0.00  0.00    +0.000 C 
ENDBRANCH  27  30
ENDBRANCH  26  27
ENDBRANCH  25  26
ENDBRANCH   1  25
TORSDOF 6
ENDMDL
MODEL 9
REMARK VINA RESULT:      -6.8      6.480     10.198
REMARK  Name = 
REMARK  8 active torsions:
REMARK  status: ('A' for Active; 'I' for Inactive)
REMARK    1  A    between atoms: C_1  and  C_2
REMARK    2  A    between atoms: C_2  and  N_3
REMARK    3  A    between atoms: N_3  and  C_4
REMARK    4  A    between atoms: N_3  and  C_6
REMARK    5  A    between atoms: C_4  and  C_5
REMARK    6  A    between atoms: C_6  and  C_7
REMARK    7  A    between atoms: C_7  and  N_8
REMARK    8  A    between atoms: N_22  and  C_23
REMARK                            x       y       z     vdW  Elec       q    Type
REMARK                         _______ _______ _______ _____ _____    ______ ____
ROOT
ATOM      1  N   UNL     1      -2.431  13.875  21.883  0.00  0.00    +0.000 N 
ATOM      2  C   UNL     1      -2.345  14.538  23.121  0.00  0.00    +0.000 A 
ATOM      3  C   UNL     1      -1.138  14.844  23.774  0.00  0.00    +0.000 A 
ATOM      4  C   UNL     1      -1.107  15.491  25.018  0.00  0.00    +0.000 A 
ATOM      5  C   UNL     1      -2.289  15.871  25.641  0.00  0.00    +0.000 A 
ATOM      6  C   UNL     1      -3.502  15.575  25.030  0.00  0.00    +0.000 A 
ATOM      7  C   UNL     1      -3.523  14.893  23.802  0.00  0.00    +0.000 A 
ATOM      8  C   UNL     1      -4.825  14.489  23.233  0.00  0.00    +0.000 A 
ATOM      9  O   UNL     1      -5.874  14.808  23.785  0.00  0.00    +0.000 OA
ATOM     10  C   UNL     1      -4.846  13.653  22.019  0.00  0.00    +0.000 A 
ATOM     11  C   UNL     1      -6.071  13.168  21.556  0.00  0.00    +0.000 A 
ATOM     12  C   UNL     1      -6.041  12.391  20.392  0.00  0.00    +0.000 A 
ATOM     13  N   UNL     1      -7.064  11.803  19.716  0.00  0.00    +0.000 NA
ATOM     14  C   UNL     1      -6.486  11.220  18.689  0.00  0.00    +0.000 A 
ATOM     15  N   UNL     1      -5.115  11.407  18.639  0.00  0.00    +0.000 N 
ATOM     16  C   UNL     1      -4.813  12.146  19.784  0.00  0.00    +0.000 A 
ATOM     17  N   UNL     1      -3.612  12.577  20.238  0.00  0.00    +0.000 NA
ATOM     18  C   UNL     1      -3.648  13.356  21.356  0.00  0.00    +0.000 A 
ENDROOT
BRANCH  15  19
ATOM     19  C   UNL     1      -4.249  10.937  17.597  0.00  0.00    +0.000 A 
ATOM     20  C   UNL     1      -4.425  11.384  16.274  0.00  0.00    +0.000 A 
ATOM     21  C   UNL     1      -3.577  10.950  15.249  0.00  0.00    +0.000 A 
ATOM     22  C   UNL     1      -2.540  10.067  15.529  0.00  0.00    +0.000 A 
ATOM     23  C   UNL     1      -2.354   9.617  16.833  0.00  0.00    +0.000 A 
ATOM     24  C   UNL     1      -3.203  10.046  17.860  0.00  0.00    +0.000 A 
ENDBRANCH  15  19
BRANCH   1  25
ATOM     25  C   UNL     1      -1.262  13.727  20.996  0.00  0.00    +0.000 C 
BRANCH  25  26
ATOM     26  C   UNL     1       0.030  13.237  21.711  0.00  0.00    +0.000 C 
BRANCH  26  27
ATOM     27  N   UNL     1       0.404  11.813  21.526  0.00  0.00    +0.000 NA
BRANCH  27  29
ATOM     28  C   UNL     1      -0.766  10.244  23.130  0.00  0.00    +0.000 C 
ATOM     29  C   UNL     1      -0.741  10.926  21.767  0.00  0.00    +0.000 C 
ENDBRANCH  27  29
BRANCH  27  30
ATOM     30  C   UNL     1       1.070  11.610  20.227  0.00  0.00    +0.000 C 
ATOM     31  C   UNL     1       0.304  10.772  19.205  0.00  0.00    +0.000 C 
ENDBRANCH  27  30
ENDBRANCH  26  27
ENDBRANCH  25  26
ENDBRANCH   1  25
TORSDOF 6
ENDMDL
