MODEL 1
REMARK VINA RESULT:      -7.7      0.000      0.000
REMARK  Name = 
REMARK  12 active torsions:
REMARK  status: ('A' for Active; 'I' for Inactive)
REMARK    1  A    between atoms: C_1  and  C_2
REMARK    2  A    between atoms: C_3  and  C_4
REMARK    3  A    between atoms: N_6  and  C_7
REMARK    4  A    between atoms: C_11  and  N_12
REMARK    5  A    between atoms: N_13  and  C_14
REMARK    6  A    between atoms: N_22  and  C_23
REMARK    7  A    between atoms: C_23  and  C_24
REMARK    8  A    between atoms: C_24  and  C_25
REMARK    9  A    between atoms: C_25  and  C_26
REMARK   10  A    between atoms: C_26  and  C_27
REMARK   11  A    between atoms: C_27  and  O_28
REMARK   12  A    between atoms: C_29  and  C_30
REMARK                            x       y       z     vdW  Elec       q    Type
REMARK                         _______ _______ _______ _____ _____    ______ ____
ROOT
ATOM      1  C   UNL     1       3.059   7.795  17.812  0.00  0.00    +0.000 C 
ATOM      2  C   UNL     1       3.227   6.548  18.615  0.00  0.00    +0.000 A 
ATOM      3  C   UNL     1       2.535   6.209  19.825  0.00  0.00    +0.000 A 
ATOM      4  N   UNL     1       2.975   5.039  20.304  0.00  0.00    +0.000 NA
ATOM      5  N   UNL     1       3.933   4.629  19.439  0.00  0.00    +0.000 N 
ATOM      6  C   UNL     1       4.108   5.487  18.360  0.00  0.00    +0.000 A 
ENDROOT
BRANCH   6   7
ATOM      7  C   UNL     1       5.017   5.269  17.204  0.00  0.00    +0.000 A 
ATOM      8  C   UNL     1       6.252   5.935  17.118  0.00  0.00    +0.000 A 
ATOM      9  C   UNL     1       7.093   5.796  16.006  0.00  0.00    +0.000 A 
ATOM     10  C   UNL     1       6.701   5.004  14.935  0.00  0.00    +0.000 A 
ATOM     11  C   UNL     1       5.504   4.303  15.011  0.00  0.00    +0.000 A 
ATOM     12  C   UNL     1       4.692   4.410  16.147  0.00  0.00    +0.000 A 
ENDBRANCH   6   7
BRANCH   3  13
ATOM     13  C   UNL     1       1.476   6.959  20.539  0.00  0.00    +0.000 C 
ATOM     14  O   UNL     1       0.408   6.420  20.836  0.00  0.00    +0.000 OA
ATOM     15  N   UNL     1       1.787   8.296  20.795  0.00  0.00    +0.000 N 
ATOM     16  H   UNL     1       2.670   8.597  20.393  0.00  0.00    +0.000 HD
BRANCH  15  17
ATOM     17  C   UNL     1       0.960   9.247  21.451  0.00  0.00    +0.000 A 
ATOM     18  C   UNL     1       0.209   8.922  22.582  0.00  0.00    +0.000 A 
ATOM     19  C   UNL     1      -0.617   9.865  23.193  0.00  0.00    +0.000 A 
ATOM     20  C   UNL     1      -0.699  11.158  22.680  0.00  0.00    +0.000 A 
ATOM     21  C   UNL     1       0.055  11.527  21.561  0.00  0.00    +0.000 A 
ATOM     22  C   UNL     1       0.899  10.559  20.959  0.00  0.00    +0.000 A 
BRANCH  21  23
ATOM     23  N   UNL     1      -0.014  12.875  21.139  0.00  0.00    +0.000 NA
ATOM     24  N   UNL     1      -0.867  13.052  20.244  0.00  0.00    +0.000 NA
BRANCH  24  25
ATOM     25  C   UNL     1      -0.926  14.403  19.827  0.00  0.00    +0.000 A 
ATOM     26  C   UNL     1      -1.733  15.287  20.554  0.00  0.00    +0.000 A 
ATOM     27  C   UNL     1      -1.798  16.643  20.223  0.00  0.00    +0.000 A 
ATOM     28  C   UNL     1      -1.048  17.140  19.160  0.00  0.00    +0.000 A 
ATOM     29  C   UNL     1      -0.234  16.278  18.426  0.00  0.00    +0.000 A 
ATOM     30  C   UNL     1      -0.172  14.919  18.761  0.00  0.00    +0.000 A 
ENDBRANCH  24  25
ENDBRANCH  21  23
ENDBRANCH  15  17
ENDBRANCH   3  13
BRANCH   5  31
ATOM     31  C   UNL     1       4.640   3.381  19.768  0.00  0.00    +0.000 C 
BRANCH  31  32
ATOM     32  C   UNL     1       3.727   2.154  19.683  0.00  0.00    +0.000 C 
BRANCH  32  33
ATOM     33  C   UNL     1       3.191   1.751  18.308  0.00  0.00    +0.000 C 
BRANCH  33  34
ATOM     34  C   UNL     1       1.887   2.544  18.093  0.00  0.00    +0.000 C 
BRANCH  34  35
ATOM     35  C   UNL     1       0.771   2.244  19.079  0.00  0.00    +0.000 C 
BRANCH  35  36
ATOM     36  O   UNL     1       0.508   3.370  19.898  0.00  0.00    +0.000 OA
ATOM     37  H   UNL     1       1.305   3.927  19.889  0.00  0.00    +0.000 HD
ENDBRANCH  35  36
ENDBRANCH  34  35
ENDBRANCH  33  34
ENDBRANCH  32  33
ENDBRANCH  31  32
ENDBRANCH   5  31
TORSDOF 11
ENDMDL
MODEL 2
REMARK VINA RESULT:      -7.3      3.099      4.831
REMARK  Name = 
REMARK  12 active torsions:
REMARK  status: ('A' for Active; 'I' for Inactive)
REMARK    1  A    between atoms: C_1  and  C_2
REMARK    2  A    between atoms: C_3  and  C_4
REMARK    3  A    between atoms: N_6  and  C_7
REMARK    4  A    between atoms: C_11  and  N_12
REMARK    5  A    between atoms: N_13  and  C_14
REMARK    6  A    between atoms: N_22  and  C_23
REMARK    7  A    between atoms: C_23  and  C_24
REMARK    8  A    between atoms: C_24  and  C_25
REMARK    9  A    between atoms: C_25  and  C_26
REMARK   10  A    between atoms: C_26  and  C_27
REMARK   11  A    between atoms: C_27  and  O_28
REMARK   12  A    between atoms: C_29  and  C_30
REMARK                            x       y       z     vdW  Elec       q    Type
REMARK                         _______ _______ _______ _____ _____    ______ ____
ROOT
ATOM      1  C   UNL     1       1.262   5.760  20.687  0.00  0.00    +0.000 C 
ATOM      2  C   UNL     1       2.109   6.325  19.595  0.00  0.00    +0.000 A 
ATOM      3  C   UNL     1       2.213   7.706  19.222  0.00  0.00    +0.000 A 
ATOM      4  N   UNL     1       3.021   7.843  18.163  0.00  0.00    +0.000 NA
ATOM      5  N   UNL     1       3.425   6.591  17.847  0.00  0.00    +0.000 N 
ATOM      6  C   UNL     1       2.936   5.618  18.709  0.00  0.00    +0.000 A 
ENDROOT
BRANCH   6   7
ATOM      7  C   UNL     1       3.267   4.169  18.679  0.00  0.00    +0.000 A 
ATOM      8  C   UNL     1       2.717   3.320  17.702  0.00  0.00    +0.000 A 
ATOM      9  C   UNL     1       2.964   1.941  17.696  0.00  0.00    +0.000 A 
ATOM     10  C   UNL     1       3.749   1.372  18.689  0.00  0.00    +0.000 A 
ATOM     11  C   UNL     1       4.339   2.193  19.643  0.00  0.00    +0.000 A 
ATOM     12  C   UNL     1       4.125   3.576  19.614  0.00  0.00    +0.000 A 
ENDBRANCH   6   7
BRANCH   3  13
ATOM     13  C   UNL     1       1.571   8.893  19.833  0.00  0.00    +0.000 C 
ATOM     14  O   UNL     1       1.275   8.907  21.028  0.00  0.00    +0.000 OA
ATOM     15  N   UNL     1       1.312   9.933  18.939  0.00  0.00    +0.000 N 
ATOM     16  H   UNL     1       1.532   9.711  17.973  0.00  0.00    +0.000 HD
BRANCH  15  17
ATOM     17  C   UNL     1       0.699  11.177  19.244  0.00  0.00    +0.000 A 
ATOM     18  C   UNL     1       1.435  12.356  19.376  0.00  0.00    +0.000 A 
ATOM     19  C   UNL     1       0.815  13.561  19.704  0.00  0.00    +0.000 A 
ATOM     20  C   UNL     1      -0.564  13.605  19.898  0.00  0.00    +0.000 A 
ATOM     21  C   UNL     1      -1.340  12.449  19.752  0.00  0.00    +0.000 A 
ATOM     22  C   UNL     1      -0.693  11.235  19.407  0.00  0.00    +0.000 A 
BRANCH  21  23
ATOM     23  N   UNL     1      -2.742  12.579  19.884  0.00  0.00    +0.000 NA
ATOM     24  N   UNL     1      -3.363  11.979  18.981  0.00  0.00    +0.000 NA
BRANCH  24  25
ATOM     25  C   UNL     1      -4.765  12.117  19.119  0.00  0.00    +0.000 A 
ATOM     26  C   UNL     1      -5.587  11.541  18.142  0.00  0.00    +0.000 A 
ATOM     27  C   UNL     1      -6.979  11.600  18.245  0.00  0.00    +0.000 A 
ATOM     28  C   UNL     1      -7.574  12.232  19.335  0.00  0.00    +0.000 A 
ATOM     29  C   UNL     1      -6.774  12.807  20.321  0.00  0.00    +0.000 A 
ATOM     30  C   UNL     1      -5.378  12.746  20.214  0.00  0.00    +0.000 A 
ENDBRANCH  24  25
ENDBRANCH  21  23
ENDBRANCH  15  17
ENDBRANCH   3  13
BRANCH   5  31
ATOM     31  C   UNL     1       4.285   6.444  16.661  0.00  0.00    +0.000 C 
BRANCH  31  32
ATOM     32  C   UNL     1       5.723   6.903  16.924  0.00  0.00    +0.000 C 
BRANCH  32  33
ATOM     33  C   UNL     1       6.766   5.838  17.267  0.00  0.00    +0.000 C 
BRANCH  33  34
ATOM     34  C   UNL     1       7.833   6.530  18.137  0.00  0.00    +0.000 C 
BRANCH  34  35
ATOM     35  C   UNL     1       8.107   5.873  19.478  0.00  0.00    +0.000 C 
BRANCH  35  36
ATOM     36  O   UNL     1       6.927   5.286  20.001  0.00  0.00    +0.000 OA
ATOM     37  H   UNL     1       6.184   5.867  19.762  0.00  0.00    +0.000 HD
ENDBRANCH  35  36
ENDBRANCH  34  35
ENDBRANCH  33  34
ENDBRANCH  32  33
ENDBRANCH  31  32
ENDBRANCH   5  31
TORSDOF 11
ENDMDL
MODEL 3
REMARK VINA RESULT:      -7.3      3.194      4.868
REMARK  Name = 
REMARK  12 active torsions:
REMARK  status: ('A' for Active; 'I' for Inactive)
REMARK    1  A    between atoms: C_1  and  C_2
REMARK    2  A    between atoms: C_3  and  C_4
REMARK    3  A    between atoms: N_6  and  C_7
REMARK    4  A    between atoms: C_11  and  N_12
REMARK    5  A    between atoms: N_13  and  C_14
REMARK    6  A    between atoms: N_22  and  C_23
REMARK    7  A    between atoms: C_23  and  C_24
REMARK    8  A    between atoms: C_24  and  C_25
REMARK    9  A    between atoms: C_25  and  C_26
REMARK   10  A    between atoms: C_26  and  C_27
REMARK   11  A    between atoms: C_27  and  O_28
REMARK   12  A    between atoms: C_29  and  C_30
REMARK                            x       y       z     vdW  Elec       q    Type
REMARK                         _______ _______ _______ _____ _____    ______ ____
ROOT
ATOM      1  C   UNL     1       1.226   6.099  20.553  0.00  0.00    +0.000 C 
ATOM      2  C   UNL     1       2.081   6.649  19.460  0.00  0.00    +0.000 A 
ATOM      3  C   UNL     1       2.174   8.022  19.056  0.00  0.00    +0.000 A 
ATOM      4  N   UNL     1       2.996   8.146  18.007  0.00  0.00    +0.000 NA
ATOM      5  N   UNL     1       3.421   6.892  17.727  0.00  0.00    +0.000 N 
ATOM      6  C   UNL     1       2.931   5.933  18.604  0.00  0.00    +0.000 A 
ENDROOT
BRANCH   6   7
ATOM      7  C   UNL     1       3.281   4.489  18.612  0.00  0.00    +0.000 A 
ATOM      8  C   UNL     1       2.726   3.602  17.672  0.00  0.00    +0.000 A 
ATOM      9  C   UNL     1       2.992   2.227  17.704  0.00  0.00    +0.000 A 
ATOM     10  C   UNL     1       3.801   1.700  18.701  0.00  0.00    +0.000 A 
ATOM     11  C   UNL     1       4.396   2.558  19.618  0.00  0.00    +0.000 A 
ATOM     12  C   UNL     1       4.163   3.936  19.550  0.00  0.00    +0.000 A 
ENDBRANCH   6   7
BRANCH   3  13
ATOM     13  C   UNL     1       1.507   9.215  19.630  0.00  0.00    +0.000 C 
ATOM     14  O   UNL     1       1.215   9.263  20.826  0.00  0.00    +0.000 OA
ATOM     15  N   UNL     1       1.222  10.219  18.702  0.00  0.00    +0.000 N 
ATOM     16  H   UNL     1       1.444   9.969  17.743  0.00  0.00    +0.000 HD
BRANCH  15  17
ATOM     17  C   UNL     1       0.582  11.458  18.968  0.00  0.00    +0.000 A 
ATOM     18  C   UNL     1       1.266  12.674  18.914  0.00  0.00    +0.000 A 
ATOM     19  C   UNL     1       0.623  13.876  19.207  0.00  0.00    +0.000 A 
ATOM     20  C   UNL     1      -0.727  13.880  19.552  0.00  0.00    +0.000 A 
ATOM     21  C   UNL     1      -1.452  12.684  19.595  0.00  0.00    +0.000 A 
ATOM     22  C   UNL     1      -0.785  11.471  19.284  0.00  0.00    +0.000 A 
BRANCH  21  23
ATOM     23  N   UNL     1      -2.836  12.766  19.875  0.00  0.00    +0.000 NA
ATOM     24  N   UNL     1      -3.523  12.090  19.080  0.00  0.00    +0.000 NA
BRANCH  24  25
ATOM     25  C   UNL     1      -4.907  12.181  19.365  0.00  0.00    +0.000 A 
ATOM     26  C   UNL     1      -5.296  12.432  20.687  0.00  0.00    +0.000 A 
ATOM     27  C   UNL     1      -6.643  12.580  21.026  0.00  0.00    +0.000 A 
ATOM     28  C   UNL     1      -7.626  12.487  20.044  0.00  0.00    +0.000 A 
ATOM     29  C   UNL     1      -7.260  12.244  18.721  0.00  0.00    +0.000 A 
ATOM     30  C   UNL     1      -5.908  12.095  18.385  0.00  0.00    +0.000 A 
ENDBRANCH  24  25
ENDBRANCH  21  23
ENDBRANCH  15  17
ENDBRANCH   3  13
BRANCH   5  31
ATOM     31  C   UNL     1       4.301   6.729  16.558  0.00  0.00    +0.000 C 
BRANCH  31  32
ATOM     32  C   UNL     1       5.644   6.090  16.923  0.00  0.00    +0.000 C 
BRANCH  32  33
ATOM     33  C   UNL     1       6.800   7.016  17.307  0.00  0.00    +0.000 C 
BRANCH  33  34
ATOM     34  C   UNL     1       7.679   6.235  18.303  0.00  0.00    +0.000 C 
BRANCH  34  35
ATOM     35  C   UNL     1       7.482   4.730  18.305  0.00  0.00    +0.000 C 
BRANCH  35  36
ATOM     36  O   UNL     1       8.211   4.126  17.250  0.00  0.00    +0.000 OA
ATOM     37  H   UNL     1       7.874   4.496  16.416  0.00  0.00    +0.000 HD
ENDBRANCH  35  36
ENDBRANCH  34  35
ENDBRANCH  33  34
ENDBRANCH  32  33
ENDBRANCH  31  32
ENDBRANCH   5  31
TORSDOF 11
ENDMDL
MODEL 4
REMARK VINA RESULT:      -7.3      3.335      5.193
REMARK  Name = 
REMARK  12 active torsions:
REMARK  status: ('A' for Active; 'I' for Inactive)
REMARK    1  A    between atoms: C_1  and  C_2
REMARK    2  A    between atoms: C_3  and  C_4
REMARK    3  A    between atoms: N_6  and  C_7
REMARK    4  A    between atoms: C_11  and  N_12
REMARK    5  A    between atoms: N_13  and  C_14
REMARK    6  A    between atoms: N_22  and  C_23
REMARK    7  A    between atoms: C_23  and  C_24
REMARK    8  A    between atoms: C_24  and  C_25
REMARK    9  A    between atoms: C_25  and  C_26
REMARK   10  A    between atoms: C_26  and  C_27
REMARK   11  A    between atoms: C_27  and  O_28
REMARK   12  A    between atoms: C_29  and  C_30
REMARK                            x       y       z     vdW  Elec       q    Type
REMARK                         _______ _______ _______ _____ _____    ______ ____
ROOT
ATOM      1  C   UNL     1       1.319   5.489  20.455  0.00  0.00    +0.000 C 
ATOM      2  C   UNL     1       2.260   6.007  19.419  0.00  0.00    +0.000 A 
ATOM      3  C   UNL     1       2.384   7.367  18.979  0.00  0.00    +0.000 A 
ATOM      4  N   UNL     1       3.289   7.460  17.997  0.00  0.00    +0.000 NA
ATOM      5  N   UNL     1       3.737   6.199  17.793  0.00  0.00    +0.000 N 
ATOM      6  C   UNL     1       3.178   5.267  18.658  0.00  0.00    +0.000 A 
ENDROOT
BRANCH   6   7
ATOM      7  C   UNL     1       3.528   3.825  18.742  0.00  0.00    +0.000 A 
ATOM      8  C   UNL     1       3.019   2.900  17.813  0.00  0.00    +0.000 A 
ATOM      9  C   UNL     1       3.284   1.527  17.914  0.00  0.00    +0.000 A 
ATOM     10  C   UNL     1       4.045   1.043  18.969  0.00  0.00    +0.000 A 
ATOM     11  C   UNL     1       4.594   1.939  19.878  0.00  0.00    +0.000 A 
ATOM     12  C   UNL     1       4.364   3.313  19.743  0.00  0.00    +0.000 A 
ENDBRANCH   6   7
BRANCH   3  13
ATOM     13  C   UNL     1       1.671   8.574  19.457  0.00  0.00    +0.000 C 
ATOM     14  O   UNL     1       1.465   8.754  20.658  0.00  0.00    +0.000 OA
ATOM     15  N   UNL     1       1.241   9.431  18.442  0.00  0.00    +0.000 N 
ATOM     16  H   UNL     1       1.410   9.077  17.505  0.00  0.00    +0.000 HD
BRANCH  15  17
ATOM     17  C   UNL     1       0.528  10.648  18.608  0.00  0.00    +0.000 A 
ATOM     18  C   UNL     1       1.177  11.880  18.715  0.00  0.00    +0.000 A 
ATOM     19  C   UNL     1       0.458  13.059  18.906  0.00  0.00    +0.000 A 
ATOM     20  C   UNL     1      -0.933  13.023  18.984  0.00  0.00    +0.000 A 
ATOM     21  C   UNL     1      -1.621  11.811  18.858  0.00  0.00    +0.000 A 
ATOM     22  C   UNL     1      -0.873  10.622  18.654  0.00  0.00    +0.000 A 
BRANCH  21  23
ATOM     23  N   UNL     1      -3.034  11.854  18.867  0.00  0.00    +0.000 NA
ATOM     24  N   UNL     1      -3.486  12.455  19.864  0.00  0.00    +0.000 NA
BRANCH  24  25
ATOM     25  C   UNL     1      -4.901  12.491  19.867  0.00  0.00    +0.000 A 
ATOM     26  C   UNL     1      -5.562  12.640  18.641  0.00  0.00    +0.000 A 
ATOM     27  C   UNL     1      -6.958  12.635  18.569  0.00  0.00    +0.000 A 
ATOM     28  C   UNL     1      -7.717  12.472  19.725  0.00  0.00    +0.000 A 
ATOM     29  C   UNL     1      -7.079  12.315  20.954  0.00  0.00    +0.000 A 
ATOM     30  C   UNL     1      -5.680  12.322  21.022  0.00  0.00    +0.000 A 
ENDBRANCH  24  25
ENDBRANCH  21  23
ENDBRANCH  15  17
ENDBRANCH   3  13
BRANCH   5  31
ATOM     31  C   UNL     1       4.709   6.002  16.705  0.00  0.00    +0.000 C 
BRANCH  31  32
ATOM     32  C   UNL     1       5.885   6.979  16.791  0.00  0.00    +0.000 C 
BRANCH  32  33
ATOM     33  C   UNL     1       7.282   6.403  17.028  0.00  0.00    +0.000 C 
BRANCH  33  34
ATOM     34  C   UNL     1       7.861   7.140  18.251  0.00  0.00    +0.000 C 
BRANCH  34  35
ATOM     35  C   UNL     1       8.216   8.600  18.026  0.00  0.00    +0.000 C 
BRANCH  35  36
ATOM     36  O   UNL     1       9.004   9.096  19.094  0.00  0.00    +0.000 OA
ATOM     37  H   UNL     1       9.139  10.047  18.937  0.00  0.00    +0.000 HD
ENDBRANCH  35  36
ENDBRANCH  34  35
ENDBRANCH  33  34
ENDBRANCH  32  33
ENDBRANCH  31  32
ENDBRANCH   5  31
TORSDOF 11
ENDMDL
MODEL 5
REMARK VINA RESULT:      -7.1      3.379      5.019
REMARK  Name = 
REMARK  12 active torsions:
REMARK  status: ('A' for Active; 'I' for Inactive)
REMARK    1  A    between atoms: C_1  and  C_2
REMARK    2  A    between atoms: C_3  and  C_4
REMARK    3  A    between atoms: N_6  and  C_7
REMARK    4  A    between atoms: C_11  and  N_12
REMARK    5  A    between atoms: N_13  and  C_14
REMARK    6  A    between atoms: N_22  and  C_23
REMARK    7  A    between atoms: C_23  and  C_24
REMARK    8  A    between atoms: C_24  and  C_25
REMARK    9  A    between atoms: C_25  and  C_26
REMARK   10  A    between atoms: C_26  and  C_27
REMARK   11  A    between atoms: C_27  and  O_28
REMARK   12  A    between atoms: C_29  and  C_30
REMARK                            x       y       z     vdW  Elec       q    Type
REMARK                         _______ _______ _______ _____ _____    ______ ____
ROOT
ATOM      1  C   UNL     1       1.094   5.457  20.129  0.00  0.00    +0.000 C 
ATOM      2  C   UNL     1       2.252   6.025  19.377  0.00  0.00    +0.000 A 
ATOM      3  C   UNL     1       2.497   7.411  19.103  0.00  0.00    +0.000 A 
ATOM      4  N   UNL     1       3.599   7.552  18.356  0.00  0.00    +0.000 NA
ATOM      5  N   UNL     1       4.056   6.296  18.140  0.00  0.00    +0.000 N 
ATOM      6  C   UNL     1       3.300   5.316  18.772  0.00  0.00    +0.000 A 
ENDROOT
BRANCH   6   7
ATOM      7  C   UNL     1       3.595   3.860  18.797  0.00  0.00    +0.000 A 
ATOM      8  C   UNL     1       3.070   2.997  17.819  0.00  0.00    +0.000 A 
ATOM      9  C   UNL     1       3.281   1.612  17.862  0.00  0.00    +0.000 A 
ATOM     10  C   UNL     1       4.002   1.053  18.908  0.00  0.00    +0.000 A 
ATOM     11  C   UNL     1       4.566   1.886  19.866  0.00  0.00    +0.000 A 
ATOM     12  C   UNL     1       4.391   3.273  19.789  0.00  0.00    +0.000 A 
ENDBRANCH   6   7
BRANCH   3  13
ATOM     13  C   UNL     1       1.720   8.601  19.522  0.00  0.00    +0.000 C 
ATOM     14  O   UNL     1       1.168   8.641  20.623  0.00  0.00    +0.000 OA
ATOM     15  N   UNL     1       1.648   9.612  18.562  0.00  0.00    +0.000 N 
ATOM     16  H   UNL     1       2.078   9.368  17.675  0.00  0.00    +0.000 HD
BRANCH  15  17
ATOM     17  C   UNL     1       0.965  10.851  18.688  0.00  0.00    +0.000 A 
ATOM     18  C   UNL     1       1.604  12.075  18.480  0.00  0.00    +0.000 A 
ATOM     19  C   UNL     1       0.920  13.280  18.636  0.00  0.00    +0.000 A 
ATOM     20  C   UNL     1      -0.426  13.277  18.997  0.00  0.00    +0.000 A 
ATOM     21  C   UNL     1      -1.106  12.069  19.193  0.00  0.00    +0.000 A 
ATOM     22  C   UNL     1      -0.397  10.853  19.019  0.00  0.00    +0.000 A 
BRANCH  21  23
ATOM     23  N   UNL     1      -2.489  12.135  19.480  0.00  0.00    +0.000 NA
ATOM     24  N   UNL     1      -3.193  11.737  18.528  0.00  0.00    +0.000 NA
BRANCH  24  25
ATOM     25  C   UNL     1      -4.575  11.809  18.823  0.00  0.00    +0.000 A 
ATOM     26  C   UNL     1      -5.468  11.126  17.988  0.00  0.00    +0.000 A 
ATOM     27  C   UNL     1      -6.840  11.118  18.252  0.00  0.00    +0.000 A 
ATOM     28  C   UNL     1      -7.342  11.790  19.364  0.00  0.00    +0.000 A 
ATOM     29  C   UNL     1      -6.470  12.471  20.211  0.00  0.00    +0.000 A 
ATOM     30  C   UNL     1      -5.096  12.477  19.943  0.00  0.00    +0.000 A 
ENDBRANCH  24  25
ENDBRANCH  21  23
ENDBRANCH  15  17
ENDBRANCH   3  13
BRANCH   5  31
ATOM     31  C   UNL     1       5.241   6.154  17.279  0.00  0.00    +0.000 C 
BRANCH  31  32
ATOM     32  C   UNL     1       4.880   5.705  15.860  0.00  0.00    +0.000 C 
BRANCH  32  33
ATOM     33  C   UNL     1       5.405   4.351  15.379  0.00  0.00    +0.000 C 
BRANCH  33  34
ATOM     34  C   UNL     1       6.900   4.546  15.060  0.00  0.00    +0.000 C 
BRANCH  34  35
ATOM     35  C   UNL     1       7.218   4.900  13.618  0.00  0.00    +0.000 C 
BRANCH  35  36
ATOM     36  O   UNL     1       8.326   5.781  13.550  0.00  0.00    +0.000 OA
ATOM     37  H   UNL     1       8.507   5.946  12.608  0.00  0.00    +0.000 HD
ENDBRANCH  35  36
ENDBRANCH  34  35
ENDBRANCH  33  34
ENDBRANCH  32  33
ENDBRANCH  31  32
ENDBRANCH   5  31
TORSDOF 11
ENDMDL
MODEL 6
REMARK VINA RESULT:      -7.1      2.857      3.583
REMARK  Name = 
REMARK  12 active torsions:
REMARK  status: ('A' for Active; 'I' for Inactive)
REMARK    1  A    between atoms: C_1  and  C_2
REMARK    2  A    between atoms: C_3  and  C_4
REMARK    3  A    between atoms: N_6  and  C_7
REMARK    4  A    between atoms: C_11  and  N_12
REMARK    5  A    between atoms: N_13  and  C_14
REMARK    6  A    between atoms: N_22  and  C_23
REMARK    7  A    between atoms: C_23  and  C_24
REMARK    8  A    between atoms: C_24  and  C_25
REMARK    9  A    between atoms: C_25  and  C_26
REMARK   10  A    between atoms: C_26  and  C_27
REMARK   11  A    between atoms: C_27  and  O_28
REMARK   12  A    between atoms: C_29  and  C_30
REMARK                            x       y       z     vdW  Elec       q    Type
REMARK                         _______ _______ _______ _____ _____    ______ ____
ROOT
ATOM      1  C   UNL     1       2.347   8.879  17.736  0.00  0.00    +0.000 C 
ATOM      2  C   UNL     1       2.329   7.788  18.754  0.00  0.00    +0.000 A 
ATOM      3  C   UNL     1       1.646   7.806  20.015  0.00  0.00    +0.000 A 
ATOM      4  N   UNL     1       1.894   6.681  20.697  0.00  0.00    +0.000 NA
ATOM      5  N   UNL     1       2.721   5.952  19.911  0.00  0.00    +0.000 N 
ATOM      6  C   UNL     1       2.994   6.554  18.689  0.00  0.00    +0.000 A 
ENDROOT
BRANCH   6   7
ATOM      7  C   UNL     1       3.793   5.969  17.581  0.00  0.00    +0.000 A 
ATOM      8  C   UNL     1       3.688   4.605  17.253  0.00  0.00    +0.000 A 
ATOM      9  C   UNL     1       4.480   4.020  16.256  0.00  0.00    +0.000 A 
ATOM     10  C   UNL     1       5.421   4.784  15.581  0.00  0.00    +0.000 A 
ATOM     11  C   UNL     1       5.517   6.143  15.855  0.00  0.00    +0.000 A 
ATOM     12  C   UNL     1       4.689   6.730  16.819  0.00  0.00    +0.000 A 
ENDBRANCH   6   7
BRANCH   3  13
ATOM     13  C   UNL     1       0.773   8.854  20.593  0.00  0.00    +0.000 C 
ATOM     14  O   UNL     1      -0.110   8.567  21.403  0.00  0.00    +0.000 OA
ATOM     15  N   UNL     1       1.021  10.141  20.113  0.00  0.00    +0.000 N 
ATOM     16  H   UNL     1       1.719  10.179  19.376  0.00  0.00    +0.000 HD
BRANCH  15  17
ATOM     17  C   UNL     1       0.333  11.328  20.481  0.00  0.00    +0.000 A 
ATOM     18  C   UNL     1       0.998  12.440  21.004  0.00  0.00    +0.000 A 
ATOM     19  C   UNL     1       0.299  13.584  21.385  0.00  0.00    +0.000 A 
ATOM     20  C   UNL     1      -1.086  13.637  21.239  0.00  0.00    +0.000 A 
ATOM     21  C   UNL     1      -1.786  12.552  20.698  0.00  0.00    +0.000 A 
ATOM     22  C   UNL     1      -1.056  11.400  20.306  0.00  0.00    +0.000 A 
BRANCH  21  23
ATOM     23  N   UNL     1      -3.178  12.700  20.503  0.00  0.00    +0.000 NA
ATOM     24  N   UNL     1      -3.550  12.282  19.386  0.00  0.00    +0.000 NA
BRANCH  24  25
ATOM     25  C   UNL     1      -4.944  12.438  19.199  0.00  0.00    +0.000 A 
ATOM     26  C   UNL     1      -5.475  12.180  17.929  0.00  0.00    +0.000 A 
ATOM     27  C   UNL     1      -6.850  12.268  17.690  0.00  0.00    +0.000 A 
ATOM     28  C   UNL     1      -7.718  12.611  18.723  0.00  0.00    +0.000 A 
ATOM     29  C   UNL     1      -7.211  12.866  19.996  0.00  0.00    +0.000 A 
ATOM     30  C   UNL     1      -5.833  12.777  20.231  0.00  0.00    +0.000 A 
ENDBRANCH  24  25
ENDBRANCH  21  23
ENDBRANCH  15  17
ENDBRANCH   3  13
BRANCH   5  31
ATOM     31  C   UNL     1       3.209   4.675  20.455  0.00  0.00    +0.000 C 
BRANCH  31  32
ATOM     32  C   UNL     1       2.078   3.816  21.030  0.00  0.00    +0.000 C 
BRANCH  32  33
ATOM     33  C   UNL     1       0.761   3.751  20.256  0.00  0.00    +0.000 C 
BRANCH  33  34
ATOM     34  C   UNL     1       1.033   2.913  18.992  0.00  0.00    +0.000 C 
BRANCH  34  35
ATOM     35  C   UNL     1       1.885   1.675  19.201  0.00  0.00    +0.000 C 
BRANCH  35  36
ATOM     36  O   UNL     1       2.771   1.484  18.111  0.00  0.00    +0.000 OA
ATOM     37  H   UNL     1       2.402   1.965  17.351  0.00  0.00    +0.000 HD
ENDBRANCH  35  36
ENDBRANCH  34  35
ENDBRANCH  33  34
ENDBRANCH  32  33
ENDBRANCH  31  32
ENDBRANCH   5  31
TORSDOF 11
ENDMDL
MODEL 7
REMARK VINA RESULT:      -7.1      1.678      2.072
REMARK  Name = 
REMARK  12 active torsions:
REMARK  status: ('A' for Active; 'I' for Inactive)
REMARK    1  A    between atoms: C_1  and  C_2
REMARK    2  A    between atoms: C_3  and  C_4
REMARK    3  A    between atoms: N_6  and  C_7
REMARK    4  A    between atoms: C_11  and  N_12
REMARK    5  A    between atoms: N_13  and  C_14
REMARK    6  A    between atoms: N_22  and  C_23
REMARK    7  A    between atoms: C_23  and  C_24
REMARK    8  A    between atoms: C_24  and  C_25
REMARK    9  A    between atoms: C_25  and  C_26
REMARK   10  A    between atoms: C_26  and  C_27
REMARK   11  A    between atoms: C_27  and  O_28
REMARK   12  A    between atoms: C_29  and  C_30
REMARK                            x       y       z     vdW  Elec       q    Type
REMARK                         _______ _______ _______ _____ _____    ______ ____
ROOT
ATOM      1  C   UNL     1       3.321   8.486  17.521  0.00  0.00    +0.000 C 
ATOM      2  C   UNL     1       2.892   7.513  18.569  0.00  0.00    +0.000 A 
ATOM      3  C   UNL     1       1.903   7.730  19.584  0.00  0.00    +0.000 A 
ATOM      4  N   UNL     1       1.815   6.662  20.387  0.00  0.00    +0.000 NA
ATOM      5  N   UNL     1       2.726   5.777  19.917  0.00  0.00    +0.000 N 
ATOM      6  C   UNL     1       3.391   6.219  18.781  0.00  0.00    +0.000 A 
ENDROOT
BRANCH   6   7
ATOM      7  C   UNL     1       4.379   5.445  17.985  0.00  0.00    +0.000 A 
ATOM      8  C   UNL     1       5.725   5.357  18.386  0.00  0.00    +0.000 A 
ATOM      9  C   UNL     1       6.685   4.689  17.616  0.00  0.00    +0.000 A 
ATOM     10  C   UNL     1       6.326   4.114  16.405  0.00  0.00    +0.000 A 
ATOM     11  C   UNL     1       4.996   4.150  16.004  0.00  0.00    +0.000 A 
ATOM     12  C   UNL     1       4.034   4.779  16.803  0.00  0.00    +0.000 A 
ENDBRANCH   6   7
BRANCH   3  13
ATOM     13  C   UNL     1       1.045   8.914  19.818  0.00  0.00    +0.000 C 
ATOM     14  O   UNL     1       0.475   9.478  18.883  0.00  0.00    +0.000 OA
ATOM     15  N   UNL     1       0.985   9.331  21.150  0.00  0.00    +0.000 N 
ATOM     16  H   UNL     1       1.596   8.810  21.771  0.00  0.00    +0.000 HD
BRANCH  15  17
ATOM     17  C   UNL     1       0.253  10.437  21.658  0.00  0.00    +0.000 A 
ATOM     18  C   UNL     1      -0.679  10.300  22.688  0.00  0.00    +0.000 A 
ATOM     19  C   UNL     1      -1.406  11.395  23.152  0.00  0.00    +0.000 A 
ATOM     20  C   UNL     1      -1.203  12.655  22.593  0.00  0.00    +0.000 A 
ATOM     21  C   UNL     1      -0.261  12.837  21.573  0.00  0.00    +0.000 A 
ATOM     22  C   UNL     1       0.477  11.713  21.121  0.00  0.00    +0.000 A 
BRANCH  21  23
ATOM     23  N   UNL     1      -0.047  14.153  21.104  0.00  0.00    +0.000 NA
ATOM     24  N   UNL     1       0.440  14.176  19.954  0.00  0.00    +0.000 NA
BRANCH  24  25
ATOM     25  C   UNL     1       0.654  15.498  19.494  0.00  0.00    +0.000 A 
ATOM     26  C   UNL     1      -0.339  16.094  18.707  0.00  0.00    +0.000 A 
ATOM     27  C   UNL     1      -0.211  17.413  18.262  0.00  0.00    +0.000 A 
ATOM     28  C   UNL     1       0.913  18.160  18.604  0.00  0.00    +0.000 A 
ATOM     29  C   UNL     1       1.910  17.588  19.392  0.00  0.00    +0.000 A 
ATOM     30  C   UNL     1       1.778  16.266  19.835  0.00  0.00    +0.000 A 
ENDBRANCH  24  25
ENDBRANCH  21  23
ENDBRANCH  15  17
ENDBRANCH   3  13
BRANCH   5  31
ATOM     31  C   UNL     1       2.885   4.520  20.667  0.00  0.00    +0.000 C 
BRANCH  31  32
ATOM     32  C   UNL     1       1.556   3.781  20.856  0.00  0.00    +0.000 C 
BRANCH  32  33
ATOM     33  C   UNL     1       1.333   2.490  20.068  0.00  0.00    +0.000 C 
BRANCH  33  34
ATOM     34  C   UNL     1       2.332   2.511  18.895  0.00  0.00    +0.000 C 
BRANCH  34  35
ATOM     35  C   UNL     1       3.667   1.840  19.163  0.00  0.00    +0.000 C 
BRANCH  35  36
ATOM     36  O   UNL     1       3.915   0.817  18.214  0.00  0.00    +0.000 OA
ATOM     37  H   UNL     1       4.835   0.917  17.913  0.00  0.00    +0.000 HD
ENDBRANCH  35  36
ENDBRANCH  34  35
ENDBRANCH  33  34
ENDBRANCH  32  33
ENDBRANCH  31  32
ENDBRANCH   5  31
TORSDOF 11
ENDMDL
MODEL 8
REMARK VINA RESULT:      -7.0      3.185      4.707
REMARK  Name = 
REMARK  12 active torsions:
REMARK  status: ('A' for Active; 'I' for Inactive)
REMARK    1  A    between atoms: C_1  and  C_2
REMARK    2  A    between atoms: C_3  and  C_4
REMARK    3  A    between atoms: N_6  and  C_7
REMARK    4  A    between atoms: C_11  and  N_12
REMARK    5  A    between atoms: N_13  and  C_14
REMARK    6  A    between atoms: N_22  and  C_23
REMARK    7  A    between atoms: C_23  and  C_24
REMARK    8  A    between atoms: C_24  and  C_25
REMARK    9  A    between atoms: C_25  and  C_26
REMARK   10  A    between atoms: C_26  and  C_27
REMARK   11  A    between atoms: C_27  and  O_28
REMARK   12  A    between atoms: C_29  and  C_30
REMARK                            x       y       z     vdW  Elec       q    Type
REMARK                         _______ _______ _______ _____ _____    ______ ____
ROOT
ATOM      1  C   UNL     1       1.238   5.845  20.416  0.00  0.00    +0.000 C 
ATOM      2  C   UNL     1       2.180   6.322  19.360  0.00  0.00    +0.000 A 
ATOM      3  C   UNL     1       2.357   7.675  18.920  0.00  0.00    +0.000 A 
ATOM      4  N   UNL     1       3.243   7.728  17.918  0.00  0.00    +0.000 NA
ATOM      5  N   UNL     1       3.628   6.448  17.704  0.00  0.00    +0.000 N 
ATOM      6  C   UNL     1       3.045   5.541  18.580  0.00  0.00    +0.000 A 
ENDROOT
BRANCH   6   7
ATOM      7  C   UNL     1       3.331   4.085  18.655  0.00  0.00    +0.000 A 
ATOM      8  C   UNL     1       4.180   3.562  19.646  0.00  0.00    +0.000 A 
ATOM      9  C   UNL     1       4.514   2.202  19.694  0.00  0.00    +0.000 A 
ATOM     10  C   UNL     1       4.027   1.334  18.727  0.00  0.00    +0.000 A 
ATOM     11  C   UNL     1       3.153   1.815  17.760  0.00  0.00    +0.000 A 
ATOM     12  C   UNL     1       2.786   3.166  17.748  0.00  0.00    +0.000 A 
ENDBRANCH   6   7
BRANCH   3  13
ATOM     13  C   UNL     1       1.711   8.913  19.414  0.00  0.00    +0.000 C 
ATOM     14  O   UNL     1       1.320   9.002  20.579  0.00  0.00    +0.000 OA
ATOM     15  N   UNL     1       1.563   9.912  18.450  0.00  0.00    +0.000 N 
ATOM     16  H   UNL     1       1.852   9.631  17.518  0.00  0.00    +0.000 HD
BRANCH  15  17
ATOM     17  C   UNL     1       0.972  11.190  18.639  0.00  0.00    +0.000 A 
ATOM     18  C   UNL     1      -0.412  11.377  18.633  0.00  0.00    +0.000 A 
ATOM     19  C   UNL     1      -0.968  12.645  18.794  0.00  0.00    +0.000 A 
ATOM     20  C   UNL     1      -0.141  13.752  18.973  0.00  0.00    +0.000 A 
ATOM     21  C   UNL     1       1.250  13.602  19.007  0.00  0.00    +0.000 A 
ATOM     22  C   UNL     1       1.798  12.303  18.853  0.00  0.00    +0.000 A 
BRANCH  21  23
ATOM     23  N   UNL     1       2.027  14.753  19.271  0.00  0.00    +0.000 NA
ATOM     24  N   UNL     1       3.182  14.470  19.655  0.00  0.00    +0.000 NA
BRANCH  24  25
ATOM     25  C   UNL     1       3.952  15.628  19.920  0.00  0.00    +0.000 A 
ATOM     26  C   UNL     1       5.105  15.847  19.155  0.00  0.00    +0.000 A 
ATOM     27  C   UNL     1       5.882  16.995  19.335  0.00  0.00    +0.000 A 
ATOM     28  C   UNL     1       5.513  17.948  20.280  0.00  0.00    +0.000 A 
ATOM     29  C   UNL     1       4.366  17.753  21.048  0.00  0.00    +0.000 A 
ATOM     30  C   UNL     1       3.590  16.601  20.866  0.00  0.00    +0.000 A 
ENDBRANCH  24  25
ENDBRANCH  21  23
ENDBRANCH  15  17
ENDBRANCH   3  13
BRANCH   5  31
ATOM     31  C   UNL     1       4.567   6.208  16.595  0.00  0.00    +0.000 C 
BRANCH  31  32
ATOM     32  C   UNL     1       6.027   6.408  17.014  0.00  0.00    +0.000 C 
BRANCH  32  33
ATOM     33  C   UNL     1       7.006   5.257  16.779  0.00  0.00    +0.000 C 
BRANCH  33  34
ATOM     34  C   UNL     1       7.471   4.783  18.169  0.00  0.00    +0.000 C 
BRANCH  34  35
ATOM     35  C   UNL     1       7.577   5.868  19.227  0.00  0.00    +0.000 C 
BRANCH  35  36
ATOM     36  O   UNL     1       8.060   5.335  20.448  0.00  0.00    +0.000 OA
ATOM     37  H   UNL     1       8.221   6.084  21.047  0.00  0.00    +0.000 HD
ENDBRANCH  35  36
ENDBRANCH  34  35
ENDBRANCH  33  34
ENDBRANCH  32  33
ENDBRANCH  31  32
ENDBRANCH   5  31
TORSDOF 11
ENDMDL
MODEL 9
REMARK VINA RESULT:      -7.0      2.597      3.636
REMARK  Name = 
REMARK  12 active torsions:
REMARK  status: ('A' for Active; 'I' for Inactive)
REMARK    1  A    between atoms: C_1  and  C_2
REMARK    2  A    between atoms: C_3  and  C_4
REMARK    3  A    between atoms: N_6  and  C_7
REMARK    4  A    between atoms: C_11  and  N_12
REMARK    5  A    between atoms: N_13  and  C_14
REMARK    6  A    between atoms: N_22  and  C_23
REMARK    7  A    between atoms: C_23  and  C_24
REMARK    8  A    between atoms: C_24  and  C_25
REMARK    9  A    between atoms: C_25  and  C_26
REMARK   10  A    between atoms: C_26  and  C_27
REMARK   11  A    between atoms: C_27  and  O_28
REMARK   12  A    between atoms: C_29  and  C_30
REMARK                            x       y       z     vdW  Elec       q    Type
REMARK                         _______ _______ _______ _____ _____    ______ ____
ROOT
ATOM      1  C   UNL     1       2.653   8.651  17.829  0.00  0.00    +0.000 C 
ATOM      2  C   UNL     1       2.244   7.768  18.961  0.00  0.00    +0.000 A 
ATOM      3  C   UNL     1       1.377   8.117  20.049  0.00  0.00    +0.000 A 
ATOM      4  N   UNL     1       1.276   7.098  20.911  0.00  0.00    +0.000 NA
ATOM      5  N   UNL     1       2.059   6.115  20.408  0.00  0.00    +0.000 N 
ATOM      6  C   UNL     1       2.650   6.445  19.194  0.00  0.00    +0.000 A 
ENDROOT
BRANCH   6   7
ATOM      7  C   UNL     1       3.489   5.552  18.354  0.00  0.00    +0.000 A 
ATOM      8  C   UNL     1       4.892   5.585  18.438  0.00  0.00    +0.000 A 
ATOM      9  C   UNL     1       5.703   4.799  17.608  0.00  0.00    +0.000 A 
ATOM     10  C   UNL     1       5.125   3.979  16.650  0.00  0.00    +0.000 A 
ATOM     11  C   UNL     1       3.740   3.895  16.573  0.00  0.00    +0.000 A 
ATOM     12  C   UNL     1       2.937   4.648  17.438  0.00  0.00    +0.000 A 
ENDBRANCH   6   7
BRANCH   3  13
ATOM     13  C   UNL     1       0.649   9.383  20.297  0.00  0.00    +0.000 C 
ATOM     14  O   UNL     1      -0.439   9.384  20.875  0.00  0.00    +0.000 OA
ATOM     15  N   UNL     1       1.280  10.521  19.792  0.00  0.00    +0.000 N 
ATOM     16  H   UNL     1       2.120  10.323  19.257  0.00  0.00    +0.000 HD
BRANCH  15  17
ATOM     17  C   UNL     1       0.806  11.858  19.874  0.00  0.00    +0.000 A 
ATOM     18  C   UNL     1       0.337  12.550  18.756  0.00  0.00    +0.000 A 
ATOM     19  C   UNL     1      -0.098  13.871  18.856  0.00  0.00    +0.000 A 
ATOM     20  C   UNL     1      -0.077  14.521  20.088  0.00  0.00    +0.000 A 
ATOM     21  C   UNL     1       0.366  13.854  21.236  0.00  0.00    +0.000 A 
ATOM     22  C   UNL     1       0.794  12.506  21.118  0.00  0.00    +0.000 A 
BRANCH  21  23
ATOM     23  N   UNL     1       0.287  14.544  22.467  0.00  0.00    +0.000 NA
ATOM     24  N   UNL     1      -0.783  15.177  22.591  0.00  0.00    +0.000 NA
BRANCH  24  25
ATOM     25  C   UNL     1      -0.851  15.868  23.825  0.00  0.00    +0.000 A 
ATOM     26  C   UNL     1      -1.363  15.188  24.938  0.00  0.00    +0.000 A 
ATOM     27  C   UNL     1      -1.413  15.797  26.195  0.00  0.00    +0.000 A 
ATOM     28  C   UNL     1      -0.943  17.098  26.360  0.00  0.00    +0.000 A 
ATOM     29  C   UNL     1      -0.425  17.790  25.267  0.00  0.00    +0.000 A 
ATOM     30  C   UNL     1      -0.377  17.176  24.009  0.00  0.00    +0.000 A 
ENDBRANCH  24  25
ENDBRANCH  21  23
ENDBRANCH  15  17
ENDBRANCH   3  13
BRANCH   5  31
ATOM     31  C   UNL     1       2.182   4.884  21.205  0.00  0.00    +0.000 C 
BRANCH  31  32
ATOM     32  C   UNL     1       1.223   3.786  20.734  0.00  0.00    +0.000 C 
BRANCH  32  33
ATOM     33  C   UNL     1       1.825   2.478  20.219  0.00  0.00    +0.000 C 
BRANCH  33  34
ATOM     34  C   UNL     1       3.346   2.574  20.445  0.00  0.00    +0.000 C 
BRANCH  34  35
ATOM     35  C   UNL     1       4.199   1.731  19.513  0.00  0.00    +0.000 C 
BRANCH  35  36
ATOM     36  O   UNL     1       3.399   1.119  18.516  0.00  0.00    +0.000 OA
ATOM     37  H   UNL     1       3.998   0.798  17.820  0.00  0.00    +0.000 HD
ENDBRANCH  35  36
ENDBRANCH  34  35
ENDBRANCH  33  34
ENDBRANCH  32  33
ENDBRANCH  31  32
ENDBRANCH   5  31
TORSDOF 11
ENDMDL
