MODEL 1
REMARK VINA RESULT:      -6.4      0.000      0.000
REMARK  Name = 
REMARK  6 active torsions:
REMARK  status: ('A' for Active; 'I' for Inactive)
REMARK    1  A    between atoms: C_1  and  O_2
REMARK    2  A    between atoms: O_2  and  C_3
REMARK    3  A    between atoms: C_3  and  C_5
REMARK    4  A    between atoms: C_5  and  C_7
REMARK    5  A    between atoms: C_7  and  C_8
REMARK    6  A    between atoms: C_7  and  C_10
REMARK                            x       y       z     vdW  Elec       q    Type
REMARK                         _______ _______ _______ _____ _____    ______ ____
ROOT
ATOM      1  C   UNL     1       6.039   5.639  15.935  0.00  0.00    +0.000 C 
ENDROOT
BRANCH   1   2
ATOM      2  C   UNL     1       4.768   5.475  16.760  0.00  0.00    +0.000 A 
ATOM      3  C   UNL     1       4.181   4.208  16.947  0.00  0.00    +0.000 A 
ATOM      4  C   UNL     1       3.019   4.062  17.709  0.00  0.00    +0.000 A 
ATOM      5  C   UNL     1       2.427   5.177  18.297  0.00  0.00    +0.000 A 
ATOM      6  C   UNL     1       2.999   6.435  18.121  0.00  0.00    +0.000 A 
ATOM      7 CL   UNL     1       2.267   7.811  18.849  0.00  0.00    +0.000 Cl
ATOM      8  C   UNL     1       4.161   6.590  17.360  0.00  0.00    +0.000 A 
ENDBRANCH   1   2
BRANCH   1   9
ATOM      9  C   UNL     1       7.270   5.418  16.793  0.00  0.00    +0.000 C 
ATOM     10  O   UNL     1       7.923   4.379  16.822  0.00  0.00    +0.000 OA
BRANCH   9  11
ATOM     11  C   UNL     1       7.636   6.579  17.712  0.00  0.00    +0.000 C 
ATOM     12  O   UNL     1       7.797   6.426  18.909  0.00  0.00    +0.000 OA
BRANCH  11  14
ATOM     13  C   UNL     1       7.869   8.905  17.798  0.00  0.00    +0.000 C 
ATOM     14  O   UNL     1       7.733   7.724  17.009  0.00  0.00    +0.000 OA
ENDBRANCH  11  14
ENDBRANCH   9  11
ENDBRANCH   1   9
BRANCH   1  15
ATOM     15  C   UNL     1       6.076   4.634  14.795  0.00  0.00    +0.000 C 
ATOM     16  N   UNL     1       6.105   3.800  13.850  0.00  0.00    +0.000 NA
ENDBRANCH   1  15
TORSDOF 5
ENDMDL
MODEL 2
REMARK VINA RESULT:      -6.3      2.494      3.451
REMARK  Name = 
REMARK  6 active torsions:
REMARK  status: ('A' for Active; 'I' for Inactive)
REMARK    1  A    between atoms: C_1  and  O_2
REMARK    2  A    between atoms: O_2  and  C_3
REMARK    3  A    between atoms: C_3  and  C_5
REMARK    4  A    between atoms: C_5  and  C_7
REMARK    5  A    between atoms: C_7  and  C_8
REMARK    6  A    between atoms: C_7  and  C_10
REMARK                            x       y       z     vdW  Elec       q    Type
REMARK                         _______ _______ _______ _____ _____    ______ ____
ROOT
ATOM      1  C   UNL     1       5.880   4.677  17.566  0.00  0.00    +0.000 C 
ENDROOT
BRANCH   1   2
ATOM      2  C   UNL     1       4.398   4.524  17.886  0.00  0.00    +0.000 A 
ATOM      3  C   UNL     1       3.571   3.677  17.121  0.00  0.00    +0.000 A 
ATOM      4  C   UNL     1       2.215   3.536  17.423  0.00  0.00    +0.000 A 
ATOM      5  C   UNL     1       1.663   4.234  18.493  0.00  0.00    +0.000 A 
ATOM      6  C   UNL     1       2.470   5.072  19.259  0.00  0.00    +0.000 A 
ATOM      7 CL   UNL     1       1.787   5.933  20.583  0.00  0.00    +0.000 Cl
ATOM      8  C   UNL     1       3.828   5.220  18.964  0.00  0.00    +0.000 A 
ENDBRANCH   1   2
BRANCH   1   9
ATOM      9  C   UNL     1       6.092   5.709  16.476  0.00  0.00    +0.000 C 
ATOM     10  O   UNL     1       5.811   6.899  16.578  0.00  0.00    +0.000 OA
BRANCH   9  11
ATOM     11  C   UNL     1       6.635   5.161  15.160  0.00  0.00    +0.000 C 
ATOM     12  O   UNL     1       7.783   5.354  14.807  0.00  0.00    +0.000 OA
BRANCH  11  14
ATOM     13  C   UNL     1       6.131   3.739  13.371  0.00  0.00    +0.000 C 
ATOM     14  O   UNL     1       5.676   4.480  14.503  0.00  0.00    +0.000 OA
ENDBRANCH  11  14
ENDBRANCH   9  11
ENDBRANCH   1   9
BRANCH   1  15
ATOM     15  C   UNL     1       6.654   5.127  18.794  0.00  0.00    +0.000 C 
ATOM     16  N   UNL     1       7.296   5.501  19.812  0.00  0.00    +0.000 NA
ENDBRANCH   1  15
TORSDOF 5
ENDMDL
MODEL 3
REMARK VINA RESULT:      -6.2      0.642      1.275
REMARK  Name = 
REMARK  6 active torsions:
REMARK  status: ('A' for Active; 'I' for Inactive)
REMARK    1  A    between atoms: C_1  and  O_2
REMARK    2  A    between atoms: O_2  and  C_3
REMARK    3  A    between atoms: C_3  and  C_5
REMARK    4  A    between atoms: C_5  and  C_7
REMARK    5  A    between atoms: C_7  and  C_8
REMARK    6  A    between atoms: C_7  and  C_10
REMARK                            x       y       z     vdW  Elec       q    Type
REMARK                         _______ _______ _______ _____ _____    ______ ____
ROOT
ATOM      1  C   UNL     1       5.815   5.641  15.774  0.00  0.00    +0.000 C 
ENDROOT
BRANCH   1   2
ATOM      2  C   UNL     1       4.624   5.382  16.688  0.00  0.00    +0.000 A 
ATOM      3  C   UNL     1       4.085   4.088  16.832  0.00  0.00    +0.000 A 
ATOM      4  C   UNL     1       2.996   3.855  17.675  0.00  0.00    +0.000 A 
ATOM      5  C   UNL     1       2.431   4.907  18.390  0.00  0.00    +0.000 A 
ATOM      6  C   UNL     1       2.955   6.191  18.257  0.00  0.00    +0.000 A 
ATOM      7 CL   UNL     1       2.256   7.490  19.142  0.00  0.00    +0.000 Cl
ATOM      8  C   UNL     1       4.044   6.433  17.416  0.00  0.00    +0.000 A 
ENDBRANCH   1   2
BRANCH   1   9
ATOM      9  C   UNL     1       7.119   5.505  16.536  0.00  0.00    +0.000 C 
ATOM     10  O   UNL     1       7.836   4.509  16.520  0.00  0.00    +0.000 OA
BRANCH   9  11
ATOM     11  C   UNL     1       7.480   6.694  17.421  0.00  0.00    +0.000 C 
ATOM     12  O   UNL     1       7.337   7.842  17.044  0.00  0.00    +0.000 OA
BRANCH  11  14
ATOM     13  C   UNL     1       7.023   5.562  19.416  0.00  0.00    +0.000 C 
ATOM     14  O   UNL     1       7.959   6.271  18.606  0.00  0.00    +0.000 OA
ENDBRANCH  11  14
ENDBRANCH   9  11
ENDBRANCH   1   9
BRANCH   1  15
ATOM     15  C   UNL     1       5.839   4.646  14.624  0.00  0.00    +0.000 C 
ATOM     16  N   UNL     1       5.858   3.822  13.671  0.00  0.00    +0.000 NA
ENDBRANCH   1  15
TORSDOF 5
ENDMDL
MODEL 4
REMARK VINA RESULT:      -6.2      1.820      2.417
REMARK  Name = 
REMARK  6 active torsions:
REMARK  status: ('A' for Active; 'I' for Inactive)
REMARK    1  A    between atoms: C_1  and  O_2
REMARK    2  A    between atoms: O_2  and  C_3
REMARK    3  A    between atoms: C_3  and  C_5
REMARK    4  A    between atoms: C_5  and  C_7
REMARK    5  A    between atoms: C_7  and  C_8
REMARK    6  A    between atoms: C_7  and  C_10
REMARK                            x       y       z     vdW  Elec       q    Type
REMARK                         _______ _______ _______ _____ _____    ______ ____
ROOT
ATOM      1  C   UNL     1       5.643   5.448  15.796  0.00  0.00    +0.000 C 
ENDROOT
BRANCH   1   2
ATOM      2  C   UNL     1       4.569   4.965  16.763  0.00  0.00    +0.000 A 
ATOM      3  C   UNL     1       3.668   5.868  17.360  0.00  0.00    +0.000 A 
ATOM      4  C   UNL     1       2.682   5.419  18.241  0.00  0.00    +0.000 A 
ATOM      5  C   UNL     1       2.577   4.063  18.537  0.00  0.00    +0.000 A 
ATOM      6  C   UNL     1       3.461   3.159  17.952  0.00  0.00    +0.000 A 
ATOM      7 CL   UNL     1       3.330   1.483  18.318  0.00  0.00    +0.000 Cl
ATOM      8  C   UNL     1       4.451   3.599  17.069  0.00  0.00    +0.000 A 
ENDBRANCH   1   2
BRANCH   1   9
ATOM      9  C   UNL     1       7.007   5.443  16.458  0.00  0.00    +0.000 C 
ATOM     10  O   UNL     1       7.841   4.552  16.331  0.00  0.00    +0.000 OA
BRANCH   9  11
ATOM     11  C   UNL     1       7.280   6.622  17.387  0.00  0.00    +0.000 C 
ATOM     12  O   UNL     1       7.762   7.663  16.982  0.00  0.00    +0.000 OA
BRANCH  11  14
ATOM     13  C   UNL     1       7.944   5.693  19.430  0.00  0.00    +0.000 C 
ATOM     14  O   UNL     1       6.924   6.317  18.650  0.00  0.00    +0.000 OA
ENDBRANCH  11  14
ENDBRANCH   9  11
ENDBRANCH   1   9
BRANCH   1  15
ATOM     15  C   UNL     1       5.713   4.547  14.573  0.00  0.00    +0.000 C 
ATOM     16  N   UNL     1       5.770   3.800  13.560  0.00  0.00    +0.000 NA
ENDBRANCH   1  15
TORSDOF 5
ENDMDL
MODEL 5
REMARK VINA RESULT:      -6.1      1.652      2.039
REMARK  Name = 
REMARK  6 active torsions:
REMARK  status: ('A' for Active; 'I' for Inactive)
REMARK    1  A    between atoms: C_1  and  O_2
REMARK    2  A    between atoms: O_2  and  C_3
REMARK    3  A    between atoms: C_3  and  C_5
REMARK    4  A    between atoms: C_5  and  C_7
REMARK    5  A    between atoms: C_7  and  C_8
REMARK    6  A    between atoms: C_7  and  C_10
REMARK                            x       y       z     vdW  Elec       q    Type
REMARK                         _______ _______ _______ _____ _____    ______ ____
ROOT
ATOM      1  C   UNL     1       6.054   5.441  16.214  0.00  0.00    +0.000 C 
ENDROOT
BRANCH   1   2
ATOM      2  C   UNL     1       4.741   5.109  16.912  0.00  0.00    +0.000 A 
ATOM      3  C   UNL     1       3.890   6.127  17.385  0.00  0.00    +0.000 A 
ATOM      4  C   UNL     1       2.685   5.818  18.019  0.00  0.00    +0.000 A 
ATOM      5  C   UNL     1       2.308   4.489  18.188  0.00  0.00    +0.000 A 
ATOM      6  C   UNL     1       3.140   3.472  17.724  0.00  0.00    +0.000 A 
ATOM      7 CL   UNL     1       2.673   1.829  17.934  0.00  0.00    +0.000 Cl
ATOM      8  C   UNL     1       4.347   3.773  17.089  0.00  0.00    +0.000 A 
ENDBRANCH   1   2
BRANCH   1   9
ATOM      9  C   UNL     1       7.236   5.112  17.104  0.00  0.00    +0.000 C 
ATOM     10  O   UNL     1       8.020   4.188  16.911  0.00  0.00    +0.000 OA
BRANCH   9  11
ATOM     11  C   UNL     1       7.373   5.985  18.348  0.00  0.00    +0.000 C 
ATOM     12  O   UNL     1       7.758   5.534  19.411  0.00  0.00    +0.000 OA
BRANCH  11  14
ATOM     13  C   UNL     1       8.089   8.152  17.833  0.00  0.00    +0.000 C 
ATOM     14  O   UNL     1       7.008   7.253  18.077  0.00  0.00    +0.000 OA
ENDBRANCH  11  14
ENDBRANCH   9  11
ENDBRANCH   1   9
BRANCH   1  15
ATOM     15  C   UNL     1       6.199   4.641  14.929  0.00  0.00    +0.000 C 
ATOM     16  N   UNL     1       6.320   3.977  13.865  0.00  0.00    +0.000 NA
ENDBRANCH   1  15
TORSDOF 5
ENDMDL
MODEL 6
REMARK VINA RESULT:      -6.1      3.139      4.098
REMARK  Name = 
REMARK  6 active torsions:
REMARK  status: ('A' for Active; 'I' for Inactive)
REMARK    1  A    between atoms: C_1  and  O_2
REMARK    2  A    between atoms: O_2  and  C_3
REMARK    3  A    between atoms: C_3  and  C_5
REMARK    4  A    between atoms: C_5  and  C_7
REMARK    5  A    between atoms: C_7  and  C_8
REMARK    6  A    between atoms: C_7  and  C_10
REMARK                            x       y       z     vdW  Elec       q    Type
REMARK                         _______ _______ _______ _____ _____    ______ ____
ROOT
ATOM      1  C   UNL     1       3.389   6.460  18.837  0.00  0.00    +0.000 C 
ENDROOT
BRANCH   1   2
ATOM      2  C   UNL     1       2.556   5.190  18.961  0.00  0.00    +0.000 A 
ATOM      3  C   UNL     1       1.953   4.603  17.832  0.00  0.00    +0.000 A 
ATOM      4  C   UNL     1       1.195   3.435  17.950  0.00  0.00    +0.000 A 
ATOM      5  C   UNL     1       1.031   2.834  19.195  0.00  0.00    +0.000 A 
ATOM      6  C   UNL     1       1.624   3.404  20.319  0.00  0.00    +0.000 A 
ATOM      7 CL   UNL     1       1.420   2.660  21.857  0.00  0.00    +0.000 Cl
ATOM      8  C   UNL     1       2.383   4.572  20.210  0.00  0.00    +0.000 A 
ENDBRANCH   1   2
BRANCH   1   9
ATOM      9  C   UNL     1       4.592   6.231  17.944  0.00  0.00    +0.000 C 
ATOM     10  O   UNL     1       4.726   6.701  16.818  0.00  0.00    +0.000 OA
BRANCH   9  11
ATOM     11  C   UNL     1       5.650   5.287  18.510  0.00  0.00    +0.000 C 
ATOM     12  O   UNL     1       6.003   5.341  19.673  0.00  0.00    +0.000 OA
BRANCH  11  14
ATOM     13  C   UNL     1       7.493   4.531  17.284  0.00  0.00    +0.000 C 
ATOM     14  O   UNL     1       6.094   4.450  17.553  0.00  0.00    +0.000 OA
ENDBRANCH  11  14
ENDBRANCH   9  11
ENDBRANCH   1   9
BRANCH   1  15
ATOM     15  C   UNL     1       2.567   7.588  18.234  0.00  0.00    +0.000 C 
ATOM     16  N   UNL     1       1.885   8.522  17.734  0.00  0.00    +0.000 NA
ENDBRANCH   1  15
TORSDOF 5
ENDMDL
MODEL 7
REMARK VINA RESULT:      -6.1      2.436      3.470
REMARK  Name = 
REMARK  6 active torsions:
REMARK  status: ('A' for Active; 'I' for Inactive)
REMARK    1  A    between atoms: C_1  and  O_2
REMARK    2  A    between atoms: O_2  and  C_3
REMARK    3  A    between atoms: C_3  and  C_5
REMARK    4  A    between atoms: C_5  and  C_7
REMARK    5  A    between atoms: C_7  and  C_8
REMARK    6  A    between atoms: C_7  and  C_10
REMARK                            x       y       z     vdW  Elec       q    Type
REMARK                         _______ _______ _______ _____ _____    ______ ____
ROOT
ATOM      1  C   UNL     1       6.970   5.786  18.338  0.00  0.00    +0.000 C 
ENDROOT
BRANCH   1   2
ATOM      2  C   UNL     1       5.462   5.577  18.399  0.00  0.00    +0.000 A 
ATOM      3  C   UNL     1       4.576   6.478  17.776  0.00  0.00    +0.000 A 
ATOM      4  C   UNL     1       3.195   6.278  17.829  0.00  0.00    +0.000 A 
ATOM      5  C   UNL     1       2.676   5.175  18.502  0.00  0.00    +0.000 A 
ATOM      6  C   UNL     1       3.541   4.276  19.121  0.00  0.00    +0.000 A 
ATOM      7 CL   UNL     1       2.899   2.913  19.952  0.00  0.00    +0.000 Cl
ATOM      8  C   UNL     1       4.924   4.468  19.073  0.00  0.00    +0.000 A 
ENDBRANCH   1   2
BRANCH   1   9
ATOM      9  C   UNL     1       7.623   4.746  17.449  0.00  0.00    +0.000 C 
ATOM     10  O   UNL     1       8.490   3.960  17.816  0.00  0.00    +0.000 OA
BRANCH   9  11
ATOM     11  C   UNL     1       7.178   4.770  15.989  0.00  0.00    +0.000 C 
ATOM     12  O   UNL     1       7.697   5.506  15.171  0.00  0.00    +0.000 OA
BRANCH  11  14
ATOM     13  C   UNL     1       5.371   4.154  14.638  0.00  0.00    +0.000 C 
ATOM     14  O   UNL     1       6.173   3.896  15.789  0.00  0.00    +0.000 OA
ENDBRANCH  11  14
ENDBRANCH   9  11
ENDBRANCH   1   9
BRANCH   1  15
ATOM     15  C   UNL     1       7.301   7.159  17.774  0.00  0.00    +0.000 C 
ATOM     16  N   UNL     1       7.576   8.296  17.306  0.00  0.00    +0.000 NA
ENDBRANCH   1  15
TORSDOF 5
ENDMDL
MODEL 8
REMARK VINA RESULT:      -6.1      2.396      3.207
REMARK  Name = 
REMARK  6 active torsions:
REMARK  status: ('A' for Active; 'I' for Inactive)
REMARK    1  A    between atoms: C_1  and  O_2
REMARK    2  A    between atoms: O_2  and  C_3
REMARK    3  A    between atoms: C_3  and  C_5
REMARK    4  A    between atoms: C_5  and  C_7
REMARK    5  A    between atoms: C_7  and  C_8
REMARK    6  A    between atoms: C_7  and  C_10
REMARK                            x       y       z     vdW  Elec       q    Type
REMARK                         _______ _______ _______ _____ _____    ______ ____
ROOT
ATOM      1  C   UNL     1       5.925   4.473  16.956  0.00  0.00    +0.000 C 
ENDROOT
BRANCH   1   2
ATOM      2  C   UNL     1       4.488   4.540  17.457  0.00  0.00    +0.000 A 
ATOM      3  C   UNL     1       3.534   3.582  17.061  0.00  0.00    +0.000 A 
ATOM      4  C   UNL     1       2.219   3.644  17.528  0.00  0.00    +0.000 A 
ATOM      5  C   UNL     1       1.836   4.660  18.399  0.00  0.00    +0.000 A 
ATOM      6  C   UNL     1       2.770   5.612  18.800  0.00  0.00    +0.000 A 
ATOM      7 CL   UNL     1       2.296   6.867  19.877  0.00  0.00    +0.000 Cl
ATOM      8  C   UNL     1       4.088   5.558  18.337  0.00  0.00    +0.000 A 
ENDBRANCH   1   2
BRANCH   1   9
ATOM      9  C   UNL     1       6.130   5.408  15.780  0.00  0.00    +0.000 C 
ATOM     10  O   UNL     1       5.785   6.585  15.755  0.00  0.00    +0.000 OA
BRANCH   9  11
ATOM     11  C   UNL     1       6.755   4.767  14.544  0.00  0.00    +0.000 C 
ATOM     12  O   UNL     1       6.323   3.735  14.066  0.00  0.00    +0.000 OA
BRANCH  11  14
ATOM     13  C   UNL     1       8.063   5.414  12.715  0.00  0.00    +0.000 C 
ATOM     14  O   UNL     1       7.805   5.495  14.116  0.00  0.00    +0.000 OA
ENDBRANCH  11  14
ENDBRANCH   9  11
ENDBRANCH   1   9
BRANCH   1  15
ATOM     15  C   UNL     1       6.898   4.879  18.052  0.00  0.00    +0.000 C 
ATOM     16  N   UNL     1       7.703   5.217  18.961  0.00  0.00    +0.000 NA
ENDBRANCH   1  15
TORSDOF 5
ENDMDL
MODEL 9
REMARK VINA RESULT:      -6.0      2.989      3.943
REMARK  Name = 
REMARK  6 active torsions:
REMARK  status: ('A' for Active; 'I' for Inactive)
REMARK    1  A    between atoms: C_1  and  O_2
REMARK    2  A    between atoms: O_2  and  C_3
REMARK    3  A    between atoms: C_3  and  C_5
REMARK    4  A    between atoms: C_5  and  C_7
REMARK    5  A    between atoms: C_7  and  C_8
REMARK    6  A    between atoms: C_7  and  C_10
REMARK                            x       y       z     vdW  Elec       q    Type
REMARK                         _______ _______ _______ _____ _____    ______ ____
ROOT
ATOM      1  C   UNL     1       4.957   4.754  17.819  0.00  0.00    +0.000 C 
ENDROOT
BRANCH   1   2
ATOM      2  C   UNL     1       3.632   4.257  18.385  0.00  0.00    +0.000 A 
ATOM      3  C   UNL     1       2.527   4.014  17.545  0.00  0.00    +0.000 A 
ATOM      4  C   UNL     1       1.317   3.552  18.068  0.00  0.00    +0.000 A 
ATOM      5  C   UNL     1       1.191   3.323  19.435  0.00  0.00    +0.000 A 
ATOM      6  C   UNL     1       2.277   3.558  20.276  0.00  0.00    +0.000 A 
ATOM      7 CL   UNL     1       2.120   3.274  21.966  0.00  0.00    +0.000 Cl
ATOM      8  C   UNL     1       3.491   4.020  19.762  0.00  0.00    +0.000 A 
ENDBRANCH   1   2
BRANCH   1   9
ATOM      9  C   UNL     1       4.765   6.051  17.058  0.00  0.00    +0.000 C 
ATOM     10  O   UNL     1       4.127   7.014  17.470  0.00  0.00    +0.000 OA
BRANCH   9  11
ATOM     11  C   UNL     1       5.376   6.078  15.660  0.00  0.00    +0.000 C 
ATOM     12  O   UNL     1       5.177   6.998  14.890  0.00  0.00    +0.000 OA
BRANCH  11  14
ATOM     13  C   UNL     1       5.774   4.235  14.276  0.00  0.00    +0.000 C 
ATOM     14  O   UNL     1       6.116   4.973  15.448  0.00  0.00    +0.000 OA
ENDBRANCH  11  14
ENDBRANCH   9  11
ENDBRANCH   1   9
BRANCH   1  15
ATOM     15  C   UNL     1       5.958   5.009  18.935  0.00  0.00    +0.000 C 
ATOM     16  N   UNL     1       6.788   5.220  19.859  0.00  0.00    +0.000 NA
ENDBRANCH   1  15
TORSDOF 5
ENDMDL
