MODEL 1
REMARK VINA RESULT:      -6.2      0.000      0.000
REMARK  Name = 
REMARK  9 active torsions:
REMARK  status: ('A' for Active; 'I' for Inactive)
REMARK    1  A    between atoms: C_1  and  O_2
REMARK    2  A    between atoms: O_2  and  C_3
REMARK    3  A    between atoms: C_5  and  C_6
REMARK    4  A    between atoms: C_9  and  O_10
REMARK    5  A    between atoms: C_11  and  O_12
REMARK    6  A    between atoms: C_15  and  O_16
REMARK    7  A    between atoms: C_24  and  O_25
REMARK    8  A    between atoms: O_25  and  C_26
REMARK    9  A    between atoms: C_27  and  O_28
REMARK                            x       y       z     vdW  Elec       q    Type
REMARK                         _______ _______ _______ _____ _____    ______ ____
ROOT
ATOM      1  C   UNL     1      -0.418  12.714  21.498  0.00  0.00    +0.000 C 
ATOM      2  C   UNL     1      -0.324  13.336  20.076  0.00  0.00    +0.000 A 
ATOM      3  C   UNL     1      -0.910  14.572  19.777  0.00  0.00    +0.000 A 
ATOM      4  C   UNL     1      -0.151  15.490  19.059  0.00  0.00    +0.000 A 
ATOM      5  C   UNL     1       1.152  15.186  18.677  0.00  0.00    +0.000 A 
ATOM      6  C   UNL     1       1.610  13.881  18.722  0.00  0.00    +0.000 A 
ATOM      7  C   UNL     1       0.807  12.911  19.323  0.00  0.00    +0.000 A 
ATOM      8  C   UNL     1       1.196  11.440  19.300  0.00  0.00    +0.000 C 
ATOM      9  C   UNL     1       0.246  10.672  20.204  0.00  0.00    +0.000 C 
ATOM     10  C   UNL     1       0.605   9.248  20.527  0.00  0.00    +0.000 C 
ATOM     11  O   UNL     1      -0.078   9.014  21.771  0.00  0.00    +0.000 OA
ATOM     12  C   UNL     1      -0.301  10.200  22.414  0.00  0.00    +0.000 C 
ATOM     13  O   UNL     1      -0.741  10.293  23.552  0.00  0.00    +0.000 OA
ATOM     14  C   UNL     1       0.241  11.328  21.572  0.00  0.00    +0.000 C 
ENDROOT
BRANCH   1  17
ATOM     15  C   UNL     1      -2.738  14.112  24.221  0.00  0.00    +0.000 A 
ATOM     16  C   UNL     1      -1.556  13.737  23.558  0.00  0.00    +0.000 A 
ATOM     17  C   UNL     1      -1.603  12.950  22.404  0.00  0.00    +0.000 A 
ATOM     18  C   UNL     1      -2.866  12.490  21.970  0.00  0.00    +0.000 A 
ATOM     19  C   UNL     1      -4.051  12.854  22.608  0.00  0.00    +0.000 A 
ATOM     20  C   UNL     1      -3.984  13.671  23.741  0.00  0.00    +0.000 A 
BRANCH  15  22
ATOM     21  C   UNL     1      -1.256  15.561  25.425  0.00  0.00    +0.000 C 
ATOM     22  O   UNL     1      -2.501  14.880  25.339  0.00  0.00    +0.000 OA
ENDBRANCH  15  22
BRANCH  19  23
ATOM     23  O   UNL     1      -5.182  12.277  22.092  0.00  0.00    +0.000 OA
ATOM     24  C   UNL     1      -5.655  12.792  20.847  0.00  0.00    +0.000 C 
ENDBRANCH  19  23
BRANCH  20  25
ATOM     25  O   UNL     1      -5.134  13.972  24.419  0.00  0.00    +0.000 OA
ATOM     26  H   UNL     1      -5.702  14.430  23.769  0.00  0.00    +0.000 HD
ENDBRANCH  20  25
ENDBRANCH   1  17
BRANCH   4  27
ATOM     27  O   UNL     1      -0.619  16.742  18.783  0.00  0.00    +0.000 OA
ATOM     28  H   UNL     1      -0.135  17.353  19.370  0.00  0.00    +0.000 HD
ENDBRANCH   4  27
BRANCH   5  29
ATOM     29  O   UNL     1       1.998  16.182  18.285  0.00  0.00    +0.000 OA
ATOM     30  H   UNL     1       2.052  16.776  19.061  0.00  0.00    +0.000 HD
ENDBRANCH   5  29
BRANCH   8  31
ATOM     31  O   UNL     1       1.068  10.908  17.987  0.00  0.00    +0.000 OA
ATOM     32  H   UNL     1       1.030  11.655  17.360  0.00  0.00    +0.000 HD
ENDBRANCH   8  31
TORSDOF 7
ENDMDL
MODEL 2
REMARK VINA RESULT:      -6.1      1.789      6.728
REMARK  Name = 
REMARK  9 active torsions:
REMARK  status: ('A' for Active; 'I' for Inactive)
REMARK    1  A    between atoms: C_1  and  O_2
REMARK    2  A    between atoms: O_2  and  C_3
REMARK    3  A    between atoms: C_5  and  C_6
REMARK    4  A    between atoms: C_9  and  O_10
REMARK    5  A    between atoms: C_11  and  O_12
REMARK    6  A    between atoms: C_15  and  O_16
REMARK    7  A    between atoms: C_24  and  O_25
REMARK    8  A    between atoms: O_25  and  C_26
REMARK    9  A    between atoms: C_27  and  O_28
REMARK                            x       y       z     vdW  Elec       q    Type
REMARK                         _______ _______ _______ _____ _____    ______ ____
ROOT
ATOM      1  C   UNL     1      -2.959  12.401  21.251  0.00  0.00    +0.000 C 
ATOM      2  C   UNL     1      -4.333  12.691  20.584  0.00  0.00    +0.000 A 
ATOM      3  C   UNL     1      -4.569  12.402  19.235  0.00  0.00    +0.000 A 
ATOM      4  C   UNL     1      -5.757  11.758  18.910  0.00  0.00    +0.000 A 
ATOM      5  C   UNL     1      -6.661  11.398  19.904  0.00  0.00    +0.000 A 
ATOM      6  C   UNL     1      -6.559  11.936  21.176  0.00  0.00    +0.000 A 
ATOM      7  C   UNL     1      -5.433  12.700  21.489  0.00  0.00    +0.000 A 
ATOM      8  C   UNL     1      -5.314  13.417  22.824  0.00  0.00    +0.000 C 
ATOM      9  C   UNL     1      -3.908  13.980  22.950  0.00  0.00    +0.000 C 
ATOM     10  C   UNL     1      -3.496  14.506  24.298  0.00  0.00    +0.000 C 
ATOM     11  O   UNL     1      -2.062  14.402  24.263  0.00  0.00    +0.000 OA
ATOM     12  C   UNL     1      -1.683  13.447  23.360  0.00  0.00    +0.000 C 
ATOM     13  O   UNL     1      -0.533  13.052  23.221  0.00  0.00    +0.000 OA
ATOM     14  C   UNL     1      -2.913  12.860  22.717  0.00  0.00    +0.000 C 
ENDROOT
BRANCH   1  17
ATOM     15  C   UNL     1       0.169  11.439  19.239  0.00  0.00    +0.000 A 
ATOM     16  C   UNL     1      -0.893  11.342  20.157  0.00  0.00    +0.000 A 
ATOM     17  C   UNL     1      -1.660  12.464  20.482  0.00  0.00    +0.000 A 
ATOM     18  C   UNL     1      -1.291  13.703  19.914  0.00  0.00    +0.000 A 
ATOM     19  C   UNL     1      -0.245  13.821  18.998  0.00  0.00    +0.000 A 
ATOM     20  C   UNL     1       0.487  12.680  18.660  0.00  0.00    +0.000 A 
BRANCH  15  22
ATOM     21  C   UNL     1       0.915   9.352  20.152  0.00  0.00    +0.000 C 
ATOM     22  O   UNL     1       0.816  10.239  19.045  0.00  0.00    +0.000 OA
ENDBRANCH  15  22
BRANCH  19  23
ATOM     23  O   UNL     1       0.016  15.102  18.586  0.00  0.00    +0.000 OA
ATOM     24  C   UNL     1       0.839  15.896  19.441  0.00  0.00    +0.000 C 
ENDBRANCH  19  23
BRANCH  20  25
ATOM     25  O   UNL     1       1.562  12.798  17.822  0.00  0.00    +0.000 OA
ATOM     26  H   UNL     1       2.326  12.970  18.407  0.00  0.00    +0.000 HD
ENDBRANCH  20  25
ENDBRANCH   1  17
BRANCH   4  27
ATOM     27  O   UNL     1      -6.036  11.379  17.629  0.00  0.00    +0.000 OA
ATOM     28  H   UNL     1      -5.187  11.379  17.150  0.00  0.00    +0.000 HD
ENDBRANCH   4  27
BRANCH   5  29
ATOM     29  O   UNL     1      -7.640  10.485  19.638  0.00  0.00    +0.000 OA
ATOM     30  H   UNL     1      -8.378  10.739  20.230  0.00  0.00    +0.000 HD
ENDBRANCH   5  29
BRANCH   8  31
ATOM     31  O   UNL     1      -6.225  14.508  22.890  0.00  0.00    +0.000 OA
ATOM     32  H   UNL     1      -6.853  14.423  22.149  0.00  0.00    +0.000 HD
ENDBRANCH   8  31
TORSDOF 7
ENDMDL
MODEL 3
REMARK VINA RESULT:      -6.0      0.308      2.478
REMARK  Name = 
REMARK  9 active torsions:
REMARK  status: ('A' for Active; 'I' for Inactive)
REMARK    1  A    between atoms: C_1  and  O_2
REMARK    2  A    between atoms: O_2  and  C_3
REMARK    3  A    between atoms: C_5  and  C_6
REMARK    4  A    between atoms: C_9  and  O_10
REMARK    5  A    between atoms: C_11  and  O_12
REMARK    6  A    between atoms: C_15  and  O_16
REMARK    7  A    between atoms: C_24  and  O_25
REMARK    8  A    between atoms: O_25  and  C_26
REMARK    9  A    between atoms: C_27  and  O_28
REMARK                            x       y       z     vdW  Elec       q    Type
REMARK                         _______ _______ _______ _____ _____    ______ ____
ROOT
ATOM      1  C   UNL     1      -0.531  12.971  21.334  0.00  0.00    +0.000 C 
ATOM      2  C   UNL     1      -0.264  13.535  19.910  0.00  0.00    +0.000 A 
ATOM      3  C   UNL     1      -0.805  14.757  19.493  0.00  0.00    +0.000 A 
ATOM      4  C   UNL     1       0.038  15.646  18.835  0.00  0.00    +0.000 A 
ATOM      5  C   UNL     1       1.377  15.329  18.628  0.00  0.00    +0.000 A 
ATOM      6  C   UNL     1       1.823  14.027  18.780  0.00  0.00    +0.000 A 
ATOM      7  C   UNL     1       0.949  13.081  19.319  0.00  0.00    +0.000 A 
ATOM      8  C   UNL     1       1.333  11.612  19.402  0.00  0.00    +0.000 C 
ATOM      9  C   UNL     1       0.278  10.879  20.215  0.00  0.00    +0.000 C 
ATOM     10  C   UNL     1       0.590   9.470  20.637  0.00  0.00    +0.000 C 
ATOM     11  O   UNL     1      -0.240   9.286  21.796  0.00  0.00    +0.000 OA
ATOM     12  C   UNL     1      -0.535  10.497  22.358  0.00  0.00    +0.000 C 
ATOM     13  O   UNL     1      -1.110  10.635  23.430  0.00  0.00    +0.000 OA
ATOM     14  C   UNL     1       0.109  11.590  21.544  0.00  0.00    +0.000 C 
ENDROOT
BRANCH   1  17
ATOM     15  C   UNL     1      -4.162  12.802  22.578  0.00  0.00    +0.000 A 
ATOM     16  C   UNL     1      -3.057  12.711  21.714  0.00  0.00    +0.000 A 
ATOM     17  C   UNL     1      -1.817  13.242  22.080  0.00  0.00    +0.000 A 
ATOM     18  C   UNL     1      -1.732  13.930  23.310  0.00  0.00    +0.000 A 
ATOM     19  C   UNL     1      -2.813  14.029  24.186  0.00  0.00    +0.000 A 
ATOM     20  C   UNL     1      -4.035  13.460  23.815  0.00  0.00    +0.000 A 
BRANCH  15  22
ATOM     21  C   UNL     1      -5.644  12.555  20.711  0.00  0.00    +0.000 C 
ATOM     22  O   UNL     1      -5.299  12.231  22.051  0.00  0.00    +0.000 OA
ENDBRANCH  15  22
BRANCH  19  23
ATOM     23  O   UNL     1      -2.576  14.776  25.310  0.00  0.00    +0.000 OA
ATOM     24  C   UNL     1      -1.316  15.442  25.384  0.00  0.00    +0.000 C 
ENDBRANCH  19  23
BRANCH  20  25
ATOM     25  O   UNL     1      -5.122  13.616  24.631  0.00  0.00    +0.000 OA
ATOM     26  H   UNL     1      -5.872  13.236  24.134  0.00  0.00    +0.000 HD
ENDBRANCH  20  25
ENDBRANCH   1  17
BRANCH   4  27
ATOM     27  O   UNL     1      -0.388  16.886  18.454  0.00  0.00    +0.000 OA
ATOM     28  H   UNL     1      -0.987  17.199  19.157  0.00  0.00    +0.000 HD
ENDBRANCH   4  27
BRANCH   5  29
ATOM     29  O   UNL     1       2.268  16.310  18.301  0.00  0.00    +0.000 OA
ATOM     30  H   UNL     1       2.080  17.032  18.936  0.00  0.00    +0.000 HD
ENDBRANCH   5  29
BRANCH   8  31
ATOM     31  O   UNL     1       1.364  11.027  18.106  0.00  0.00    +0.000 OA
ATOM     32  H   UNL     1       2.115  10.405  18.072  0.00  0.00    +0.000 HD
ENDBRANCH   8  31
TORSDOF 7
ENDMDL
MODEL 4
REMARK VINA RESULT:      -6.0      1.795      6.581
REMARK  Name = 
REMARK  9 active torsions:
REMARK  status: ('A' for Active; 'I' for Inactive)
REMARK    1  A    between atoms: C_1  and  O_2
REMARK    2  A    between atoms: O_2  and  C_3
REMARK    3  A    between atoms: C_5  and  C_6
REMARK    4  A    between atoms: C_9  and  O_10
REMARK    5  A    between atoms: C_11  and  O_12
REMARK    6  A    between atoms: C_15  and  O_16
REMARK    7  A    between atoms: C_24  and  O_25
REMARK    8  A    between atoms: O_25  and  C_26
REMARK    9  A    between atoms: C_27  and  O_28
REMARK                            x       y       z     vdW  Elec       q    Type
REMARK                         _______ _______ _______ _____ _____    ______ ____
ROOT
ATOM      1  C   UNL     1      -2.806  12.178  20.934  0.00  0.00    +0.000 C 
ATOM      2  C   UNL     1      -4.205  12.587  20.392  0.00  0.00    +0.000 A 
ATOM      3  C   UNL     1      -4.579  12.336  19.066  0.00  0.00    +0.000 A 
ATOM      4  C   UNL     1      -5.839  11.794  18.841  0.00  0.00    +0.000 A 
ATOM      5  C   UNL     1      -6.680  11.493  19.908  0.00  0.00    +0.000 A 
ATOM      6  C   UNL     1      -6.425  12.003  21.169  0.00  0.00    +0.000 A 
ATOM      7  C   UNL     1      -5.218  12.669  21.389  0.00  0.00    +0.000 A 
ATOM      8  C   UNL     1      -4.927  13.356  22.714  0.00  0.00    +0.000 C 
ATOM      9  C   UNL     1      -3.474  13.804  22.721  0.00  0.00    +0.000 C 
ATOM     10  C   UNL     1      -2.906  14.276  24.030  0.00  0.00    +0.000 C 
ATOM     11  O   UNL     1      -1.494  14.058  23.870  0.00  0.00    +0.000 OA
ATOM     12  C   UNL     1      -1.273  13.089  22.931  0.00  0.00    +0.000 C 
ATOM     13  O   UNL     1      -0.175  12.605  22.689  0.00  0.00    +0.000 OA
ATOM     14  C   UNL     1      -2.597  12.611  22.393  0.00  0.00    +0.000 C 
ENDROOT
BRANCH   1  17
ATOM     15  C   UNL     1       0.287  13.217  18.906  0.00  0.00    +0.000 A 
ATOM     16  C   UNL     1      -0.981  13.288  19.511  0.00  0.00    +0.000 A 
ATOM     17  C   UNL     1      -1.578  12.148  20.054  0.00  0.00    +0.000 A 
ATOM     18  C   UNL     1      -0.900  10.917  19.913  0.00  0.00    +0.000 A 
ATOM     19  C   UNL     1       0.360  10.824  19.322  0.00  0.00    +0.000 A 
ATOM     20  C   UNL     1       0.955  11.983  18.816  0.00  0.00    +0.000 A 
BRANCH  15  22
ATOM     21  C   UNL     1       1.508  15.246  19.279  0.00  0.00    +0.000 C 
ATOM     22  O   UNL     1       0.715  14.433  18.423  0.00  0.00    +0.000 OA
ENDBRANCH  15  22
BRANCH  19  23
ATOM     23  O   UNL     1       0.852   9.549  19.216  0.00  0.00    +0.000 OA
ATOM     24  C   UNL     1       1.101   8.853  20.438  0.00  0.00    +0.000 C 
ENDBRANCH  19  23
BRANCH  20  25
ATOM     25  O   UNL     1       2.156  11.891  18.167  0.00  0.00    +0.000 OA
ATOM     26  H   UNL     1       2.799  12.336  18.752  0.00  0.00    +0.000 HD
ENDBRANCH  20  25
ENDBRANCH   1  17
BRANCH   4  27
ATOM     27  O   UNL     1      -6.258  11.456  17.587  0.00  0.00    +0.000 OA
ATOM     28  H   UNL     1      -7.173  11.134  17.679  0.00  0.00    +0.000 HD
ENDBRANCH   4  27
BRANCH   5  29
ATOM     29  O   UNL     1      -7.748  10.665  19.722  0.00  0.00    +0.000 OA
ATOM     30  H   UNL     1      -7.361   9.765  19.709  0.00  0.00    +0.000 HD
ENDBRANCH   5  29
BRANCH   8  31
ATOM     31  O   UNL     1      -5.737  14.516  22.867  0.00  0.00    +0.000 OA
ATOM     32  H   UNL     1      -5.208  15.291  22.604  0.00  0.00    +0.000 HD
ENDBRANCH   8  31
TORSDOF 7
ENDMDL
MODEL 5
REMARK VINA RESULT:      -6.0      2.208      6.690
REMARK  Name = 
REMARK  9 active torsions:
REMARK  status: ('A' for Active; 'I' for Inactive)
REMARK    1  A    between atoms: C_1  and  O_2
REMARK    2  A    between atoms: O_2  and  C_3
REMARK    3  A    between atoms: C_5  and  C_6
REMARK    4  A    between atoms: C_9  and  O_10
REMARK    5  A    between atoms: C_11  and  O_12
REMARK    6  A    between atoms: C_15  and  O_16
REMARK    7  A    between atoms: C_24  and  O_25
REMARK    8  A    between atoms: O_25  and  C_26
REMARK    9  A    between atoms: C_27  and  O_28
REMARK                            x       y       z     vdW  Elec       q    Type
REMARK                         _______ _______ _______ _____ _____    ______ ____
ROOT
ATOM      1  C   UNL     1      -4.181  12.884  21.892  0.00  0.00    +0.000 C 
ATOM      2  C   UNL     1      -4.990  12.848  20.565  0.00  0.00    +0.000 A 
ATOM      3  C   UNL     1      -4.471  12.262  19.405  0.00  0.00    +0.000 A 
ATOM      4  C   UNL     1      -5.301  11.413  18.681  0.00  0.00    +0.000 A 
ATOM      5  C   UNL     1      -6.594  11.146  19.120  0.00  0.00    +0.000 A 
ATOM      6  C   UNL     1      -7.186  11.940  20.087  0.00  0.00    +0.000 A 
ATOM      7  C   UNL     1      -6.403  12.894  20.739  0.00  0.00    +0.000 A 
ATOM      8  C   UNL     1      -7.017  13.877  21.724  0.00  0.00    +0.000 C 
ATOM      9  C   UNL     1      -5.895  14.636  22.415  0.00  0.00    +0.000 C 
ATOM     10  C   UNL     1      -6.266  15.474  23.607  0.00  0.00    +0.000 C 
ATOM     11  O   UNL     1      -5.033  15.557  24.342  0.00  0.00    +0.000 OA
ATOM     12  C   UNL     1      -4.228  14.498  24.028  0.00  0.00    +0.000 C 
ATOM     13  O   UNL     1      -3.178  14.238  24.602  0.00  0.00    +0.000 OA
ATOM     14  C   UNL     1      -4.924  13.633  23.008  0.00  0.00    +0.000 C 
ENDROOT
BRANCH   1  17
ATOM     15  C   UNL     1      -0.459  11.971  22.167  0.00  0.00    +0.000 A 
ATOM     16  C   UNL     1      -1.847  11.942  22.395  0.00  0.00    +0.000 A 
ATOM     17  C   UNL     1      -2.672  12.961  21.913  0.00  0.00    +0.000 A 
ATOM     18  C   UNL     1      -2.059  14.050  21.254  0.00  0.00    +0.000 A 
ATOM     19  C   UNL     1      -0.686  14.097  21.012  0.00  0.00    +0.000 A 
ATOM     20  C   UNL     1       0.116  13.050  21.473  0.00  0.00    +0.000 A 
BRANCH  15  22
ATOM     21  C   UNL     1      -0.597   9.804  23.182  0.00  0.00    +0.000 C 
ATOM     22  O   UNL     1       0.193  10.891  22.718  0.00  0.00    +0.000 OA
ENDBRANCH  15  22
BRANCH  19  23
ATOM     23  O   UNL     1      -0.248  15.248  20.411  0.00  0.00    +0.000 OA
ATOM     24  C   UNL     1      -0.254  15.269  18.983  0.00  0.00    +0.000 C 
ENDBRANCH  19  23
BRANCH  20  25
ATOM     25  O   UNL     1       1.473  13.123  21.308  0.00  0.00    +0.000 OA
ATOM     26  H   UNL     1       1.726  12.277  20.890  0.00  0.00    +0.000 HD
ENDBRANCH  20  25
ENDBRANCH   1  17
BRANCH   4  27
ATOM     27  O   UNL     1      -4.854  10.747  17.576  0.00  0.00    +0.000 OA
ATOM     28  H   UNL     1      -5.441  11.006  16.842  0.00  0.00    +0.000 HD
ENDBRANCH   4  27
BRANCH   5  29
ATOM     29  O   UNL     1      -7.277  10.076  18.619  0.00  0.00    +0.000 OA
ATOM     30  H   UNL     1      -6.875   9.300  19.061  0.00  0.00    +0.000 HD
ENDBRANCH   5  29
BRANCH   8  31
ATOM     31  O   UNL     1      -7.827  14.828  21.044  0.00  0.00    +0.000 OA
ATOM     32  H   UNL     1      -7.858  14.580  20.101  0.00  0.00    +0.000 HD
ENDBRANCH   8  31
TORSDOF 7
ENDMDL
MODEL 6
REMARK VINA RESULT:      -6.0      2.856      4.186
REMARK  Name = 
REMARK  9 active torsions:
REMARK  status: ('A' for Active; 'I' for Inactive)
REMARK    1  A    between atoms: C_1  and  O_2
REMARK    2  A    between atoms: O_2  and  C_3
REMARK    3  A    between atoms: C_5  and  C_6
REMARK    4  A    between atoms: C_9  and  O_10
REMARK    5  A    between atoms: C_11  and  O_12
REMARK    6  A    between atoms: C_15  and  O_16
REMARK    7  A    between atoms: C_24  and  O_25
REMARK    8  A    between atoms: O_25  and  C_26
REMARK    9  A    between atoms: C_27  and  O_28
REMARK                            x       y       z     vdW  Elec       q    Type
REMARK                         _______ _______ _______ _____ _____    ______ ____
ROOT
ATOM      1  C   UNL     1      -2.774  12.855  20.343  0.00  0.00    +0.000 C 
ATOM      2  C   UNL     1      -3.153  11.767  19.298  0.00  0.00    +0.000 A 
ATOM      3  C   UNL     1      -4.423  11.726  18.711  0.00  0.00    +0.000 A 
ATOM      4  C   UNL     1      -4.494  11.544  17.335  0.00  0.00    +0.000 A 
ATOM      5  C   UNL     1      -3.333  11.432  16.576  0.00  0.00    +0.000 A 
ATOM      6  C   UNL     1      -2.115  11.186  17.187  0.00  0.00    +0.000 A 
ATOM      7  C   UNL     1      -2.045  11.234  18.580  0.00  0.00    +0.000 A 
ATOM      8  C   UNL     1      -0.770  10.857  19.318  0.00  0.00    +0.000 C 
ATOM      9  C   UNL     1      -0.938  11.208  20.788  0.00  0.00    +0.000 C 
ATOM     10  C   UNL     1       0.292  11.155  21.652  0.00  0.00    +0.000 C 
ATOM     11  O   UNL     1      -0.031  12.049  22.731  0.00  0.00    +0.000 OA
ATOM     12  C   UNL     1      -0.979  12.948  22.328  0.00  0.00    +0.000 C 
ATOM     13  O   UNL     1      -1.343  13.908  22.994  0.00  0.00    +0.000 OA
ATOM     14  C   UNL     1      -1.353  12.662  20.896  0.00  0.00    +0.000 C 
ENDROOT
BRANCH   1  17
ATOM     15  C   UNL     1      -5.280  13.359  23.211  0.00  0.00    +0.000 A 
ATOM     16  C   UNL     1      -4.534  12.717  22.206  0.00  0.00    +0.000 A 
ATOM     17  C   UNL     1      -3.791  13.457  21.284  0.00  0.00    +0.000 A 
ATOM     18  C   UNL     1      -3.871  14.866  21.352  0.00  0.00    +0.000 A 
ATOM     19  C   UNL     1      -4.600  15.524  22.342  0.00  0.00    +0.000 A 
ATOM     20  C   UNL     1      -5.308  14.764  23.276  0.00  0.00    +0.000 A 
BRANCH  15  22
ATOM     21  C   UNL     1      -7.334  12.258  23.772  0.00  0.00    +0.000 C 
ATOM     22  O   UNL     1      -5.952  12.473  24.024  0.00  0.00    +0.000 OA
ENDBRANCH  15  22
BRANCH  19  23
ATOM     23  O   UNL     1      -4.617  16.891  22.230  0.00  0.00    +0.000 OA
ATOM     24  C   UNL     1      -3.463  17.587  22.701  0.00  0.00    +0.000 C 
ENDBRANCH  19  23
BRANCH  20  25
ATOM     25  O   UNL     1      -6.087  15.398  24.204  0.00  0.00    +0.000 OA
ATOM     26  H   UNL     1      -6.150  14.776  24.955  0.00  0.00    +0.000 HD
ENDBRANCH  20  25
ENDBRANCH   1  17
BRANCH   4  27
ATOM     27  O   UNL     1      -5.687  11.559  16.673  0.00  0.00    +0.000 OA
ATOM     28  H   UNL     1      -6.377  11.690  17.350  0.00  0.00    +0.000 HD
ENDBRANCH   4  27
BRANCH   5  29
ATOM     29  O   UNL     1      -3.384  11.595  15.222  0.00  0.00    +0.000 OA
ATOM     30  H   UNL     1      -3.521  10.690  14.873  0.00  0.00    +0.000 HD
ENDBRANCH   5  29
BRANCH   8  31
ATOM     31  O   UNL     1      -0.535   9.457  19.232  0.00  0.00    +0.000 OA
ATOM     32  H   UNL     1      -0.418   9.113  20.137  0.00  0.00    +0.000 HD
ENDBRANCH   8  31
TORSDOF 7
ENDMDL
MODEL 7
REMARK VINA RESULT:      -5.9      8.299     11.564
REMARK  Name = 
REMARK  9 active torsions:
REMARK  status: ('A' for Active; 'I' for Inactive)
REMARK    1  A    between atoms: C_1  and  O_2
REMARK    2  A    between atoms: O_2  and  C_3
REMARK    3  A    between atoms: C_5  and  C_6
REMARK    4  A    between atoms: C_9  and  O_10
REMARK    5  A    between atoms: C_11  and  O_12
REMARK    6  A    between atoms: C_15  and  O_16
REMARK    7  A    between atoms: C_24  and  O_25
REMARK    8  A    between atoms: O_25  and  C_26
REMARK    9  A    between atoms: C_27  and  O_28
REMARK                            x       y       z     vdW  Elec       q    Type
REMARK                         _______ _______ _______ _____ _____    ______ ____
ROOT
ATOM      1  C   UNL     1       8.955  14.524  19.302  0.00  0.00    +0.000 C 
ATOM      2  C   UNL     1       9.753  13.235  19.647  0.00  0.00    +0.000 A 
ATOM      3  C   UNL     1       9.506  12.513  20.821  0.00  0.00    +0.000 A 
ATOM      4  C   UNL     1       9.401  11.130  20.719  0.00  0.00    +0.000 A 
ATOM      5  C   UNL     1       9.514  10.502  19.483  0.00  0.00    +0.000 A 
ATOM      6  C   UNL     1      10.037  11.179  18.395  0.00  0.00    +0.000 A 
ATOM      7  C   UNL     1      10.276  12.549  18.514  0.00  0.00    +0.000 A 
ATOM      8  C   UNL     1      10.959  13.329  17.401  0.00  0.00    +0.000 C 
ATOM      9  C   UNL     1      10.888  14.811  17.732  0.00  0.00    +0.000 C 
ATOM     10  C   UNL     1      11.274  15.777  16.647  0.00  0.00    +0.000 C 
ATOM     11  O   UNL     1      10.578  16.979  17.018  0.00  0.00    +0.000 OA
ATOM     12  C   UNL     1       9.498  16.673  17.799  0.00  0.00    +0.000 C 
ATOM     13  O   UNL     1       8.649  17.484  18.147  0.00  0.00    +0.000 OA
ATOM     14  C   UNL     1       9.441  15.180  18.000  0.00  0.00    +0.000 C 
ENDROOT
BRANCH   1  17
ATOM     15  C   UNL     1       6.648  16.285  21.818  0.00  0.00    +0.000 A 
ATOM     16  C   UNL     1       7.063  15.597  20.664  0.00  0.00    +0.000 A 
ATOM     17  C   UNL     1       8.420  15.451  20.368  0.00  0.00    +0.000 A 
ATOM     18  C   UNL     1       9.353  16.074  21.227  0.00  0.00    +0.000 A 
ATOM     19  C   UNL     1       8.965  16.757  22.379  0.00  0.00    +0.000 A 
ATOM     20  C   UNL     1       7.603  16.862  22.675  0.00  0.00    +0.000 A 
BRANCH  15  22
ATOM     21  C   UNL     1       4.493  15.876  20.852  0.00  0.00    +0.000 C 
ATOM     22  O   UNL     1       5.278  16.335  21.945  0.00  0.00    +0.000 OA
ENDBRANCH  15  22
BRANCH  19  23
ATOM     23  O   UNL     1       9.991  17.349  23.069  0.00  0.00    +0.000 OA
ATOM     24  C   UNL     1      10.770  16.501  23.914  0.00  0.00    +0.000 C 
ENDBRANCH  19  23
BRANCH  20  25
ATOM     25  O   UNL     1       7.207  17.593  23.761  0.00  0.00    +0.000 OA
ATOM     26  H   UNL     1       6.278  17.336  23.919  0.00  0.00    +0.000 HD
ENDBRANCH  20  25
ENDBRANCH   1  17
BRANCH   4  27
ATOM     27  O   UNL     1       9.095  10.356  21.801  0.00  0.00    +0.000 OA
ATOM     28  H   UNL     1       8.402   9.736  21.509  0.00  0.00    +0.000 HD
ENDBRANCH   4  27
BRANCH   5  29
ATOM     29  O   UNL     1       9.081   9.217  19.329  0.00  0.00    +0.000 OA
ATOM     30  H   UNL     1       8.126   9.254  19.545  0.00  0.00    +0.000 HD
ENDBRANCH   5  29
BRANCH   8  31
ATOM     31  O   UNL     1      12.333  12.972  17.308  0.00  0.00    +0.000 OA
ATOM     32  H   UNL     1      12.386  12.062  16.963  0.00  0.00    +0.000 HD
ENDBRANCH   8  31
TORSDOF 7
ENDMDL
MODEL 8
REMARK VINA RESULT:      -5.9      2.026      6.701
REMARK  Name = 
REMARK  9 active torsions:
REMARK  status: ('A' for Active; 'I' for Inactive)
REMARK    1  A    between atoms: C_1  and  O_2
REMARK    2  A    between atoms: O_2  and  C_3
REMARK    3  A    between atoms: C_5  and  C_6
REMARK    4  A    between atoms: C_9  and  O_10
REMARK    5  A    between atoms: C_11  and  O_12
REMARK    6  A    between atoms: C_15  and  O_16
REMARK    7  A    between atoms: C_24  and  O_25
REMARK    8  A    between atoms: O_25  and  C_26
REMARK    9  A    between atoms: C_27  and  O_28
REMARK                            x       y       z     vdW  Elec       q    Type
REMARK                         _______ _______ _______ _____ _____    ______ ____
ROOT
ATOM      1  C   UNL     1      -3.621  12.784  20.425  0.00  0.00    +0.000 C 
ATOM      2  C   UNL     1      -4.279  12.710  21.832  0.00  0.00    +0.000 A 
ATOM      3  C   UNL     1      -3.566  13.032  22.993  0.00  0.00    +0.000 A 
ATOM      4  C   UNL     1      -4.188  13.852  23.927  0.00  0.00    +0.000 A 
ATOM      5  C   UNL     1      -5.466  14.349  23.692  0.00  0.00    +0.000 A 
ATOM      6  C   UNL     1      -6.261  13.802  22.699  0.00  0.00    +0.000 A 
ATOM      7  C   UNL     1      -5.694  12.874  21.825  0.00  0.00    +0.000 A 
ATOM      8  C   UNL     1      -6.539  12.147  20.790  0.00  0.00    +0.000 C 
ATOM      9  C   UNL     1      -5.615  11.373  19.865  0.00  0.00    +0.000 C 
ATOM     10  C   UNL     1      -6.220  10.790  18.618  0.00  0.00    +0.000 C 
ATOM     11  O   UNL     1      -5.093  10.671  17.734  0.00  0.00    +0.000 OA
ATOM     12  C   UNL     1      -4.115  11.555  18.098  0.00  0.00    +0.000 C 
ATOM     13  O   UNL     1      -3.102  11.767  17.445  0.00  0.00    +0.000 OA
ATOM     14  C   UNL     1      -4.573  12.326  19.310  0.00  0.00    +0.000 C 
ENDROOT
BRANCH   1  17
ATOM     15  C   UNL     1      -0.233  11.037  19.948  0.00  0.00    +0.000 A 
ATOM     16  C   UNL     1      -1.546  11.274  20.394  0.00  0.00    +0.000 A 
ATOM     17  C   UNL     1      -2.149  12.521  20.209  0.00  0.00    +0.000 A 
ATOM     18  C   UNL     1      -1.374  13.549  19.627  0.00  0.00    +0.000 A 
ATOM     19  C   UNL     1      -0.073  13.335  19.174  0.00  0.00    +0.000 A 
ATOM     20  C   UNL     1       0.499  12.071  19.336  0.00  0.00    +0.000 A 
BRANCH  15  22
ATOM     21  C   UNL     1      -0.063   9.228  21.512  0.00  0.00    +0.000 C 
ATOM     22  O   UNL     1       0.198   9.758  20.219  0.00  0.00    +0.000 OA
ENDBRANCH  15  22
BRANCH  19  23
ATOM     23  O   UNL     1       0.556  14.451  18.685  0.00  0.00    +0.000 OA
ATOM     24  C   UNL     1       0.001  15.714  19.054  0.00  0.00    +0.000 C 
ENDBRANCH  19  23
BRANCH  20  25
ATOM     25  O   UNL     1       1.800  11.871  18.964  0.00  0.00    +0.000 OA
ATOM     26  H   UNL     1       2.160  11.238  19.616  0.00  0.00    +0.000 HD
ENDBRANCH  20  25
ENDBRANCH   1  17
BRANCH   4  27
ATOM     27  O   UNL     1      -3.541  14.269  25.054  0.00  0.00    +0.000 OA
ATOM     28  H   UNL     1      -3.912  13.752  25.793  0.00  0.00    +0.000 HD
ENDBRANCH   4  27
BRANCH   5  29
ATOM     29  O   UNL     1      -5.934  15.402  24.423  0.00  0.00    +0.000 OA
ATOM     30  H   UNL     1      -5.159  15.992  24.524  0.00  0.00    +0.000 HD
ENDBRANCH   5  29
BRANCH   8  31
ATOM     31  O   UNL     1      -7.406  11.211  21.418  0.00  0.00    +0.000 OA
ATOM     32  H   UNL     1      -6.968  10.339  21.409  0.00  0.00    +0.000 HD
ENDBRANCH   8  31
TORSDOF 7
ENDMDL
MODEL 9
REMARK VINA RESULT:      -5.9      2.080      6.393
REMARK  Name = 
REMARK  9 active torsions:
REMARK  status: ('A' for Active; 'I' for Inactive)
REMARK    1  A    between atoms: C_1  and  O_2
REMARK    2  A    between atoms: O_2  and  C_3
REMARK    3  A    between atoms: C_5  and  C_6
REMARK    4  A    between atoms: C_9  and  O_10
REMARK    5  A    between atoms: C_11  and  O_12
REMARK    6  A    between atoms: C_15  and  O_16
REMARK    7  A    between atoms: C_24  and  O_25
REMARK    8  A    between atoms: O_25  and  C_26
REMARK    9  A    between atoms: C_27  and  O_28
REMARK                            x       y       z     vdW  Elec       q    Type
REMARK                         _______ _______ _______ _____ _____    ______ ____
ROOT
ATOM      1  C   UNL     1      -3.551  12.943  20.594  0.00  0.00    +0.000 C 
ATOM      2  C   UNL     1      -4.336  12.841  21.932  0.00  0.00    +0.000 A 
ATOM      3  C   UNL     1      -3.777  13.261  23.145  0.00  0.00    +0.000 A 
ATOM      4  C   UNL     1      -4.565  14.040  23.985  0.00  0.00    +0.000 A 
ATOM      5  C   UNL     1      -5.854  14.402  23.609  0.00  0.00    +0.000 A 
ATOM      6  C   UNL     1      -6.490  13.755  22.564  0.00  0.00    +0.000 A 
ATOM      7  C   UNL     1      -5.752  12.864  21.783  0.00  0.00    +0.000 A 
ATOM      8  C   UNL     1      -6.417  12.031  20.697  0.00  0.00    +0.000 C 
ATOM      9  C   UNL     1      -5.335  11.328  19.894  0.00  0.00    +0.000 C 
ATOM     10  C   UNL     1      -5.754  10.657  18.616  0.00  0.00    +0.000 C 
ATOM     11  O   UNL     1      -4.538  10.625  17.850  0.00  0.00    +0.000 OA
ATOM     12  C   UNL     1      -3.690  11.610  18.276  0.00  0.00    +0.000 C 
ATOM     13  O   UNL     1      -2.642  11.904  17.716  0.00  0.00    +0.000 OA
ATOM     14  C   UNL     1      -4.339  12.364  19.409  0.00  0.00    +0.000 C 
ENDROOT
BRANCH   1  17
ATOM     15  C   UNL     1       0.185  13.729  20.161  0.00  0.00    +0.000 A 
ATOM     16  C   UNL     1      -1.208  13.788  19.974  0.00  0.00    +0.000 A 
ATOM     17  C   UNL     1      -2.046  12.820  20.532  0.00  0.00    +0.000 A 
ATOM     18  C   UNL     1      -1.444  11.748  21.228  0.00  0.00    +0.000 A 
ATOM     19  C   UNL     1      -0.066  11.672  21.431  0.00  0.00    +0.000 A 
ATOM     20  C   UNL     1       0.751  12.669  20.893  0.00  0.00    +0.000 A 
BRANCH  15  22
ATOM     21  C   UNL     1       0.074  15.724  18.838  0.00  0.00    +0.000 C 
ATOM     22  O   UNL     1       0.851  14.759  19.536  0.00  0.00    +0.000 OA
ENDBRANCH  15  22
BRANCH  19  23
ATOM     23  O   UNL     1       0.357  10.540  22.078  0.00  0.00    +0.000 OA
ATOM     24  C   UNL     1      -0.503  10.020  23.092  0.00  0.00    +0.000 C 
ENDBRANCH  19  23
BRANCH  20  25
ATOM     25  O   UNL     1       2.109  12.564  21.020  0.00  0.00    +0.000 OA
ATOM     26  H   UNL     1       2.445  13.479  20.950  0.00  0.00    +0.000 HD
ENDBRANCH  20  25
ENDBRANCH   1  17
BRANCH   4  27
ATOM     27  O   UNL     1      -4.076  14.548  25.154  0.00  0.00    +0.000 OA
ATOM     28  H   UNL     1      -4.790  14.461  25.812  0.00  0.00    +0.000 HD
ENDBRANCH   4  27
BRANCH   5  29
ATOM     29  O   UNL     1      -6.491  15.423  24.253  0.00  0.00    +0.000 OA
ATOM     30  H   UNL     1      -7.219  14.988  24.741  0.00  0.00    +0.000 HD
ENDBRANCH   5  29
BRANCH   8  31
ATOM     31  O   UNL     1      -7.249  11.031  21.271  0.00  0.00    +0.000 OA
ATOM     32  H   UNL     1      -7.958  11.477  21.770  0.00  0.00    +0.000 HD
ENDBRANCH   8  31
TORSDOF 7
ENDMDL
