MODEL 1
REMARK VINA RESULT:      -6.4      0.000      0.000
REMARK  Name = 
REMARK  7 active torsions:
REMARK  status: ('A' for Active; 'I' for Inactive)
REMARK    1  A    between atoms: C_1  and  N_2
REMARK    2  A    between atoms: C_3  and  S_12
REMARK    3  A    between atoms: N_4  and  C_5
REMARK    4  A    between atoms: C_9  and  C_10
REMARK    5  A    between atoms: S_12  and  C_13
REMARK    6  A    between atoms: C_13  and  C_14
REMARK    7  A    between atoms: C_13  and  C_15
REMARK                            x       y       z     vdW  Elec       q    Type
REMARK                         _______ _______ _______ _____ _____    ______ ____
ROOT
ATOM      1  C   UNL     1       5.704   4.480  14.332  0.00  0.00    +0.000 C 
ATOM      2  N   UNL     1       5.131   4.046  15.587  0.00  0.00    +0.000 NA
ATOM      3  C   UNL     1       5.779   4.057  16.696  0.00  0.00    +0.000 C 
ATOM      4  N   UNL     1       5.303   3.542  17.872  0.00  0.00    +0.000 N 
ATOM      5  H   UNL     1       5.977   3.422  18.614  0.00  0.00    +0.000 HD
ENDROOT
BRANCH   4   6
ATOM      6  C   UNL     1       3.956   3.434  18.265  0.00  0.00    +0.000 A 
ATOM      7  C   UNL     1       3.136   2.381  17.842  0.00  0.00    +0.000 A 
ATOM      8  C   UNL     1       1.807   2.291  18.251  0.00  0.00    +0.000 A 
ATOM      9  C   UNL     1       1.280   3.236  19.125  0.00  0.00    +0.000 A 
ATOM     10  C   UNL     1       2.083   4.281  19.597  0.00  0.00    +0.000 A 
ATOM     11  C   UNL     1       1.535   5.279  20.571  0.00  0.00    +0.000 C 
ATOM     12  C   UNL     1       3.418   4.369  19.162  0.00  0.00    +0.000 A 
ENDBRANCH   4   6
BRANCH   3  13
ATOM     13  S   UNL     1       7.415   4.685  16.875  0.00  0.00    +0.000 S 
BRANCH  13  14
ATOM     14  C   UNL     1       7.107   6.036  18.080  0.00  0.00    +0.000 C 
ATOM     15  C   UNL     1       7.843   5.799  19.399  0.00  0.00    +0.000 C 
ATOM     16  C   UNL     1       7.571   7.355  17.461  0.00  0.00    +0.000 C 
ENDBRANCH  13  14
ENDBRANCH   3  13
TORSDOF 3
ENDMDL
MODEL 2
REMARK VINA RESULT:      -6.4      0.964      1.067
REMARK  Name = 
REMARK  7 active torsions:
REMARK  status: ('A' for Active; 'I' for Inactive)
REMARK    1  A    between atoms: C_1  and  N_2
REMARK    2  A    between atoms: C_3  and  S_12
REMARK    3  A    between atoms: N_4  and  C_5
REMARK    4  A    between atoms: C_9  and  C_10
REMARK    5  A    between atoms: S_12  and  C_13
REMARK    6  A    between atoms: C_13  and  C_14
REMARK    7  A    between atoms: C_13  and  C_15
REMARK                            x       y       z     vdW  Elec       q    Type
REMARK                         _______ _______ _______ _____ _____    ______ ____
ROOT
ATOM      1  C   UNL     1       5.599   4.331  14.475  0.00  0.00    +0.000 C 
ATOM      2  N   UNL     1       5.018   4.038  15.766  0.00  0.00    +0.000 NA
ATOM      3  C   UNL     1       5.674   4.121  16.868  0.00  0.00    +0.000 C 
ATOM      4  N   UNL     1       5.185   3.736  18.088  0.00  0.00    +0.000 N 
ATOM      5  H   UNL     1       5.859   3.654  18.834  0.00  0.00    +0.000 HD
ENDROOT
BRANCH   4   6
ATOM      6  C   UNL     1       3.838   3.724  18.493  0.00  0.00    +0.000 A 
ATOM      7  C   UNL     1       2.792   4.049  17.622  0.00  0.00    +0.000 A 
ATOM      8  C   UNL     1       1.464   4.022  18.045  0.00  0.00    +0.000 A 
ATOM      9  C   UNL     1       1.153   3.630  19.344  0.00  0.00    +0.000 A 
ATOM     10  C   UNL     1       2.173   3.262  20.229  0.00  0.00    +0.000 A 
ATOM     11  C   UNL     1       1.843   2.799  21.615  0.00  0.00    +0.000 C 
ATOM     12  C   UNL     1       3.509   3.311  19.793  0.00  0.00    +0.000 A 
ENDBRANCH   4   6
BRANCH   3  13
ATOM     13  S   UNL     1       7.338   4.689  16.983  0.00  0.00    +0.000 S 
BRANCH  13  14
ATOM     14  C   UNL     1       7.124   6.055  18.190  0.00  0.00    +0.000 C 
ATOM     15  C   UNL     1       7.918   5.809  19.473  0.00  0.00    +0.000 C 
ATOM     16  C   UNL     1       7.590   7.358  17.538  0.00  0.00    +0.000 C 
ENDBRANCH  13  14
ENDBRANCH   3  13
TORSDOF 3
ENDMDL
MODEL 3
REMARK VINA RESULT:      -6.2      1.147      1.173
REMARK  Name = 
REMARK  7 active torsions:
REMARK  status: ('A' for Active; 'I' for Inactive)
REMARK    1  A    between atoms: C_1  and  N_2
REMARK    2  A    between atoms: C_3  and  S_12
REMARK    3  A    between atoms: N_4  and  C_5
REMARK    4  A    between atoms: C_9  and  C_10
REMARK    5  A    between atoms: S_12  and  C_13
REMARK    6  A    between atoms: C_13  and  C_14
REMARK    7  A    between atoms: C_13  and  C_15
REMARK                            x       y       z     vdW  Elec       q    Type
REMARK                         _______ _______ _______ _____ _____    ______ ____
ROOT
ATOM      1  C   UNL     1       5.118   4.312  15.131  0.00  0.00    +0.000 C 
ATOM      2  N   UNL     1       4.765   4.049  16.509  0.00  0.00    +0.000 NA
ATOM      3  C   UNL     1       5.599   4.152  17.480  0.00  0.00    +0.000 C 
ATOM      4  N   UNL     1       5.325   3.795  18.774  0.00  0.00    +0.000 N 
ATOM      5  H   UNL     1       6.116   3.725  19.396  0.00  0.00    +0.000 HD
ENDROOT
BRANCH   4   6
ATOM      6  C   UNL     1       4.066   3.797  19.403  0.00  0.00    +0.000 A 
ATOM      7  C   UNL     1       3.414   2.616  19.774  0.00  0.00    +0.000 A 
ATOM      8  C   UNL     1       2.170   2.644  20.404  0.00  0.00    +0.000 A 
ATOM      9  C   UNL     1       1.571   3.862  20.711  0.00  0.00    +0.000 A 
ATOM     10  C   UNL     1       2.214   5.062  20.387  0.00  0.00    +0.000 A 
ATOM     11  C   UNL     1       1.595   6.377  20.752  0.00  0.00    +0.000 C 
ATOM     12  C   UNL     1       3.461   5.018  19.736  0.00  0.00    +0.000 A 
ENDBRANCH   4   6
BRANCH   3  13
ATOM     13  S   UNL     1       7.259   4.715  17.298  0.00  0.00    +0.000 S 
BRANCH  13  14
ATOM     14  C   UNL     1       7.249   6.121  18.479  0.00  0.00    +0.000 C 
ATOM     15  C   UNL     1       8.151   5.857  19.684  0.00  0.00    +0.000 C 
ATOM     16  C   UNL     1       7.724   7.375  17.744  0.00  0.00    +0.000 C 
ENDBRANCH  13  14
ENDBRANCH   3  13
TORSDOF 3
ENDMDL
MODEL 4
REMARK VINA RESULT:      -6.1      0.740      1.779
REMARK  Name = 
REMARK  7 active torsions:
REMARK  status: ('A' for Active; 'I' for Inactive)
REMARK    1  A    between atoms: C_1  and  N_2
REMARK    2  A    between atoms: C_3  and  S_12
REMARK    3  A    between atoms: N_4  and  C_5
REMARK    4  A    between atoms: C_9  and  C_10
REMARK    5  A    between atoms: S_12  and  C_13
REMARK    6  A    between atoms: C_13  and  C_14
REMARK    7  A    between atoms: C_13  and  C_15
REMARK                            x       y       z     vdW  Elec       q    Type
REMARK                         _______ _______ _______ _____ _____    ______ ____
ROOT
ATOM      1  C   UNL     1       5.311   4.373  14.848  0.00  0.00    +0.000 C 
ATOM      2  N   UNL     1       4.827   4.178  16.197  0.00  0.00    +0.000 NA
ATOM      3  C   UNL     1       5.581   4.266  17.233  0.00  0.00    +0.000 C 
ATOM      4  N   UNL     1       5.176   3.969  18.508  0.00  0.00    +0.000 N 
ATOM      5  H   UNL     1       5.906   3.875  19.198  0.00  0.00    +0.000 HD
ENDROOT
BRANCH   4   6
ATOM      6  C   UNL     1       3.871   4.067  19.026  0.00  0.00    +0.000 A 
ATOM      7  C   UNL     1       3.455   5.155  19.801  0.00  0.00    +0.000 A 
ATOM      8  C   UNL     1       2.154   5.233  20.297  0.00  0.00    +0.000 A 
ATOM      9  C   UNL     1       1.230   4.237  19.992  0.00  0.00    +0.000 A 
ATOM     10  C   UNL     1       1.604   3.154  19.188  0.00  0.00    +0.000 A 
ATOM     11  C   UNL     1       0.605   2.101  18.822  0.00  0.00    +0.000 C 
ATOM     12  C   UNL     1       2.925   3.080  18.710  0.00  0.00    +0.000 A 
ENDBRANCH   4   6
BRANCH   3  13
ATOM     13  S   UNL     1       7.281   4.724  17.179  0.00  0.00    +0.000 S 
BRANCH  13  14
ATOM     14  C   UNL     1       7.270   6.125  18.366  0.00  0.00    +0.000 C 
ATOM     15  C   UNL     1       8.179   5.860  19.566  0.00  0.00    +0.000 C 
ATOM     16  C   UNL     1       7.736   7.385  17.635  0.00  0.00    +0.000 C 
ENDBRANCH  13  14
ENDBRANCH   3  13
TORSDOF 3
ENDMDL
MODEL 5
REMARK VINA RESULT:      -6.0      1.494      1.639
REMARK  Name = 
REMARK  7 active torsions:
REMARK  status: ('A' for Active; 'I' for Inactive)
REMARK    1  A    between atoms: C_1  and  N_2
REMARK    2  A    between atoms: C_3  and  S_12
REMARK    3  A    between atoms: N_4  and  C_5
REMARK    4  A    between atoms: C_9  and  C_10
REMARK    5  A    between atoms: S_12  and  C_13
REMARK    6  A    between atoms: C_13  and  C_14
REMARK    7  A    between atoms: C_13  and  C_15
REMARK                            x       y       z     vdW  Elec       q    Type
REMARK                         _______ _______ _______ _____ _____    ______ ____
ROOT
ATOM      1  C   UNL     1       5.619   4.064  15.151  0.00  0.00    +0.000 C 
ATOM      2  N   UNL     1       4.828   4.146  16.360  0.00  0.00    +0.000 NA
ATOM      3  C   UNL     1       4.764   5.203  17.088  0.00  0.00    +0.000 C 
ATOM      4  N   UNL     1       4.122   5.269  18.296  0.00  0.00    +0.000 N 
ATOM      5  H   UNL     1       4.318   6.081  18.862  0.00  0.00    +0.000 HD
ENDROOT
BRANCH   4   6
ATOM      6  C   UNL     1       3.017   4.502  18.710  0.00  0.00    +0.000 A 
ATOM      7  C   UNL     1       1.976   4.161  17.838  0.00  0.00    +0.000 A 
ATOM      8  C   UNL     1       0.895   3.393  18.270  0.00  0.00    +0.000 A 
ATOM      9  C   UNL     1       0.854   2.919  19.577  0.00  0.00    +0.000 A 
ATOM     10  C   UNL     1       1.897   3.211  20.464  0.00  0.00    +0.000 A 
ATOM     11  C   UNL     1       1.880   2.669  21.860  0.00  0.00    +0.000 C 
ATOM     12  C   UNL     1       2.973   4.001  20.019  0.00  0.00    +0.000 A 
ENDBRANCH   4   6
BRANCH   3  13
ATOM     13  S   UNL     1       5.546   6.728  16.680  0.00  0.00    +0.000 S 
BRANCH  13  14
ATOM     14  C   UNL     1       6.858   6.765  17.964  0.00  0.00    +0.000 C 
ATOM     15  C   UNL     1       7.645   5.455  18.008  0.00  0.00    +0.000 C 
ATOM     16  C   UNL     1       7.806   7.925  17.656  0.00  0.00    +0.000 C 
ENDBRANCH  13  14
ENDBRANCH   3  13
TORSDOF 3
ENDMDL
MODEL 6
REMARK VINA RESULT:      -6.0      2.581      5.675
REMARK  Name = 
REMARK  7 active torsions:
REMARK  status: ('A' for Active; 'I' for Inactive)
REMARK    1  A    between atoms: C_1  and  N_2
REMARK    2  A    between atoms: C_3  and  S_12
REMARK    3  A    between atoms: N_4  and  C_5
REMARK    4  A    between atoms: C_9  and  C_10
REMARK    5  A    between atoms: S_12  and  C_13
REMARK    6  A    between atoms: C_13  and  C_14
REMARK    7  A    between atoms: C_13  and  C_15
REMARK                            x       y       z     vdW  Elec       q    Type
REMARK                         _______ _______ _______ _____ _____    ______ ____
ROOT
ATOM      1  C   UNL     1       2.117   7.968  18.882  0.00  0.00    +0.000 C 
ATOM      2  N   UNL     1       3.200   7.010  18.850  0.00  0.00    +0.000 NA
ATOM      3  C   UNL     1       3.136   5.859  19.416  0.00  0.00    +0.000 C 
ATOM      4  N   UNL     1       4.187   4.984  19.503  0.00  0.00    +0.000 N 
ATOM      5  H   UNL     1       4.074   4.213  20.144  0.00  0.00    +0.000 HD
ENDROOT
BRANCH   4   6
ATOM      6  C   UNL     1       5.266   4.865  18.608  0.00  0.00    +0.000 A 
ATOM      7  C   UNL     1       6.587   5.126  18.992  0.00  0.00    +0.000 A 
ATOM      8  C   UNL     1       7.641   4.994  18.090  0.00  0.00    +0.000 A 
ATOM      9  C   UNL     1       7.397   4.561  16.790  0.00  0.00    +0.000 A 
ATOM     10  C   UNL     1       6.092   4.256  16.385  0.00  0.00    +0.000 A 
ATOM     11  C   UNL     1       5.827   3.749  15.000  0.00  0.00    +0.000 C 
ATOM     12  C   UNL     1       5.037   4.410  17.302  0.00  0.00    +0.000 A 
ENDBRANCH   4   6
BRANCH   3  13
ATOM     13  S   UNL     1       1.701   5.237  20.227  0.00  0.00    +0.000 S 
BRANCH  13  14
ATOM     14  C   UNL     1       2.045   3.435  20.143  0.00  0.00    +0.000 C 
ATOM     15  C   UNL     1       1.837   2.754  21.495  0.00  0.00    +0.000 C 
ATOM     16  C   UNL     1       1.112   2.811  19.103  0.00  0.00    +0.000 C 
ENDBRANCH  13  14
ENDBRANCH   3  13
TORSDOF 3
ENDMDL
MODEL 7
REMARK VINA RESULT:      -6.0      1.704      3.312
REMARK  Name = 
REMARK  7 active torsions:
REMARK  status: ('A' for Active; 'I' for Inactive)
REMARK    1  A    between atoms: C_1  and  N_2
REMARK    2  A    between atoms: C_3  and  S_12
REMARK    3  A    between atoms: N_4  and  C_5
REMARK    4  A    between atoms: C_9  and  C_10
REMARK    5  A    between atoms: S_12  and  C_13
REMARK    6  A    between atoms: C_13  and  C_14
REMARK    7  A    between atoms: C_13  and  C_15
REMARK                            x       y       z     vdW  Elec       q    Type
REMARK                         _______ _______ _______ _____ _____    ______ ____
ROOT
ATOM      1  C   UNL     1       7.354   5.547  19.001  0.00  0.00    +0.000 C 
ATOM      2  N   UNL     1       5.909   5.595  18.994  0.00  0.00    +0.000 NA
ATOM      3  C   UNL     1       5.223   5.959  17.970  0.00  0.00    +0.000 C 
ATOM      4  N   UNL     1       3.864   6.129  17.973  0.00  0.00    +0.000 N 
ATOM      5  H   UNL     1       3.472   6.613  17.179  0.00  0.00    +0.000 HD
ENDROOT
BRANCH   4   6
ATOM      6  C   UNL     1       2.930   5.465  18.791  0.00  0.00    +0.000 A 
ATOM      7  C   UNL     1       2.462   6.016  19.989  0.00  0.00    +0.000 A 
ATOM      8  C   UNL     1       1.531   5.343  20.779  0.00  0.00    +0.000 A 
ATOM      9  C   UNL     1       1.020   4.117  20.363  0.00  0.00    +0.000 A 
ATOM     10  C   UNL     1       1.439   3.556  19.151  0.00  0.00    +0.000 A 
ATOM     11  C   UNL     1       0.863   2.257  18.677  0.00  0.00    +0.000 C 
ATOM     12  C   UNL     1       2.392   4.239  18.374  0.00  0.00    +0.000 A 
ENDBRANCH   4   6
BRANCH   3  13
ATOM     13  S   UNL     1       5.926   6.360  16.405  0.00  0.00    +0.000 S 
BRANCH  13  14
ATOM     14  C   UNL     1       6.413   4.684  15.837  0.00  0.00    +0.000 C 
ATOM     15  C   UNL     1       5.280   3.673  16.015  0.00  0.00    +0.000 C 
ATOM     16  C   UNL     1       6.803   4.766  14.360  0.00  0.00    +0.000 C 
ENDBRANCH  13  14
ENDBRANCH   3  13
TORSDOF 3
ENDMDL
MODEL 8
REMARK VINA RESULT:      -5.9      0.540      1.029
REMARK  Name = 
REMARK  7 active torsions:
REMARK  status: ('A' for Active; 'I' for Inactive)
REMARK    1  A    between atoms: C_1  and  N_2
REMARK    2  A    between atoms: C_3  and  S_12
REMARK    3  A    between atoms: N_4  and  C_5
REMARK    4  A    between atoms: C_9  and  C_10
REMARK    5  A    between atoms: S_12  and  C_13
REMARK    6  A    between atoms: C_13  and  C_14
REMARK    7  A    between atoms: C_13  and  C_15
REMARK                            x       y       z     vdW  Elec       q    Type
REMARK                         _______ _______ _______ _____ _____    ______ ____
ROOT
ATOM      1  C   UNL     1       5.425   4.597  14.533  0.00  0.00    +0.000 C 
ATOM      2  N   UNL     1       4.937   4.106  15.804  0.00  0.00    +0.000 NA
ATOM      3  C   UNL     1       5.679   3.995  16.846  0.00  0.00    +0.000 C 
ATOM      4  N   UNL     1       5.275   3.423  18.023  0.00  0.00    +0.000 N 
ATOM      5  H   UNL     1       6.002   3.208  18.688  0.00  0.00    +0.000 HD
ENDROOT
BRANCH   4   6
ATOM      6  C   UNL     1       3.963   3.370  18.531  0.00  0.00    +0.000 A 
ATOM      7  C   UNL     1       3.139   2.253  18.355  0.00  0.00    +0.000 A 
ATOM      8  C   UNL     1       1.846   2.220  18.874  0.00  0.00    +0.000 A 
ATOM      9  C   UNL     1       1.364   3.294  19.616  0.00  0.00    +0.000 A 
ATOM     10  C   UNL     1       2.177   4.412  19.843  0.00  0.00    +0.000 A 
ATOM     11  C   UNL     1       1.681   5.554  20.676  0.00  0.00    +0.000 C 
ATOM     12  C   UNL     1       3.473   4.437  19.298  0.00  0.00    +0.000 A 
ENDBRANCH   4   6
BRANCH   3  13
ATOM     13  S   UNL     1       7.364   4.505  16.915  0.00  0.00    +0.000 S 
BRANCH  13  14
ATOM     14  C   UNL     1       7.177   6.099  17.807  0.00  0.00    +0.000 C 
ATOM     15  C   UNL     1       5.820   6.747  17.534  0.00  0.00    +0.000 C 
ATOM     16  C   UNL     1       7.330   5.836  19.306  0.00  0.00    +0.000 C 
ENDBRANCH  13  14
ENDBRANCH   3  13
TORSDOF 3
ENDMDL
MODEL 9
REMARK VINA RESULT:      -5.8      1.327      2.099
REMARK  Name = 
REMARK  7 active torsions:
REMARK  status: ('A' for Active; 'I' for Inactive)
REMARK    1  A    between atoms: C_1  and  N_2
REMARK    2  A    between atoms: C_3  and  S_12
REMARK    3  A    between atoms: N_4  and  C_5
REMARK    4  A    between atoms: C_9  and  C_10
REMARK    5  A    between atoms: S_12  and  C_13
REMARK    6  A    between atoms: C_13  and  C_14
REMARK    7  A    between atoms: C_13  and  C_15
REMARK                            x       y       z     vdW  Elec       q    Type
REMARK                         _______ _______ _______ _____ _____    ______ ____
ROOT
ATOM      1  C   UNL     1       5.107   4.557  15.029  0.00  0.00    +0.000 C 
ATOM      2  N   UNL     1       4.739   4.454  16.424  0.00  0.00    +0.000 NA
ATOM      3  C   UNL     1       5.600   4.401  17.376  0.00  0.00    +0.000 C 
ATOM      4  N   UNL     1       5.284   4.184  18.691  0.00  0.00    +0.000 N 
ATOM      5  H   UNL     1       6.052   3.957  19.304  0.00  0.00    +0.000 HD
ENDROOT
BRANCH   4   6
ATOM      6  C   UNL     1       4.080   4.520  19.338  0.00  0.00    +0.000 A 
ATOM      7  C   UNL     1       3.536   5.808  19.280  0.00  0.00    +0.000 A 
ATOM      8  C   UNL     1       2.338   6.116  19.923  0.00  0.00    +0.000 A 
ATOM      9  C   UNL     1       1.639   5.126  20.607  0.00  0.00    +0.000 A 
ATOM     10  C   UNL     1       2.137   3.818  20.652  0.00  0.00    +0.000 A 
ATOM     11  C   UNL     1       1.369   2.738  21.351  0.00  0.00    +0.000 C 
ATOM     12  C   UNL     1       3.356   3.527  20.013  0.00  0.00    +0.000 A 
ENDBRANCH   4   6
BRANCH   3  13
ATOM     13  S   UNL     1       7.341   4.538  17.139  0.00  0.00    +0.000 S 
BRANCH  13  14
ATOM     14  C   UNL     1       7.591   6.290  17.626  0.00  0.00    +0.000 C 
ATOM     15  C   UNL     1       6.351   7.139  17.347  0.00  0.00    +0.000 C 
ATOM     16  C   UNL     1       7.921   6.336  19.119  0.00  0.00    +0.000 C 
ENDBRANCH  13  14
ENDBRANCH   3  13
TORSDOF 3
ENDMDL
