MODEL 1
REMARK VINA RESULT:      -7.3      0.000      0.000
REMARK  Name = 
REMARK  10 active torsions:
REMARK  status: ('A' for Active; 'I' for Inactive)
REMARK    1  A    between atoms: C_1  and  C_2
REMARK    2  A    between atoms: C_2  and  C_3
REMARK    3  A    between atoms: C_3  and  C_4
REMARK    4  A    between atoms: C_6  and  N_7
REMARK    5  A    between atoms: C_13  and  C_14
REMARK    6  A    between atoms: C_17  and  O_18
REMARK    7  A    between atoms: C_19  and  O_20
REMARK    8  A    between atoms: O_20  and  C_21
REMARK    9  A    between atoms: C_25  and  C_26
REMARK   10  A    between atoms: C_26  and  C_27
REMARK                            x       y       z     vdW  Elec       q    Type
REMARK                         _______ _______ _______ _____ _____    ______ ____
ROOT
ATOM      1  N   UNL     1       0.638   9.530  21.924  0.00  0.00    +0.000 NA
ATOM      2  C   UNL     1       1.028   9.176  20.748  0.00  0.00    +0.000 C 
ATOM      3  N   UNL     1       1.051   9.914  19.604  0.00  0.00    +0.000 N 
ATOM      4  C   UNL     1       1.668   9.385  18.516  0.00  0.00    +0.000 C 
ATOM      5  O   UNL     1       1.841   9.972  17.458  0.00  0.00    +0.000 OA
ATOM      6  C   UNL     1       2.121   7.999  18.812  0.00  0.00    +0.000 C 
ATOM      7  C   UNL     1       2.781   7.262  17.909  0.00  0.00    +0.000 C 
ATOM      8  S   UNL     1       1.677   7.578  20.427  0.00  0.00    +0.000 S 
ATOM      9  H   UNL     1       0.672  10.856  19.581  0.00  0.00    +0.000 HD
ENDROOT
BRANCH   7  10
ATOM     10  C   UNL     1       3.226   5.873  18.074  0.00  0.00    +0.000 A 
ATOM     11  C   UNL     1       2.321   4.823  17.903  0.00  0.00    +0.000 A 
ATOM     12  C   UNL     1       2.742   3.500  18.054  0.00  0.00    +0.000 A 
ATOM     13  C   UNL     1       4.073   3.215  18.374  0.00  0.00    +0.000 A 
ATOM     14  C   UNL     1       5.000   4.252  18.526  0.00  0.00    +0.000 A 
ATOM     15  C   UNL     1       4.562   5.579  18.373  0.00  0.00    +0.000 A 
BRANCH  13  16
ATOM     16  O   UNL     1       4.429   1.903  18.527  0.00  0.00    +0.000 OA
ATOM     17  H   UNL     1       4.778   1.769  19.422  0.00  0.00    +0.000 HD
ENDBRANCH  13  16
BRANCH  14  18
ATOM     18  O   UNL     1       6.336   4.157  18.817  0.00  0.00    +0.000 OA
ATOM     19  C   UNL     1       7.259   4.781  17.934  0.00  0.00    +0.000 C 
ENDBRANCH  14  18
ENDBRANCH   7  10
BRANCH   1  22
ATOM     20  C   UNL     1      -0.070  13.001  21.873  0.00  0.00    +0.000 A 
ATOM     21  N   UNL     1       0.714  11.894  21.584  0.00  0.00    +0.000 NA
ATOM     22  C   UNL     1       0.172  10.793  22.063  0.00  0.00    +0.000 A 
ATOM     23  S   UNL     1      -1.270  11.061  22.968  0.00  0.00    +0.000 S 
ATOM     24  C   UNL     1      -1.184  12.743  22.662  0.00  0.00    +0.000 A 
BRANCH  24  25
ATOM     25  C   UNL     1      -2.146  13.706  23.183  0.00  0.00    +0.000 C 
ATOM     26  C   UNL     1      -1.800  14.592  24.359  0.00  0.00    +0.000 C 
ATOM     27  O   UNL     1      -3.276  13.826  22.700  0.00  0.00    +0.000 OA
ENDBRANCH  24  25
BRANCH  20  28
ATOM     28  C   UNL     1       0.343  14.319  21.287  0.00  0.00    +0.000 C 
BRANCH  28  30
ATOM     29  C   UNL     1       0.554  14.954  18.859  0.00  0.00    +0.000 C 
ATOM     30  C   UNL     1      -0.404  14.624  19.991  0.00  0.00    +0.000 C 
ENDBRANCH  28  30
ENDBRANCH  20  28
ENDBRANCH   1  22
TORSDOF 7
ENDMDL
MODEL 2
REMARK VINA RESULT:      -7.3      0.856      1.904
REMARK  Name = 
REMARK  10 active torsions:
REMARK  status: ('A' for Active; 'I' for Inactive)
REMARK    1  A    between atoms: C_1  and  C_2
REMARK    2  A    between atoms: C_2  and  C_3
REMARK    3  A    between atoms: C_3  and  C_4
REMARK    4  A    between atoms: C_6  and  N_7
REMARK    5  A    between atoms: C_13  and  C_14
REMARK    6  A    between atoms: C_17  and  O_18
REMARK    7  A    between atoms: C_19  and  O_20
REMARK    8  A    between atoms: O_20  and  C_21
REMARK    9  A    between atoms: C_25  and  C_26
REMARK   10  A    between atoms: C_26  and  C_27
REMARK                            x       y       z     vdW  Elec       q    Type
REMARK                         _______ _______ _______ _____ _____    ______ ____
ROOT
ATOM      1  N   UNL     1       0.660   9.478  21.918  0.00  0.00    +0.000 NA
ATOM      2  C   UNL     1       1.068   9.048  20.774  0.00  0.00    +0.000 C 
ATOM      3  N   UNL     1       1.107   9.710  19.585  0.00  0.00    +0.000 N 
ATOM      4  C   UNL     1       1.741   9.113  18.543  0.00  0.00    +0.000 C 
ATOM      5  O   UNL     1       1.928   9.629  17.451  0.00  0.00    +0.000 OA
ATOM      6  C   UNL     1       2.192   7.750  18.936  0.00  0.00    +0.000 C 
ATOM      7  C   UNL     1       2.865   6.957  18.092  0.00  0.00    +0.000 C 
ATOM      8  S   UNL     1       1.725   7.434  20.568  0.00  0.00    +0.000 S 
ATOM      9  H   UNL     1       0.726  10.648  19.495  0.00  0.00    +0.000 HD
ENDROOT
BRANCH   7  10
ATOM     10  C   UNL     1       3.310   5.583  18.355  0.00  0.00    +0.000 A 
ATOM     11  C   UNL     1       4.584   5.347  18.875  0.00  0.00    +0.000 A 
ATOM     12  C   UNL     1       5.009   4.042  19.131  0.00  0.00    +0.000 A 
ATOM     13  C   UNL     1       4.161   2.961  18.874  0.00  0.00    +0.000 A 
ATOM     14  C   UNL     1       2.871   3.177  18.375  0.00  0.00    +0.000 A 
ATOM     15  C   UNL     1       2.458   4.496  18.120  0.00  0.00    +0.000 A 
BRANCH  13  16
ATOM     16  O   UNL     1       4.632   1.701  19.127  0.00  0.00    +0.000 OA
ATOM     17  H   UNL     1       5.122   1.706  19.964  0.00  0.00    +0.000 HD
ENDBRANCH  13  16
BRANCH  14  18
ATOM     18  O   UNL     1       1.909   2.247  18.084  0.00  0.00    +0.000 OA
ATOM     19  C   UNL     1       0.676   2.318  18.788  0.00  0.00    +0.000 C 
ENDBRANCH  14  18
ENDBRANCH   7  10
BRANCH   1  22
ATOM     20  C   UNL     1      -0.085  12.925  21.590  0.00  0.00    +0.000 A 
ATOM     21  N   UNL     1       0.692  11.800  21.359  0.00  0.00    +0.000 NA
ATOM     22  C   UNL     1       0.190  10.746  21.968  0.00  0.00    +0.000 A 
ATOM     23  S   UNL     1      -1.199  11.089  22.928  0.00  0.00    +0.000 S 
ATOM     24  C   UNL     1      -1.148  12.736  22.464  0.00  0.00    +0.000 A 
BRANCH  24  25
ATOM     25  C   UNL     1      -2.089  13.739  22.949  0.00  0.00    +0.000 C 
ATOM     26  C   UNL     1      -1.746  14.617  24.132  0.00  0.00    +0.000 C 
ATOM     27  O   UNL     1      -3.197  13.899  22.429  0.00  0.00    +0.000 OA
ENDBRANCH  24  25
BRANCH  20  28
ATOM     28  C   UNL     1       0.280  14.185  20.862  0.00  0.00    +0.000 C 
BRANCH  28  30
ATOM     29  C   UNL     1      -0.105  15.587  18.804  0.00  0.00    +0.000 C 
ATOM     30  C   UNL     1      -0.367  14.252  19.481  0.00  0.00    +0.000 C 
ENDBRANCH  28  30
ENDBRANCH  20  28
ENDBRANCH   1  22
TORSDOF 7
ENDMDL
MODEL 3
REMARK VINA RESULT:      -7.2      2.547      3.346
REMARK  Name = 
REMARK  10 active torsions:
REMARK  status: ('A' for Active; 'I' for Inactive)
REMARK    1  A    between atoms: C_1  and  C_2
REMARK    2  A    between atoms: C_2  and  C_3
REMARK    3  A    between atoms: C_3  and  C_4
REMARK    4  A    between atoms: C_6  and  N_7
REMARK    5  A    between atoms: C_13  and  C_14
REMARK    6  A    between atoms: C_17  and  O_18
REMARK    7  A    between atoms: C_19  and  O_20
REMARK    8  A    between atoms: O_20  and  C_21
REMARK    9  A    between atoms: C_25  and  C_26
REMARK   10  A    between atoms: C_26  and  C_27
REMARK                            x       y       z     vdW  Elec       q    Type
REMARK                         _______ _______ _______ _____ _____    ______ ____
ROOT
ATOM      1  N   UNL     1       0.928  10.448  18.275  0.00  0.00    +0.000 NA
ATOM      2  C   UNL     1       1.473   9.379  18.744  0.00  0.00    +0.000 C 
ATOM      3  N   UNL     1       1.237   8.757  19.931  0.00  0.00    +0.000 N 
ATOM      4  C   UNL     1       1.805   7.542  20.140  0.00  0.00    +0.000 C 
ATOM      5  O   UNL     1       1.605   6.836  21.117  0.00  0.00    +0.000 OA
ATOM      6  C   UNL     1       2.685   7.189  18.993  0.00  0.00    +0.000 C 
ATOM      7  C   UNL     1       3.349   6.026  18.941  0.00  0.00    +0.000 C 
ATOM      8  S   UNL     1       2.665   8.468  17.833  0.00  0.00    +0.000 S 
ATOM      9  H   UNL     1       0.606   9.162  20.618  0.00  0.00    +0.000 HD
ENDROOT
BRANCH   7  10
ATOM     10  C   UNL     1       4.279   5.600  17.890  0.00  0.00    +0.000 A 
ATOM     11  C   UNL     1       3.965   4.509  17.077  0.00  0.00    +0.000 A 
ATOM     12  C   UNL     1       4.846   4.103  16.072  0.00  0.00    +0.000 A 
ATOM     13  C   UNL     1       6.047   4.788  15.868  0.00  0.00    +0.000 A 
ATOM     14  C   UNL     1       6.370   5.899  16.656  0.00  0.00    +0.000 A 
ATOM     15  C   UNL     1       5.475   6.295  17.665  0.00  0.00    +0.000 A 
BRANCH  13  16
ATOM     16  O   UNL     1       6.882   4.340  14.881  0.00  0.00    +0.000 OA
ATOM     17  H   UNL     1       7.319   3.526  15.178  0.00  0.00    +0.000 HD
ENDBRANCH  13  16
BRANCH  14  18
ATOM     18  O   UNL     1       7.484   6.693  16.584  0.00  0.00    +0.000 OA
ATOM     19  C   UNL     1       7.647   7.707  17.568  0.00  0.00    +0.000 C 
ENDBRANCH  14  18
ENDBRANCH   7  10
BRANCH   1  22
ATOM     20  C   UNL     1      -1.011  12.005  20.798  0.00  0.00    +0.000 A 
ATOM     21  N   UNL     1       0.099  11.307  20.344  0.00  0.00    +0.000 NA
ATOM     22  C   UNL     1       0.006  11.062  19.054  0.00  0.00    +0.000 A 
ATOM     23  S   UNL     1      -1.475  11.584  18.346  0.00  0.00    +0.000 S 
ATOM     24  C   UNL     1      -2.003  12.214  19.848  0.00  0.00    +0.000 A 
BRANCH  24  25
ATOM     25  C   UNL     1      -3.302  12.847  20.043  0.00  0.00    +0.000 C 
ATOM     26  C   UNL     1      -4.573  12.169  19.585  0.00  0.00    +0.000 C 
ATOM     27  O   UNL     1      -3.413  13.957  20.572  0.00  0.00    +0.000 OA
ENDBRANCH  24  25
BRANCH  20  28
ATOM     28  C   UNL     1      -1.004  12.475  22.223  0.00  0.00    +0.000 C 
BRANCH  28  30
ATOM     29  C   UNL     1      -3.064  12.173  23.640  0.00  0.00    +0.000 C 
ATOM     30  C   UNL     1      -1.783  11.531  23.136  0.00  0.00    +0.000 C 
ENDBRANCH  28  30
ENDBRANCH  20  28
ENDBRANCH   1  22
TORSDOF 7
ENDMDL
MODEL 4
REMARK VINA RESULT:      -7.1      0.823      1.148
REMARK  Name = 
REMARK  10 active torsions:
REMARK  status: ('A' for Active; 'I' for Inactive)
REMARK    1  A    between atoms: C_1  and  C_2
REMARK    2  A    between atoms: C_2  and  C_3
REMARK    3  A    between atoms: C_3  and  C_4
REMARK    4  A    between atoms: C_6  and  N_7
REMARK    5  A    between atoms: C_13  and  C_14
REMARK    6  A    between atoms: C_17  and  O_18
REMARK    7  A    between atoms: C_19  and  O_20
REMARK    8  A    between atoms: O_20  and  C_21
REMARK    9  A    between atoms: C_25  and  C_26
REMARK   10  A    between atoms: C_26  and  C_27
REMARK                            x       y       z     vdW  Elec       q    Type
REMARK                         _______ _______ _______ _____ _____    ______ ____
ROOT
ATOM      1  N   UNL     1       0.598   9.698  21.953  0.00  0.00    +0.000 NA
ATOM      2  C   UNL     1       0.966   9.307  20.782  0.00  0.00    +0.000 C 
ATOM      3  N   UNL     1       0.954  10.004  19.613  0.00  0.00    +0.000 N 
ATOM      4  C   UNL     1       1.553   9.446  18.530  0.00  0.00    +0.000 C 
ATOM      5  O   UNL     1       1.694   9.997  17.448  0.00  0.00    +0.000 OA
ATOM      6  C   UNL     1       2.032   8.077  18.864  0.00  0.00    +0.000 C 
ATOM      7  C   UNL     1       2.681   7.317  17.972  0.00  0.00    +0.000 C 
ATOM      8  S   UNL     1       1.631   7.708  20.502  0.00  0.00    +0.000 S 
ATOM      9  H   UNL     1       0.561  10.940  19.566  0.00  0.00    +0.000 HD
ENDROOT
BRANCH   7  10
ATOM     10  C   UNL     1       3.149   5.941  18.176  0.00  0.00    +0.000 A 
ATOM     11  C   UNL     1       2.308   4.865  17.882  0.00  0.00    +0.000 A 
ATOM     12  C   UNL     1       2.752   3.554  18.069  0.00  0.00    +0.000 A 
ATOM     13  C   UNL     1       4.042   3.307  18.548  0.00  0.00    +0.000 A 
ATOM     14  C   UNL     1       4.908   4.371  18.826  0.00  0.00    +0.000 A 
ATOM     15  C   UNL     1       4.447   5.685  18.635  0.00  0.00    +0.000 A 
BRANCH  13  16
ATOM     16  O   UNL     1       4.421   2.005  18.729  0.00  0.00    +0.000 OA
ATOM     17  H   UNL     1       5.364   1.975  18.953  0.00  0.00    +0.000 HD
ENDBRANCH  13  16
BRANCH  14  18
ATOM     18  O   UNL     1       6.199   4.315  19.280  0.00  0.00    +0.000 OA
ATOM     19  C   UNL     1       6.999   5.485  19.169  0.00  0.00    +0.000 C 
ENDBRANCH  14  18
ENDBRANCH   7  10
BRANCH   1  22
ATOM     20  C   UNL     1      -0.148  13.158  21.811  0.00  0.00    +0.000 A 
ATOM     21  N   UNL     1       0.649  12.052  21.552  0.00  0.00    +0.000 NA
ATOM     22  C   UNL     1       0.118  10.959  22.059  0.00  0.00    +0.000 A 
ATOM     23  S   UNL     1      -1.327  11.234  22.956  0.00  0.00    +0.000 S 
ATOM     24  C   UNL     1      -1.259  12.909  22.606  0.00  0.00    +0.000 A 
BRANCH  24  25
ATOM     25  C   UNL     1      -2.233  13.875  23.100  0.00  0.00    +0.000 C 
ATOM     26  C   UNL     1      -3.391  14.321  22.237  0.00  0.00    +0.000 C 
ATOM     27  O   UNL     1      -2.144  14.372  24.226  0.00  0.00    +0.000 OA
ENDBRANCH  24  25
BRANCH  20  28
ATOM     28  C   UNL     1       0.251  14.465  21.191  0.00  0.00    +0.000 C 
BRANCH  28  30
ATOM     29  C   UNL     1       0.181  16.681  22.385  0.00  0.00    +0.000 C 
ATOM     30  C   UNL     1       0.945  15.382  22.195  0.00  0.00    +0.000 C 
ENDBRANCH  28  30
ENDBRANCH  20  28
ENDBRANCH   1  22
TORSDOF 7
ENDMDL
MODEL 5
REMARK VINA RESULT:      -7.0      2.172      9.992
REMARK  Name = 
REMARK  10 active torsions:
REMARK  status: ('A' for Active; 'I' for Inactive)
REMARK    1  A    between atoms: C_1  and  C_2
REMARK    2  A    between atoms: C_2  and  C_3
REMARK    3  A    between atoms: C_3  and  C_4
REMARK    4  A    between atoms: C_6  and  N_7
REMARK    5  A    between atoms: C_13  and  C_14
REMARK    6  A    between atoms: C_17  and  O_18
REMARK    7  A    between atoms: C_19  and  O_20
REMARK    8  A    between atoms: O_20  and  C_21
REMARK    9  A    between atoms: C_25  and  C_26
REMARK   10  A    between atoms: C_26  and  C_27
REMARK                            x       y       z     vdW  Elec       q    Type
REMARK                         _______ _______ _______ _____ _____    ______ ____
ROOT
ATOM      1  N   UNL     1       1.279   7.829  21.298  0.00  0.00    +0.000 NA
ATOM      2  C   UNL     1       0.711   8.921  20.918  0.00  0.00    +0.000 C 
ATOM      3  N   UNL     1       0.549   9.398  19.654  0.00  0.00    +0.000 N 
ATOM      4  C   UNL     1      -0.237  10.491  19.479  0.00  0.00    +0.000 C 
ATOM      5  O   UNL     1      -0.539  10.968  18.395  0.00  0.00    +0.000 OA
ATOM      6  C   UNL     1      -0.692  11.006  20.799  0.00  0.00    +0.000 C 
ATOM      7  C   UNL     1      -1.500  12.069  20.904  0.00  0.00    +0.000 C 
ATOM      8  S   UNL     1      -0.035  10.026  22.060  0.00  0.00    +0.000 S 
ATOM      9  H   UNL     1       0.955   8.915  18.857  0.00  0.00    +0.000 HD
ENDROOT
BRANCH   7  10
ATOM     10  C   UNL     1      -1.966  12.691  22.149  0.00  0.00    +0.000 A 
ATOM     11  C   UNL     1      -1.254  13.753  22.710  0.00  0.00    +0.000 A 
ATOM     12  C   UNL     1      -1.697  14.351  23.892  0.00  0.00    +0.000 A 
ATOM     13  C   UNL     1      -2.859  13.894  24.520  0.00  0.00    +0.000 A 
ATOM     14  C   UNL     1      -3.600  12.847  23.962  0.00  0.00    +0.000 A 
ATOM     15  C   UNL     1      -3.141  12.253  22.773  0.00  0.00    +0.000 A 
BRANCH  13  16
ATOM     16  O   UNL     1      -3.241  14.503  25.684  0.00  0.00    +0.000 OA
ATOM     17  H   UNL     1      -3.824  13.908  26.181  0.00  0.00    +0.000 HD
ENDBRANCH  13  16
BRANCH  14  18
ATOM     18  O   UNL     1      -4.762  12.289  24.427  0.00  0.00    +0.000 OA
ATOM     19  C   UNL     1      -5.994  12.839  23.981  0.00  0.00    +0.000 C 
ENDBRANCH  14  18
ENDBRANCH   7  10
BRANCH   1  22
ATOM     20  C   UNL     1       2.998   6.324  18.591  0.00  0.00    +0.000 A 
ATOM     21  N   UNL     1       2.613   7.412  19.361  0.00  0.00    +0.000 NA
ATOM     22  C   UNL     1       1.805   7.040  20.332  0.00  0.00    +0.000 A 
ATOM     23  S   UNL     1       1.398   5.366  20.301  0.00  0.00    +0.000 S 
ATOM     24  C   UNL     1       2.398   5.119  18.934  0.00  0.00    +0.000 A 
BRANCH  24  25
ATOM     25  C   UNL     1       2.549   3.830  18.269  0.00  0.00    +0.000 C 
ATOM     26  C   UNL     1       3.713   2.920  18.594  0.00  0.00    +0.000 C 
ATOM     27  O   UNL     1       1.750   3.440  17.414  0.00  0.00    +0.000 OA
ENDBRANCH  24  25
BRANCH  20  28
ATOM     28  C   UNL     1       4.021   6.557  17.519  0.00  0.00    +0.000 C 
BRANCH  28  30
ATOM     29  C   UNL     1       6.499   6.895  17.218  0.00  0.00    +0.000 C 
ATOM     30  C   UNL     1       5.418   6.130  17.963  0.00  0.00    +0.000 C 
ENDBRANCH  28  30
ENDBRANCH  20  28
ENDBRANCH   1  22
TORSDOF 7
ENDMDL
MODEL 6
REMARK VINA RESULT:      -6.9      1.029      2.088
REMARK  Name = 
REMARK  10 active torsions:
REMARK  status: ('A' for Active; 'I' for Inactive)
REMARK    1  A    between atoms: C_1  and  C_2
REMARK    2  A    between atoms: C_2  and  C_3
REMARK    3  A    between atoms: C_3  and  C_4
REMARK    4  A    between atoms: C_6  and  N_7
REMARK    5  A    between atoms: C_13  and  C_14
REMARK    6  A    between atoms: C_17  and  O_18
REMARK    7  A    between atoms: C_19  and  O_20
REMARK    8  A    between atoms: O_20  and  C_21
REMARK    9  A    between atoms: C_25  and  C_26
REMARK   10  A    between atoms: C_26  and  C_27
REMARK                            x       y       z     vdW  Elec       q    Type
REMARK                         _______ _______ _______ _____ _____    ______ ____
ROOT
ATOM      1  N   UNL     1       0.647   9.824  22.086  0.00  0.00    +0.000 NA
ATOM      2  C   UNL     1       1.009   9.333  20.951  0.00  0.00    +0.000 C 
ATOM      3  N   UNL     1       0.941   9.905  19.718  0.00  0.00    +0.000 N 
ATOM      4  C   UNL     1       1.543   9.266  18.683  0.00  0.00    +0.000 C 
ATOM      5  O   UNL     1       1.637   9.709  17.548  0.00  0.00    +0.000 OA
ATOM      6  C   UNL     1       2.091   7.961  19.142  0.00  0.00    +0.000 C 
ATOM      7  C   UNL     1       2.756   7.142  18.316  0.00  0.00    +0.000 C 
ATOM      8  S   UNL     1       1.741   7.743  20.818  0.00  0.00    +0.000 S 
ATOM      9  H   UNL     1       0.504  10.813  19.587  0.00  0.00    +0.000 HD
ENDROOT
BRANCH   7  10
ATOM     10  C   UNL     1       3.291   5.816  18.646  0.00  0.00    +0.000 A 
ATOM     11  C   UNL     1       4.667   5.585  18.601  0.00  0.00    +0.000 A 
ATOM     12  C   UNL     1       5.180   4.326  18.919  0.00  0.00    +0.000 A 
ATOM     13  C   UNL     1       4.321   3.288  19.291  0.00  0.00    +0.000 A 
ATOM     14  C   UNL     1       2.941   3.505  19.365  0.00  0.00    +0.000 A 
ATOM     15  C   UNL     1       2.439   4.777  19.040  0.00  0.00    +0.000 A 
BRANCH  13  16
ATOM     16  O   UNL     1       4.874   2.069  19.577  0.00  0.00    +0.000 OA
ATOM     17  H   UNL     1       4.717   1.465  18.834  0.00  0.00    +0.000 HD
ENDBRANCH  13  16
BRANCH  14  18
ATOM     18  O   UNL     1       1.962   2.617  19.726  0.00  0.00    +0.000 OA
ATOM     19  C   UNL     1       0.933   2.338  18.786  0.00  0.00    +0.000 C 
ENDBRANCH  14  18
ENDBRANCH   7  10
BRANCH   1  22
ATOM     20  C   UNL     1      -0.225  13.231  21.661  0.00  0.00    +0.000 A 
ATOM     21  N   UNL     1       0.629  12.147  21.526  0.00  0.00    +0.000 NA
ATOM     22  C   UNL     1       0.112  11.067  22.076  0.00  0.00    +0.000 A 
ATOM     23  S   UNL     1      -1.397  11.338  22.864  0.00  0.00    +0.000 S 
ATOM     24  C   UNL     1      -1.373  12.987  22.403  0.00  0.00    +0.000 A 
BRANCH  24  25
ATOM     25  C   UNL     1      -2.414  13.940  22.771  0.00  0.00    +0.000 C 
ATOM     26  C   UNL     1      -2.359  14.679  24.089  0.00  0.00    +0.000 C 
ATOM     27  O   UNL     1      -3.378  14.168  22.036  0.00  0.00    +0.000 OA
ENDBRANCH  24  25
BRANCH  20  28
ATOM     28  C   UNL     1       0.160  14.510  20.976  0.00  0.00    +0.000 C 
BRANCH  28  30
ATOM     29  C   UNL     1       0.802  16.229  22.702  0.00  0.00    +0.000 C 
ATOM     30  C   UNL     1       1.310  15.213  21.692  0.00  0.00    +0.000 C 
ENDBRANCH  28  30
ENDBRANCH  20  28
ENDBRANCH   1  22
TORSDOF 7
ENDMDL
MODEL 7
REMARK VINA RESULT:      -6.8      2.175      9.906
REMARK  Name = 
REMARK  10 active torsions:
REMARK  status: ('A' for Active; 'I' for Inactive)
REMARK    1  A    between atoms: C_1  and  C_2
REMARK    2  A    between atoms: C_2  and  C_3
REMARK    3  A    between atoms: C_3  and  C_4
REMARK    4  A    between atoms: C_6  and  N_7
REMARK    5  A    between atoms: C_13  and  C_14
REMARK    6  A    between atoms: C_17  and  O_18
REMARK    7  A    between atoms: C_19  and  O_20
REMARK    8  A    between atoms: O_20  and  C_21
REMARK    9  A    between atoms: C_25  and  C_26
REMARK   10  A    between atoms: C_26  and  C_27
REMARK                            x       y       z     vdW  Elec       q    Type
REMARK                         _______ _______ _______ _____ _____    ______ ____
ROOT
ATOM      1  N   UNL     1       1.802   6.693  20.828  0.00  0.00    +0.000 NA
ATOM      2  C   UNL     1       1.620   7.865  20.325  0.00  0.00    +0.000 C 
ATOM      3  N   UNL     1       1.917   8.306  19.072  0.00  0.00    +0.000 N 
ATOM      4  C   UNL     1       1.476   9.537  18.708  0.00  0.00    +0.000 C 
ATOM      5  O   UNL     1       1.592  10.018  17.590  0.00  0.00    +0.000 OA
ATOM      6  C   UNL     1       0.810  10.201  19.861  0.00  0.00    +0.000 C 
ATOM      7  C   UNL     1       0.265  11.420  19.759  0.00  0.00    +0.000 C 
ATOM      8  S   UNL     1       0.863   9.159  21.237  0.00  0.00    +0.000 S 
ATOM      9  H   UNL     1       2.403   7.709  18.409  0.00  0.00    +0.000 HD
ENDROOT
BRANCH   7  10
ATOM     10  C   UNL     1      -0.367  12.187  20.839  0.00  0.00    +0.000 A 
ATOM     11  C   UNL     1       0.315  13.251  21.433  0.00  0.00    +0.000 A 
ATOM     12  C   UNL     1      -0.285  13.986  22.458  0.00  0.00    +0.000 A 
ATOM     13  C   UNL     1      -1.574  13.667  22.894  0.00  0.00    +0.000 A 
ATOM     14  C   UNL     1      -2.283  12.619  22.295  0.00  0.00    +0.000 A 
ATOM     15  C   UNL     1      -1.666  11.887  21.267  0.00  0.00    +0.000 A 
BRANCH  13  16
ATOM     16  O   UNL     1      -2.109  14.408  23.912  0.00  0.00    +0.000 OA
ATOM     17  H   UNL     1      -2.112  13.878  24.725  0.00  0.00    +0.000 HD
ENDBRANCH  13  16
BRANCH  14  18
ATOM     18  O   UNL     1      -3.550  12.183  22.581  0.00  0.00    +0.000 OA
ATOM     19  C   UNL     1      -4.637  12.792  21.896  0.00  0.00    +0.000 C 
ENDBRANCH  14  18
ENDBRANCH   7  10
BRANCH   1  22
ATOM     20  C   UNL     1       3.820   4.703  18.702  0.00  0.00    +0.000 A 
ATOM     21  N   UNL     1       3.512   5.879  19.372  0.00  0.00    +0.000 NA
ATOM     22  C   UNL     1       2.377   5.763  20.030  0.00  0.00    +0.000 A 
ATOM     23  S   UNL     1       1.581   4.253  19.792  0.00  0.00    +0.000 S 
ATOM     24  C   UNL     1       2.854   3.709  18.784  0.00  0.00    +0.000 A 
BRANCH  24  25
ATOM     25  C   UNL     1       2.863   2.405  18.132  0.00  0.00    +0.000 C 
ATOM     26  C   UNL     1       3.741   1.286  18.647  0.00  0.00    +0.000 C 
ATOM     27  O   UNL     1       2.173   2.169  17.137  0.00  0.00    +0.000 OA
ENDBRANCH  24  25
BRANCH  20  28
ATOM     28  C   UNL     1       5.147   4.626  18.006  0.00  0.00    +0.000 C 
BRANCH  28  30
ATOM     29  C   UNL     1       5.737   3.835  15.688  0.00  0.00    +0.000 C 
ATOM     30  C   UNL     1       5.019   4.894  16.508  0.00  0.00    +0.000 C 
ENDBRANCH  28  30
ENDBRANCH  20  28
ENDBRANCH   1  22
TORSDOF 7
ENDMDL
MODEL 8
REMARK VINA RESULT:      -6.8      2.160      9.679
REMARK  Name = 
REMARK  10 active torsions:
REMARK  status: ('A' for Active; 'I' for Inactive)
REMARK    1  A    between atoms: C_1  and  C_2
REMARK    2  A    between atoms: C_2  and  C_3
REMARK    3  A    between atoms: C_3  and  C_4
REMARK    4  A    between atoms: C_6  and  N_7
REMARK    5  A    between atoms: C_13  and  C_14
REMARK    6  A    between atoms: C_17  and  O_18
REMARK    7  A    between atoms: C_19  and  O_20
REMARK    8  A    between atoms: O_20  and  C_21
REMARK    9  A    between atoms: C_25  and  C_26
REMARK   10  A    between atoms: C_26  and  C_27
REMARK                            x       y       z     vdW  Elec       q    Type
REMARK                         _______ _______ _______ _____ _____    ______ ____
ROOT
ATOM      1  N   UNL     1       1.713   6.685  20.885  0.00  0.00    +0.000 NA
ATOM      2  C   UNL     1       1.554   7.788  20.238  0.00  0.00    +0.000 C 
ATOM      3  N   UNL     1       2.110   8.166  19.054  0.00  0.00    +0.000 N 
ATOM      4  C   UNL     1       1.662   9.307  18.473  0.00  0.00    +0.000 C 
ATOM      5  O   UNL     1       2.007   9.714  17.373  0.00  0.00    +0.000 OA
ATOM      6  C   UNL     1       0.674   9.976  19.362  0.00  0.00    +0.000 C 
ATOM      7  C   UNL     1       0.062  11.115  19.011  0.00  0.00    +0.000 C 
ATOM      8  S   UNL     1       0.480   9.053  20.809  0.00  0.00    +0.000 S 
ATOM      9  H   UNL     1       2.798   7.579  18.589  0.00  0.00    +0.000 HD
ENDROOT
BRANCH   7  10
ATOM     10  C   UNL     1      -0.885  11.883  19.827  0.00  0.00    +0.000 A 
ATOM     11  C   UNL     1      -2.228  11.962  19.454  0.00  0.00    +0.000 A 
ATOM     12  C   UNL     1      -3.133  12.689  20.231  0.00  0.00    +0.000 A 
ATOM     13  C   UNL     1      -2.703  13.338  21.392  0.00  0.00    +0.000 A 
ATOM     14  C   UNL     1      -1.366  13.251  21.796  0.00  0.00    +0.000 A 
ATOM     15  C   UNL     1      -0.467  12.519  21.003  0.00  0.00    +0.000 A 
BRANCH  13  16
ATOM     16  O   UNL     1      -3.627  14.050  22.108  0.00  0.00    +0.000 OA
ATOM     17  H   UNL     1      -4.412  13.499  22.253  0.00  0.00    +0.000 HD
ENDBRANCH  13  16
BRANCH  14  18
ATOM     18  O   UNL     1      -0.780  13.804  22.905  0.00  0.00    +0.000 OA
ATOM     19  C   UNL     1      -0.315  15.144  22.818  0.00  0.00    +0.000 C 
ENDBRANCH  14  18
ENDBRANCH   7  10
BRANCH   1  22
ATOM     20  C   UNL     1       4.234   4.831  19.225  0.00  0.00    +0.000 A 
ATOM     21  N   UNL     1       3.561   6.004  19.532  0.00  0.00    +0.000 NA
ATOM     22  C   UNL     1       2.550   5.770  20.343  0.00  0.00    +0.000 A 
ATOM     23  S   UNL     1       2.311   4.100  20.699  0.00  0.00    +0.000 S 
ATOM     24  C   UNL     1       3.667   3.674  19.745  0.00  0.00    +0.000 A 
BRANCH  24  25
ATOM     25  C   UNL     1       4.105   2.299  19.537  0.00  0.00    +0.000 C 
ATOM     26  C   UNL     1       3.534   1.465  18.412  0.00  0.00    +0.000 C 
ATOM     27  O   UNL     1       4.938   1.761  20.271  0.00  0.00    +0.000 OA
ENDBRANCH  24  25
BRANCH  20  28
ATOM     28  C   UNL     1       5.490   4.941  18.412  0.00  0.00    +0.000 C 
BRANCH  28  30
ATOM     29  C   UNL     1       7.606   6.307  18.440  0.00  0.00    +0.000 C 
ATOM     30  C   UNL     1       6.670   5.427  19.250  0.00  0.00    +0.000 C 
ENDBRANCH  28  30
ENDBRANCH  20  28
ENDBRANCH   1  22
TORSDOF 7
ENDMDL
MODEL 9
REMARK VINA RESULT:      -6.8      2.140      9.866
REMARK  Name = 
REMARK  10 active torsions:
REMARK  status: ('A' for Active; 'I' for Inactive)
REMARK    1  A    between atoms: C_1  and  C_2
REMARK    2  A    between atoms: C_2  and  C_3
REMARK    3  A    between atoms: C_3  and  C_4
REMARK    4  A    between atoms: C_6  and  N_7
REMARK    5  A    between atoms: C_13  and  C_14
REMARK    6  A    between atoms: C_17  and  O_18
REMARK    7  A    between atoms: C_19  and  O_20
REMARK    8  A    between atoms: O_20  and  C_21
REMARK    9  A    between atoms: C_25  and  C_26
REMARK   10  A    between atoms: C_26  and  C_27
REMARK                            x       y       z     vdW  Elec       q    Type
REMARK                         _______ _______ _______ _____ _____    ______ ____
ROOT
ATOM      1  N   UNL     1       1.380   8.059  21.176  0.00  0.00    +0.000 NA
ATOM      2  C   UNL     1       0.737   9.112  20.802  0.00  0.00    +0.000 C 
ATOM      3  N   UNL     1       0.476   9.542  19.537  0.00  0.00    +0.000 N 
ATOM      4  C   UNL     1      -0.372  10.590  19.382  0.00  0.00    +0.000 C 
ATOM      5  O   UNL     1      -0.763  11.019  18.306  0.00  0.00    +0.000 OA
ATOM      6  C   UNL     1      -0.772  11.122  20.713  0.00  0.00    +0.000 C 
ATOM      7  C   UNL     1      -1.624  12.148  20.839  0.00  0.00    +0.000 C 
ATOM      8  S   UNL     1       0.008  10.213  21.957  0.00  0.00    +0.000 S 
ATOM      9  H   UNL     1       0.856   9.055  18.730  0.00  0.00    +0.000 HD
ENDROOT
BRANCH   7  10
ATOM     10  C   UNL     1      -2.044  12.784  22.092  0.00  0.00    +0.000 A 
ATOM     11  C   UNL     1      -3.293  12.489  22.643  0.00  0.00    +0.000 A 
ATOM     12  C   UNL     1      -3.694  13.089  23.839  0.00  0.00    +0.000 A 
ATOM     13  C   UNL     1      -2.847  13.984  24.498  0.00  0.00    +0.000 A 
ATOM     14  C   UNL     1      -1.582  14.275  23.975  0.00  0.00    +0.000 A 
ATOM     15  C   UNL     1      -1.192  13.666  22.770  0.00  0.00    +0.000 A 
BRANCH  13  16
ATOM     16  O   UNL     1      -3.295  14.556  25.657  0.00  0.00    +0.000 OA
ATOM     17  H   UNL     1      -2.544  14.946  26.132  0.00  0.00    +0.000 HD
ENDBRANCH  13  16
BRANCH  14  18
ATOM     18  O   UNL     1      -0.623  15.106  24.492  0.00  0.00    +0.000 OA
ATOM     19  C   UNL     1      -0.625  16.467  24.081  0.00  0.00    +0.000 C 
ENDBRANCH  14  18
ENDBRANCH   7  10
BRANCH   1  22
ATOM     20  C   UNL     1       2.953   6.568  18.374  0.00  0.00    +0.000 A 
ATOM     21  N   UNL     1       2.530   7.658  19.120  0.00  0.00    +0.000 NA
ATOM     22  C   UNL     1       1.885   7.268  20.201  0.00  0.00    +0.000 A 
ATOM     23  S   UNL     1       1.681   5.561  20.316  0.00  0.00    +0.000 S 
ATOM     24  C   UNL     1       2.544   5.331  18.855  0.00  0.00    +0.000 A 
BRANCH  24  25
ATOM     25  C   UNL     1       2.773   4.023  18.253  0.00  0.00    +0.000 C 
ATOM     26  C   UNL     1       3.953   3.173  18.667  0.00  0.00    +0.000 C 
ATOM     27  O   UNL     1       2.029   3.569  17.379  0.00  0.00    +0.000 OA
ENDBRANCH  24  25
BRANCH  20  28
ATOM     28  C   UNL     1       3.815   6.838  17.175  0.00  0.00    +0.000 C 
BRANCH  28  30
ATOM     29  C   UNL     1       5.854   5.600  16.366  0.00  0.00    +0.000 C 
ATOM     30  C   UNL     1       5.281   6.506  17.443  0.00  0.00    +0.000 C 
ENDBRANCH  28  30
ENDBRANCH  20  28
ENDBRANCH   1  22
TORSDOF 7
ENDMDL
