MODEL 1
REMARK VINA RESULT:      -8.3      0.000      0.000
REMARK  Name = 
REMARK  9 active torsions:
REMARK  status: ('A' for Active; 'I' for Inactive)
REMARK    1  A    between atoms: C_1  and  N_2
REMARK    2  A    between atoms: C_6  and  C_8
REMARK    3  A    between atoms: C_10  and  C_11
REMARK    4  A    between atoms: C_14  and  C_15
REMARK    5  A    between atoms: C_22  and  O_23
REMARK    6  A    between atoms: O_23  and  C_24
REMARK    7  A    between atoms: C_24  and  C_25
REMARK    8  A    between atoms: C_28  and  C_29
REMARK    9  A    between atoms: C_29  and  O_30
REMARK                            x       y       z     vdW  Elec       q    Type
REMARK                         _______ _______ _______ _____ _____    ______ ____
ROOT
ATOM      1  C   UNL     1      -0.571  10.180  19.234  0.00  0.00    +0.000 C 
ATOM      2  C   UNL     1       0.535   9.531  18.832  0.00  0.00    +0.000 C 
ATOM      3  C   UNL     1       1.593   9.092  19.796  0.00  0.00    +0.000 C 
ATOM      4  C   UNL     1       1.215   9.381  21.248  0.00  0.00    +0.000 C 
ATOM      5  C   UNL     1       0.420  10.679  21.318  0.00  0.00    +0.000 C 
ATOM      6  O   UNL     1      -0.785  10.517  20.557  0.00  0.00    +0.000 OA
ENDROOT
BRANCH   1  12
ATOM      7  C   UNL     1      -6.326  13.056  19.822  0.00  0.00    +0.000 C 
ATOM      8  N   UNL     1      -5.020  12.870  19.200  0.00  0.00    +0.000 NA
ATOM      9  C   UNL     1      -5.072  11.816  18.162  0.00  0.00    +0.000 C 
ATOM     10  C   UNL     1      -3.696  11.563  17.511  0.00  0.00    +0.000 C 
ATOM     11  N   UNL     1      -2.652  11.331  18.512  0.00  0.00    +0.000 N 
ATOM     12  C   UNL     1      -1.633  10.451  18.203  0.00  0.00    +0.000 C 
ATOM     13  O   UNL     1      -1.580   9.867  17.112  0.00  0.00    +0.000 OA
ATOM     14  C   UNL     1      -2.628  12.351  19.569  0.00  0.00    +0.000 C 
ATOM     15  C   UNL     1      -4.011  12.507  20.214  0.00  0.00    +0.000 C 
ENDBRANCH   1  12
BRANCH   3  16
ATOM     16  C   UNL     1       1.925   7.626  19.624  0.00  0.00    +0.000 A 
ATOM     17  C   UNL     1       2.485   7.168  18.426  0.00  0.00    +0.000 A 
ATOM     18  C   UNL     1       2.751   5.812  18.249  0.00  0.00    +0.000 A 
ATOM     19  C   UNL     1       2.467   4.888  19.267  0.00  0.00    +0.000 A 
ATOM     20  C   UNL     1       1.925   5.350  20.474  0.00  0.00    +0.000 A 
ATOM     21  C   UNL     1       1.658   6.705  20.651  0.00  0.00    +0.000 A 
BRANCH  19  22
ATOM     22  C   UNL     1       2.722   3.416  19.077  0.00  0.00    +0.000 C 
ATOM     23  F   UNL     1       3.655   3.145  18.124  0.00  0.00    +0.000 F 
ATOM     24  F   UNL     1       3.165   2.814  20.216  0.00  0.00    +0.000 F 
ATOM     25  F   UNL     1       1.601   2.738  18.705  0.00  0.00    +0.000 F 
ENDBRANCH  19  22
ENDBRANCH   3  16
BRANCH   5  26
ATOM     26  O   UNL     1       0.050  11.001  22.662  0.00  0.00    +0.000 OA
BRANCH  26  27
ATOM     27  C   UNL     1      -1.346  10.880  22.904  0.00  0.00    +0.000 C 
BRANCH  27  28
ATOM     28  C   UNL     1      -1.947  12.198  23.314  0.00  0.00    +0.000 A 
ATOM     29  C   UNL     1      -3.276  12.228  23.758  0.00  0.00    +0.000 A 
ATOM     30  C   UNL     1      -3.854  13.418  24.196  0.00  0.00    +0.000 A 
ATOM     31  C   UNL     1      -3.109  14.603  24.219  0.00  0.00    +0.000 A 
ATOM     32  C   UNL     1      -1.789  14.579  23.744  0.00  0.00    +0.000 A 
ATOM     33  C   UNL     1      -1.208  13.385  23.310  0.00  0.00    +0.000 A 
BRANCH  31  34
ATOM     34  C   UNL     1      -3.762  15.875  24.692  0.00  0.00    +0.000 C 
BRANCH  34  35
ATOM     35  O   UNL     1      -5.180  15.778  24.680  0.00  0.00    +0.000 OA
ATOM     36  H   UNL     1      -5.424  15.188  25.413  0.00  0.00    +0.000 HD
ENDBRANCH  34  35
ENDBRANCH  31  34
ENDBRANCH  27  28
ENDBRANCH  26  27
ENDBRANCH   5  26
TORSDOF 8
ENDMDL
MODEL 2
REMARK VINA RESULT:      -8.3      0.576      1.225
REMARK  Name = 
REMARK  9 active torsions:
REMARK  status: ('A' for Active; 'I' for Inactive)
REMARK    1  A    between atoms: C_1  and  N_2
REMARK    2  A    between atoms: C_6  and  C_8
REMARK    3  A    between atoms: C_10  and  C_11
REMARK    4  A    between atoms: C_14  and  C_15
REMARK    5  A    between atoms: C_22  and  O_23
REMARK    6  A    between atoms: O_23  and  C_24
REMARK    7  A    between atoms: C_24  and  C_25
REMARK    8  A    between atoms: C_28  and  C_29
REMARK    9  A    between atoms: C_29  and  O_30
REMARK                            x       y       z     vdW  Elec       q    Type
REMARK                         _______ _______ _______ _____ _____    ______ ____
ROOT
ATOM      1  C   UNL     1      -0.737  10.329  18.922  0.00  0.00    +0.000 C 
ATOM      2  C   UNL     1       0.407   9.803  18.449  0.00  0.00    +0.000 C 
ATOM      3  C   UNL     1       1.572   9.505  19.342  0.00  0.00    +0.000 C 
ATOM      4  C   UNL     1       1.262   9.776  20.813  0.00  0.00    +0.000 C 
ATOM      5  C   UNL     1       0.331  10.975  20.926  0.00  0.00    +0.000 C 
ATOM      6  O   UNL     1      -0.897  10.662  20.253  0.00  0.00    +0.000 OA
ENDROOT
BRANCH   1  12
ATOM      7  C   UNL     1      -6.632  12.820  19.801  0.00  0.00    +0.000 C 
ATOM      8  N   UNL     1      -5.366  12.689  19.088  0.00  0.00    +0.000 NA
ATOM      9  C   UNL     1      -5.416  11.570  18.120  0.00  0.00    +0.000 C 
ATOM     10  C   UNL     1      -4.079  11.375  17.377  0.00  0.00    +0.000 C 
ATOM     11  N   UNL     1      -2.947  11.281  18.303  0.00  0.00    +0.000 N 
ATOM     12  C   UNL     1      -1.891  10.458  17.965  0.00  0.00    +0.000 C 
ATOM     13  O   UNL     1      -1.877   9.811  16.908  0.00  0.00    +0.000 OA
ATOM     14  C   UNL     1      -2.921  12.365  19.294  0.00  0.00    +0.000 C 
ATOM     15  C   UNL     1      -4.260  12.463  20.037  0.00  0.00    +0.000 C 
ENDBRANCH   1  12
BRANCH   3  16
ATOM     16  C   UNL     1       2.057   8.084  19.161  0.00  0.00    +0.000 A 
ATOM     17  C   UNL     1       2.711   7.709  17.982  0.00  0.00    +0.000 A 
ATOM     18  C   UNL     1       3.120   6.389  17.796  0.00  0.00    +0.000 A 
ATOM     19  C   UNL     1       2.889   5.422  18.786  0.00  0.00    +0.000 A 
ATOM     20  C   UNL     1       2.253   5.803  19.976  0.00  0.00    +0.000 A 
ATOM     21  C   UNL     1       1.843   7.120  20.162  0.00  0.00    +0.000 A 
BRANCH  19  22
ATOM     22  C   UNL     1       3.299   3.987  18.585  0.00  0.00    +0.000 C 
ATOM     23  F   UNL     1       2.819   3.145  19.541  0.00  0.00    +0.000 F 
ATOM     24  F   UNL     1       2.869   3.486  17.394  0.00  0.00    +0.000 F 
ATOM     25  F   UNL     1       4.652   3.827  18.593  0.00  0.00    +0.000 F 
ENDBRANCH  19  22
ENDBRANCH   3  16
BRANCH   5  26
ATOM     26  O   UNL     1       0.018  11.277  22.289  0.00  0.00    +0.000 OA
BRANCH  26  27
ATOM     27  C   UNL     1      -1.347  11.046  22.617  0.00  0.00    +0.000 C 
BRANCH  27  28
ATOM     28  C   UNL     1      -1.972  12.262  23.246  0.00  0.00    +0.000 A 
ATOM     29  C   UNL     1      -1.231  13.450  23.307  0.00  0.00    +0.000 A 
ATOM     30  C   UNL     1      -1.792  14.612  23.834  0.00  0.00    +0.000 A 
ATOM     31  C   UNL     1      -3.114  14.618  24.293  0.00  0.00    +0.000 A 
ATOM     32  C   UNL     1      -3.844  13.421  24.263  0.00  0.00    +0.000 A 
ATOM     33  C   UNL     1      -3.284  12.257  23.729  0.00  0.00    +0.000 A 
BRANCH  31  34
ATOM     34  C   UNL     1      -3.690  15.887  24.863  0.00  0.00    +0.000 C 
BRANCH  34  35
ATOM     35  O   UNL     1      -5.102  15.945  24.706  0.00  0.00    +0.000 OA
ATOM     36  H   UNL     1      -5.310  15.463  23.887  0.00  0.00    +0.000 HD
ENDBRANCH  34  35
ENDBRANCH  31  34
ENDBRANCH  27  28
ENDBRANCH  26  27
ENDBRANCH   5  26
TORSDOF 8
ENDMDL
MODEL 3
REMARK VINA RESULT:      -8.2      5.275      9.639
REMARK  Name = 
REMARK  9 active torsions:
REMARK  status: ('A' for Active; 'I' for Inactive)
REMARK    1  A    between atoms: C_1  and  N_2
REMARK    2  A    between atoms: C_6  and  C_8
REMARK    3  A    between atoms: C_10  and  C_11
REMARK    4  A    between atoms: C_14  and  C_15
REMARK    5  A    between atoms: C_22  and  O_23
REMARK    6  A    between atoms: O_23  and  C_24
REMARK    7  A    between atoms: C_24  and  C_25
REMARK    8  A    between atoms: C_28  and  C_29
REMARK    9  A    between atoms: C_29  and  O_30
REMARK                            x       y       z     vdW  Elec       q    Type
REMARK                         _______ _______ _______ _____ _____    ______ ____
ROOT
ATOM      1  C   UNL     1       0.449  12.414  19.718  0.00  0.00    +0.000 C 
ATOM      2  C   UNL     1      -0.679  12.791  19.091  0.00  0.00    +0.000 C 
ATOM      3  C   UNL     1      -1.524  11.821  18.325  0.00  0.00    +0.000 C 
ATOM      4  C   UNL     1      -1.006  10.388  18.430  0.00  0.00    +0.000 C 
ATOM      5  C   UNL     1       0.516  10.398  18.490  0.00  0.00    +0.000 C 
ATOM      6  O   UNL     1       0.921  11.117  19.664  0.00  0.00    +0.000 OA
ENDROOT
BRANCH   1  12
ATOM      7  C   UNL     1       6.006  15.568  18.763  0.00  0.00    +0.000 C 
ATOM      8  N   UNL     1       4.582  15.501  19.072  0.00  0.00    +0.000 NA
ATOM      9  C   UNL     1       4.364  15.263  20.517  0.00  0.00    +0.000 C 
ATOM     10  C   UNL     1       2.868  15.146  20.875  0.00  0.00    +0.000 C 
ATOM     11  N   UNL     1       2.177  14.174  20.023  0.00  0.00    +0.000 N 
ATOM     12  C   UNL     1       1.147  13.438  20.573  0.00  0.00    +0.000 C 
ATOM     13  O   UNL     1       0.795  13.581  21.752  0.00  0.00    +0.000 OA
ATOM     14  C   UNL     1       2.428  14.381  18.590  0.00  0.00    +0.000 C 
ATOM     15  C   UNL     1       3.934  14.426  18.297  0.00  0.00    +0.000 C 
ENDBRANCH   1  12
BRANCH   3  16
ATOM     16  C   UNL     1      -2.972  11.888  18.758  0.00  0.00    +0.000 A 
ATOM     17  C   UNL     1      -3.324  12.555  19.937  0.00  0.00    +0.000 A 
ATOM     18  C   UNL     1      -4.652  12.580  20.359  0.00  0.00    +0.000 A 
ATOM     19  C   UNL     1      -5.653  11.944  19.609  0.00  0.00    +0.000 A 
ATOM     20  C   UNL     1      -5.303  11.294  18.418  0.00  0.00    +0.000 A 
ATOM     21  C   UNL     1      -3.977  11.268  17.996  0.00  0.00    +0.000 A 
BRANCH  19  22
ATOM     22  C   UNL     1      -7.087  11.938  20.070  0.00  0.00    +0.000 C 
ATOM     23  F   UNL     1      -7.664  10.706  20.035  0.00  0.00    +0.000 F 
ATOM     24  F   UNL     1      -7.222  12.378  21.352  0.00  0.00    +0.000 F 
ATOM     25  F   UNL     1      -7.881  12.743  19.311  0.00  0.00    +0.000 F 
ENDBRANCH  19  22
ENDBRANCH   3  16
BRANCH   5  26
ATOM     26  O   UNL     1       1.052   9.076  18.578  0.00  0.00    +0.000 OA
BRANCH  26  27
ATOM     27  C   UNL     1       2.212   8.885  17.777  0.00  0.00    +0.000 C 
BRANCH  27  28
ATOM     28  C   UNL     1       2.921   7.606  18.136  0.00  0.00    +0.000 A 
ATOM     29  C   UNL     1       2.495   6.888  19.262  0.00  0.00    +0.000 A 
ATOM     30  C   UNL     1       3.090   5.674  19.599  0.00  0.00    +0.000 A 
ATOM     31  C   UNL     1       4.111   5.139  18.804  0.00  0.00    +0.000 A 
ATOM     32  C   UNL     1       4.559   5.873  17.696  0.00  0.00    +0.000 A 
ATOM     33  C   UNL     1       3.959   7.088  17.355  0.00  0.00    +0.000 A 
BRANCH  31  34
ATOM     34  C   UNL     1       4.739   3.827  19.197  0.00  0.00    +0.000 C 
BRANCH  34  35
ATOM     35  O   UNL     1       6.085   3.729  18.747  0.00  0.00    +0.000 OA
ATOM     36  H   UNL     1       6.067   3.200  17.931  0.00  0.00    +0.000 HD
ENDBRANCH  34  35
ENDBRANCH  31  34
ENDBRANCH  27  28
ENDBRANCH  26  27
ENDBRANCH   5  26
TORSDOF 8
ENDMDL
MODEL 4
REMARK VINA RESULT:      -8.2      0.311      1.194
REMARK  Name = 
REMARK  9 active torsions:
REMARK  status: ('A' for Active; 'I' for Inactive)
REMARK    1  A    between atoms: C_1  and  N_2
REMARK    2  A    between atoms: C_6  and  C_8
REMARK    3  A    between atoms: C_10  and  C_11
REMARK    4  A    between atoms: C_14  and  C_15
REMARK    5  A    between atoms: C_22  and  O_23
REMARK    6  A    between atoms: O_23  and  C_24
REMARK    7  A    between atoms: C_24  and  C_25
REMARK    8  A    between atoms: C_28  and  C_29
REMARK    9  A    between atoms: C_29  and  O_30
REMARK                            x       y       z     vdW  Elec       q    Type
REMARK                         _______ _______ _______ _____ _____    ______ ____
ROOT
ATOM      1  C   UNL     1      -0.524  10.134  19.238  0.00  0.00    +0.000 C 
ATOM      2  C   UNL     1       0.567   9.469  18.821  0.00  0.00    +0.000 C 
ATOM      3  C   UNL     1       1.639   9.028  19.769  0.00  0.00    +0.000 C 
ATOM      4  C   UNL     1       1.293   9.337  21.224  0.00  0.00    +0.000 C 
ATOM      5  C   UNL     1       0.514  10.644  21.297  0.00  0.00    +0.000 C 
ATOM      6  O   UNL     1      -0.708  10.487  20.561  0.00  0.00    +0.000 OA
ENDROOT
BRANCH   1  12
ATOM      7  C   UNL     1      -6.218  13.114  19.901  0.00  0.00    +0.000 C 
ATOM      8  N   UNL     1      -4.928  12.896  19.254  0.00  0.00    +0.000 NA
ATOM      9  C   UNL     1      -5.020  11.826  18.236  0.00  0.00    +0.000 C 
ATOM     10  C   UNL     1      -3.663  11.540  17.559  0.00  0.00    +0.000 C 
ATOM     11  N   UNL     1      -2.601  11.307  18.541  0.00  0.00    +0.000 N 
ATOM     12  C   UNL     1      -1.604  10.406  18.226  0.00  0.00    +0.000 C 
ATOM     13  O   UNL     1      -1.584   9.802  17.144  0.00  0.00    +0.000 OA
ATOM     14  C   UNL     1      -2.537  12.344  19.580  0.00  0.00    +0.000 C 
ATOM     15  C   UNL     1      -3.904  12.533  20.252  0.00  0.00    +0.000 C 
ENDBRANCH   1  12
BRANCH   3  16
ATOM     16  C   UNL     1       1.952   7.557  19.606  0.00  0.00    +0.000 A 
ATOM     17  C   UNL     1       1.651   6.656  20.634  0.00  0.00    +0.000 A 
ATOM     18  C   UNL     1       1.978   5.308  20.502  0.00  0.00    +0.000 A 
ATOM     19  C   UNL     1       2.608   4.834  19.341  0.00  0.00    +0.000 A 
ATOM     20  C   UNL     1       2.890   5.733  18.304  0.00  0.00    +0.000 A 
ATOM     21  C   UNL     1       2.564   7.080  18.434  0.00  0.00    +0.000 A 
BRANCH  19  22
ATOM     22  C   UNL     1       2.993   3.385  19.200  0.00  0.00    +0.000 C 
ATOM     23  F   UNL     1       3.783   3.136  18.120  0.00  0.00    +0.000 F 
ATOM     24  F   UNL     1       3.681   2.922  20.280  0.00  0.00    +0.000 F 
ATOM     25  F   UNL     1       1.910   2.569  19.066  0.00  0.00    +0.000 F 
ENDBRANCH  19  22
ENDBRANCH   3  16
BRANCH   5  26
ATOM     26  O   UNL     1       0.174  10.984  22.644  0.00  0.00    +0.000 OA
BRANCH  26  27
ATOM     27  C   UNL     1      -1.202  10.786  22.943  0.00  0.00    +0.000 C 
BRANCH  27  28
ATOM     28  C   UNL     1      -1.891  12.091  23.241  0.00  0.00    +0.000 A 
ATOM     29  C   UNL     1      -1.198  13.289  23.021  0.00  0.00    +0.000 A 
ATOM     30  C   UNL     1      -1.817  14.519  23.235  0.00  0.00    +0.000 A 
ATOM     31  C   UNL     1      -3.151  14.580  23.654  0.00  0.00    +0.000 A 
ATOM     32  C   UNL     1      -3.834  13.380  23.905  0.00  0.00    +0.000 A 
ATOM     33  C   UNL     1      -3.216  12.147  23.686  0.00  0.00    +0.000 A 
BRANCH  31  34
ATOM     34  C   UNL     1      -3.792  15.923  23.883  0.00  0.00    +0.000 C 
BRANCH  34  35
ATOM     35  O   UNL     1      -4.338  16.034  25.191  0.00  0.00    +0.000 OA
ATOM     36  H   UNL     1      -5.249  16.359  25.085  0.00  0.00    +0.000 HD
ENDBRANCH  34  35
ENDBRANCH  31  34
ENDBRANCH  27  28
ENDBRANCH  26  27
ENDBRANCH   5  26
TORSDOF 8
ENDMDL
MODEL 5
REMARK VINA RESULT:      -8.1      1.669      2.421
REMARK  Name = 
REMARK  9 active torsions:
REMARK  status: ('A' for Active; 'I' for Inactive)
REMARK    1  A    between atoms: C_1  and  N_2
REMARK    2  A    between atoms: C_6  and  C_8
REMARK    3  A    between atoms: C_10  and  C_11
REMARK    4  A    between atoms: C_14  and  C_15
REMARK    5  A    between atoms: C_22  and  O_23
REMARK    6  A    between atoms: O_23  and  C_24
REMARK    7  A    between atoms: C_24  and  C_25
REMARK    8  A    between atoms: C_28  and  C_29
REMARK    9  A    between atoms: C_29  and  O_30
REMARK                            x       y       z     vdW  Elec       q    Type
REMARK                         _______ _______ _______ _____ _____    ______ ____
ROOT
ATOM      1  C   UNL     1      -1.774  11.288  18.354  0.00  0.00    +0.000 C 
ATOM      2  C   UNL     1      -0.779  10.528  17.866  0.00  0.00    +0.000 C 
ATOM      3  C   UNL     1       0.641  10.699  18.310  0.00  0.00    +0.000 C 
ATOM      4  C   UNL     1       0.784  11.742  19.417  0.00  0.00    +0.000 C 
ATOM      5  C   UNL     1      -0.227  12.860  19.198  0.00  0.00    +0.000 C 
ATOM      6  O   UNL     1      -1.547  12.300  19.267  0.00  0.00    +0.000 OA
ENDROOT
BRANCH   1  12
ATOM      7  C   UNL     1      -7.355  12.052  21.519  0.00  0.00    +0.000 C 
ATOM      8  N   UNL     1      -6.486  12.197  20.356  0.00  0.00    +0.000 NA
ATOM      9  C   UNL     1      -6.536  10.988  19.503  0.00  0.00    +0.000 C 
ATOM     10  C   UNL     1      -5.596  11.089  18.284  0.00  0.00    +0.000 C 
ATOM     11  N   UNL     1      -4.233  11.459  18.673  0.00  0.00    +0.000 N 
ATOM     12  C   UNL     1      -3.181  10.941  17.945  0.00  0.00    +0.000 C 
ATOM     13  O   UNL     1      -3.361  10.185  16.980  0.00  0.00    +0.000 OA
ATOM     14  C   UNL     1      -4.184  12.632  19.557  0.00  0.00    +0.000 C 
ATOM     15  C   UNL     1      -5.093  12.438  20.778  0.00  0.00    +0.000 C 
ENDBRANCH   1  12
BRANCH   3  16
ATOM     16  C   UNL     1       1.245   9.383  18.749  0.00  0.00    +0.000 A 
ATOM     17  C   UNL     1       1.934   8.585  17.829  0.00  0.00    +0.000 A 
ATOM     18  C   UNL     1       2.454   7.353  18.221  0.00  0.00    +0.000 A 
ATOM     19  C   UNL     1       2.299   6.897  19.539  0.00  0.00    +0.000 A 
ATOM     20  C   UNL     1       1.628   7.707  20.465  0.00  0.00    +0.000 A 
ATOM     21  C   UNL     1       1.107   8.937  20.074  0.00  0.00    +0.000 A 
BRANCH  19  22
ATOM     22  C   UNL     1       2.830   5.555  19.968  0.00  0.00    +0.000 C 
ATOM     23  F   UNL     1       2.432   5.186  21.216  0.00  0.00    +0.000 F 
ATOM     24  F   UNL     1       2.435   4.550  19.137  0.00  0.00    +0.000 F 
ATOM     25  F   UNL     1       4.192   5.515  19.984  0.00  0.00    +0.000 F 
ENDBRANCH  19  22
ENDBRANCH   3  16
BRANCH   5  26
ATOM     26  O   UNL     1      -0.127  13.870  20.205  0.00  0.00    +0.000 OA
BRANCH  26  27
ATOM     27  C   UNL     1       0.268  13.363  21.473  0.00  0.00    +0.000 C 
BRANCH  27  28
ATOM     28  C   UNL     1      -0.925  13.086  22.348  0.00  0.00    +0.000 A 
ATOM     29  C   UNL     1      -1.705  14.163  22.792  0.00  0.00    +0.000 A 
ATOM     30  C   UNL     1      -2.847  13.946  23.560  0.00  0.00    +0.000 A 
ATOM     31  C   UNL     1      -3.248  12.645  23.884  0.00  0.00    +0.000 A 
ATOM     32  C   UNL     1      -2.450  11.569  23.468  0.00  0.00    +0.000 A 
ATOM     33  C   UNL     1      -1.308  11.786  22.693  0.00  0.00    +0.000 A 
BRANCH  31  34
ATOM     34  C   UNL     1      -4.484  12.441  24.721  0.00  0.00    +0.000 C 
BRANCH  34  35
ATOM     35  O   UNL     1      -5.492  13.398  24.419  0.00  0.00    +0.000 OA
ATOM     36  H   UNL     1      -5.069  14.273  24.472  0.00  0.00    +0.000 HD
ENDBRANCH  34  35
ENDBRANCH  31  34
ENDBRANCH  27  28
ENDBRANCH  26  27
ENDBRANCH   5  26
TORSDOF 8
ENDMDL
MODEL 6
REMARK VINA RESULT:      -8.1      1.627      2.053
REMARK  Name = 
REMARK  9 active torsions:
REMARK  status: ('A' for Active; 'I' for Inactive)
REMARK    1  A    between atoms: C_1  and  N_2
REMARK    2  A    between atoms: C_6  and  C_8
REMARK    3  A    between atoms: C_10  and  C_11
REMARK    4  A    between atoms: C_14  and  C_15
REMARK    5  A    between atoms: C_22  and  O_23
REMARK    6  A    between atoms: O_23  and  C_24
REMARK    7  A    between atoms: C_24  and  C_25
REMARK    8  A    between atoms: C_28  and  C_29
REMARK    9  A    between atoms: C_29  and  O_30
REMARK                            x       y       z     vdW  Elec       q    Type
REMARK                         _______ _______ _______ _____ _____    ______ ____
ROOT
ATOM      1  C   UNL     1      -1.430  10.954  18.232  0.00  0.00    +0.000 C 
ATOM      2  C   UNL     1      -0.445  10.154  17.790  0.00  0.00    +0.000 C 
ATOM      3  C   UNL     1       0.961  10.275  18.290  0.00  0.00    +0.000 C 
ATOM      4  C   UNL     1       1.098  11.321  19.395  0.00  0.00    +0.000 C 
ATOM      5  C   UNL     1       0.139  12.474  19.128  0.00  0.00    +0.000 C 
ATOM      6  O   UNL     1      -1.202  11.964  19.147  0.00  0.00    +0.000 OA
ENDROOT
BRANCH   1  12
ATOM      7  C   UNL     1      -7.112  12.140  21.071  0.00  0.00    +0.000 C 
ATOM      8  N   UNL     1      -6.181  12.185  19.949  0.00  0.00    +0.000 NA
ATOM      9  C   UNL     1      -6.252  10.941  19.150  0.00  0.00    +0.000 C 
ATOM     10  C   UNL     1      -5.250  10.937  17.977  0.00  0.00    +0.000 C 
ATOM     11  N   UNL     1      -3.890  11.260  18.418  0.00  0.00    +0.000 N 
ATOM     12  C   UNL     1      -2.831  10.656  17.769  0.00  0.00    +0.000 C 
ATOM     13  O   UNL     1      -3.003   9.864  16.831  0.00  0.00    +0.000 OA
ATOM     14  C   UNL     1      -3.824  12.469  19.249  0.00  0.00    +0.000 C 
ATOM     15  C   UNL     1      -4.800  12.379  20.430  0.00  0.00    +0.000 C 
ENDBRANCH   1  12
BRANCH   3  16
ATOM     16  C   UNL     1       1.497   8.941  18.761  0.00  0.00    +0.000 A 
ATOM     17  C   UNL     1       2.149   8.089  17.862  0.00  0.00    +0.000 A 
ATOM     18  C   UNL     1       2.606   6.842  18.285  0.00  0.00    +0.000 A 
ATOM     19  C   UNL     1       2.423   6.424  19.612  0.00  0.00    +0.000 A 
ATOM     20  C   UNL     1       1.789   7.288  20.516  0.00  0.00    +0.000 A 
ATOM     21  C   UNL     1       1.332   8.533  20.095  0.00  0.00    +0.000 A 
BRANCH  19  22
ATOM     22  C   UNL     1       2.885   5.067  20.073  0.00  0.00    +0.000 C 
ATOM     23  F   UNL     1       4.233   4.895  19.988  0.00  0.00    +0.000 F 
ATOM     24  F   UNL     1       2.558   4.820  21.372  0.00  0.00    +0.000 F 
ATOM     25  F   UNL     1       2.333   4.056  19.347  0.00  0.00    +0.000 F 
ENDBRANCH  19  22
ENDBRANCH   3  16
BRANCH   5  26
ATOM     26  O   UNL     1       0.237  13.488  20.132  0.00  0.00    +0.000 OA
BRANCH  26  27
ATOM     27  C   UNL     1       0.348  12.965  21.450  0.00  0.00    +0.000 C 
BRANCH  27  28
ATOM     28  C   UNL     1      -0.973  13.009  22.170  0.00  0.00    +0.000 A 
ATOM     29  C   UNL     1      -1.476  11.830  22.736  0.00  0.00    +0.000 A 
ATOM     30  C   UNL     1      -2.670  11.838  23.456  0.00  0.00    +0.000 A 
ATOM     31  C   UNL     1      -3.377  13.031  23.644  0.00  0.00    +0.000 A 
ATOM     32  C   UNL     1      -2.890  14.205  23.049  0.00  0.00    +0.000 A 
ATOM     33  C   UNL     1      -1.691  14.198  22.333  0.00  0.00    +0.000 A 
BRANCH  31  34
ATOM     34  C   UNL     1      -4.667  13.009  24.421  0.00  0.00    +0.000 C 
BRANCH  34  35
ATOM     35  O   UNL     1      -4.931  11.724  24.970  0.00  0.00    +0.000 OA
ATOM     36  H   UNL     1      -5.719  11.820  25.533  0.00  0.00    +0.000 HD
ENDBRANCH  34  35
ENDBRANCH  31  34
ENDBRANCH  27  28
ENDBRANCH  26  27
ENDBRANCH   5  26
TORSDOF 8
ENDMDL
MODEL 7
REMARK VINA RESULT:      -8.1      3.561      6.897
REMARK  Name = 
REMARK  9 active torsions:
REMARK  status: ('A' for Active; 'I' for Inactive)
REMARK    1  A    between atoms: C_1  and  N_2
REMARK    2  A    between atoms: C_6  and  C_8
REMARK    3  A    between atoms: C_10  and  C_11
REMARK    4  A    between atoms: C_14  and  C_15
REMARK    5  A    between atoms: C_22  and  O_23
REMARK    6  A    between atoms: O_23  and  C_24
REMARK    7  A    between atoms: C_24  and  C_25
REMARK    8  A    between atoms: C_28  and  C_29
REMARK    9  A    between atoms: C_29  and  O_30
REMARK                            x       y       z     vdW  Elec       q    Type
REMARK                         _______ _______ _______ _____ _____    ______ ____
ROOT
ATOM      1  C   UNL     1       0.602  12.660  20.544  0.00  0.00    +0.000 C 
ATOM      2  C   UNL     1       0.938  11.401  20.874  0.00  0.00    +0.000 C 
ATOM      3  C   UNL     1       0.151  10.219  20.400  0.00  0.00    +0.000 C 
ATOM      4  C   UNL     1      -0.979  10.614  19.451  0.00  0.00    +0.000 C 
ATOM      5  C   UNL     1      -1.551  11.961  19.871  0.00  0.00    +0.000 C 
ATOM      6  O   UNL     1      -0.512  12.946  19.778  0.00  0.00    +0.000 OA
ENDROOT
BRANCH   1  12
ATOM      7  C   UNL     1       6.051  14.766  17.784  0.00  0.00    +0.000 C 
ATOM      8  N   UNL     1       4.723  14.956  18.359  0.00  0.00    +0.000 NA
ATOM      9  C   UNL     1       4.799  15.101  19.830  0.00  0.00    +0.000 C 
ATOM     10  C   UNL     1       3.408  15.262  20.478  0.00  0.00    +0.000 C 
ATOM     11  N   UNL     1       2.482  14.210  20.053  0.00  0.00    +0.000 N 
ATOM     12  C   UNL     1       1.539  13.763  20.957  0.00  0.00    +0.000 C 
ATOM     13  O   UNL     1       1.457  14.229  22.102  0.00  0.00    +0.000 OA
ATOM     14  C   UNL     1       2.439  14.033  18.595  0.00  0.00    +0.000 C 
ATOM     15  C   UNL     1       3.848  13.816  18.026  0.00  0.00    +0.000 C 
ENDBRANCH   1  12
BRANCH   3  16
ATOM     16  C   UNL     1       1.044   9.184  19.751  0.00  0.00    +0.000 A 
ATOM     17  C   UNL     1       1.522   8.101  20.497  0.00  0.00    +0.000 A 
ATOM     18  C   UNL     1       2.379   7.171  19.912  0.00  0.00    +0.000 A 
ATOM     19  C   UNL     1       2.771   7.303  18.571  0.00  0.00    +0.000 A 
ATOM     20  C   UNL     1       2.275   8.377  17.819  0.00  0.00    +0.000 A 
ATOM     21  C   UNL     1       1.419   9.307  18.402  0.00  0.00    +0.000 A 
BRANCH  19  22
ATOM     22  C   UNL     1       3.720   6.321  17.936  0.00  0.00    +0.000 C 
ATOM     23  F   UNL     1       4.665   5.847  18.794  0.00  0.00    +0.000 F 
ATOM     24  F   UNL     1       3.081   5.226  17.441  0.00  0.00    +0.000 F 
ATOM     25  F   UNL     1       4.405   6.862  16.890  0.00  0.00    +0.000 F 
ENDBRANCH  19  22
ENDBRANCH   3  16
BRANCH   5  26
ATOM     26  O   UNL     1      -2.622  12.372  19.018  0.00  0.00    +0.000 OA
BRANCH  26  27
ATOM     27  C   UNL     1      -3.588  11.352  18.797  0.00  0.00    +0.000 C 
BRANCH  27  28
ATOM     28  C   UNL     1      -3.582  10.893  17.363  0.00  0.00    +0.000 A 
ATOM     29  C   UNL     1      -4.336  11.606  16.420  0.00  0.00    +0.000 A 
ATOM     30  C   UNL     1      -4.317  11.245  15.074  0.00  0.00    +0.000 A 
ATOM     31  C   UNL     1      -3.526  10.177  14.636  0.00  0.00    +0.000 A 
ATOM     32  C   UNL     1      -2.798   9.443  15.585  0.00  0.00    +0.000 A 
ATOM     33  C   UNL     1      -2.813   9.808  16.934  0.00  0.00    +0.000 A 
BRANCH  31  34
ATOM     34  C   UNL     1      -3.530   9.807  13.177  0.00  0.00    +0.000 C 
BRANCH  34  35
ATOM     35  O   UNL     1      -2.216   9.577  12.685  0.00  0.00    +0.000 OA
ATOM     36  H   UNL     1      -1.900   8.759  13.107  0.00  0.00    +0.000 HD
ENDBRANCH  34  35
ENDBRANCH  31  34
ENDBRANCH  27  28
ENDBRANCH  26  27
ENDBRANCH   5  26
TORSDOF 8
ENDMDL
MODEL 8
REMARK VINA RESULT:      -8.1      2.152      3.268
REMARK  Name = 
REMARK  9 active torsions:
REMARK  status: ('A' for Active; 'I' for Inactive)
REMARK    1  A    between atoms: C_1  and  N_2
REMARK    2  A    between atoms: C_6  and  C_8
REMARK    3  A    between atoms: C_10  and  C_11
REMARK    4  A    between atoms: C_14  and  C_15
REMARK    5  A    between atoms: C_22  and  O_23
REMARK    6  A    between atoms: O_23  and  C_24
REMARK    7  A    between atoms: C_24  and  C_25
REMARK    8  A    between atoms: C_28  and  C_29
REMARK    9  A    between atoms: C_29  and  O_30
REMARK                            x       y       z     vdW  Elec       q    Type
REMARK                         _______ _______ _______ _____ _____    ______ ____
ROOT
ATOM      1  C   UNL     1      -1.962  11.915  19.916  0.00  0.00    +0.000 C 
ATOM      2  C   UNL     1      -0.832  11.607  19.256  0.00  0.00    +0.000 C 
ATOM      3  C   UNL     1       0.466  11.379  19.967  0.00  0.00    +0.000 C 
ATOM      4  C   UNL     1       0.317  11.444  21.486  0.00  0.00    +0.000 C 
ATOM      5  C   UNL     1      -0.735  12.483  21.851  0.00  0.00    +0.000 C 
ATOM      6  O   UNL     1      -1.990  12.078  21.287  0.00  0.00    +0.000 OA
ENDROOT
BRANCH   1  12
ATOM      7  C   UNL     1      -3.256   9.902  13.914  0.00  0.00    +0.000 C 
ATOM      8  N   UNL     1      -3.521   9.986  15.346  0.00  0.00    +0.000 NA
ATOM      9  C   UNL     1      -4.314  11.193  15.669  0.00  0.00    +0.000 C 
ATOM     10  C   UNL     1      -4.578  11.336  17.182  0.00  0.00    +0.000 C 
ATOM     11  N   UNL     1      -3.344  11.235  17.965  0.00  0.00    +0.000 N 
ATOM     12  C   UNL     1      -3.237  11.986  19.119  0.00  0.00    +0.000 C 
ATOM     13  O   UNL     1      -4.150  12.729  19.504  0.00  0.00    +0.000 OA
ATOM     14  C   UNL     1      -2.533  10.061  17.615  0.00  0.00    +0.000 C 
ATOM     15  C   UNL     1      -2.256  10.015  16.105  0.00  0.00    +0.000 C 
ENDBRANCH   1  12
BRANCH   3  16
ATOM     16  C   UNL     1       1.098  10.067  19.557  0.00  0.00    +0.000 A 
ATOM     17  C   UNL     1       1.504   9.865  18.233  0.00  0.00    +0.000 A 
ATOM     18  C   UNL     1       2.046   8.641  17.845  0.00  0.00    +0.000 A 
ATOM     19  C   UNL     1       2.196   7.598  18.772  0.00  0.00    +0.000 A 
ATOM     20  C   UNL     1       1.808   7.809  20.102  0.00  0.00    +0.000 A 
ATOM     21  C   UNL     1       1.266   9.030  20.491  0.00  0.00    +0.000 A 
BRANCH  19  22
ATOM     22  C   UNL     1       2.753   6.262  18.359  0.00  0.00    +0.000 C 
ATOM     23  F   UNL     1       1.830   5.444  17.781  0.00  0.00    +0.000 F 
ATOM     24  F   UNL     1       3.767   6.378  17.457  0.00  0.00    +0.000 F 
ATOM     25  F   UNL     1       3.264   5.562  19.410  0.00  0.00    +0.000 F 
ENDBRANCH  19  22
ENDBRANCH   3  16
BRANCH   5  26
ATOM     26  O   UNL     1      -0.905  12.590  23.267  0.00  0.00    +0.000 OA
BRANCH  26  27
ATOM     27  C   UNL     1      -1.598  13.767  23.663  0.00  0.00    +0.000 C 
BRANCH  27  28
ATOM     28  C   UNL     1      -3.086  13.546  23.683  0.00  0.00    +0.000 A 
ATOM     29  C   UNL     1      -3.608  12.515  24.476  0.00  0.00    +0.000 A 
ATOM     30  C   UNL     1      -4.984  12.310  24.563  0.00  0.00    +0.000 A 
ATOM     31  C   UNL     1      -5.871  13.145  23.875  0.00  0.00    +0.000 A 
ATOM     32  C   UNL     1      -5.348  14.156  23.055  0.00  0.00    +0.000 A 
ATOM     33  C   UNL     1      -3.969  14.365  22.972  0.00  0.00    +0.000 A 
BRANCH  31  34
ATOM     34  C   UNL     1      -7.352  12.895  23.983  0.00  0.00    +0.000 C 
BRANCH  34  35
ATOM     35  O   UNL     1      -7.675  11.526  23.778  0.00  0.00    +0.000 OA
ATOM     36  H   UNL     1      -8.378  11.504  23.105  0.00  0.00    +0.000 HD
ENDBRANCH  34  35
ENDBRANCH  31  34
ENDBRANCH  27  28
ENDBRANCH  26  27
ENDBRANCH   5  26
TORSDOF 8
ENDMDL
MODEL 9
REMARK VINA RESULT:      -8.1      5.143      9.531
REMARK  Name = 
REMARK  9 active torsions:
REMARK  status: ('A' for Active; 'I' for Inactive)
REMARK    1  A    between atoms: C_1  and  N_2
REMARK    2  A    between atoms: C_6  and  C_8
REMARK    3  A    between atoms: C_10  and  C_11
REMARK    4  A    between atoms: C_14  and  C_15
REMARK    5  A    between atoms: C_22  and  O_23
REMARK    6  A    between atoms: O_23  and  C_24
REMARK    7  A    between atoms: C_24  and  C_25
REMARK    8  A    between atoms: C_28  and  C_29
REMARK    9  A    between atoms: C_29  and  O_30
REMARK                            x       y       z     vdW  Elec       q    Type
REMARK                         _______ _______ _______ _____ _____    ______ ____
ROOT
ATOM      1  C   UNL     1       0.658  11.915  19.449  0.00  0.00    +0.000 C 
ATOM      2  C   UNL     1      -0.459  12.367  18.852  0.00  0.00    +0.000 C 
ATOM      3  C   UNL     1      -1.300  11.492  17.976  0.00  0.00    +0.000 C 
ATOM      4  C   UNL     1      -0.793  10.051  17.932  0.00  0.00    +0.000 C 
ATOM      5  C   UNL     1       0.727  10.042  18.012  0.00  0.00    +0.000 C 
ATOM      6  O   UNL     1       1.121  10.627  19.262  0.00  0.00    +0.000 OA
ENDROOT
BRANCH   1  12
ATOM      7  C   UNL     1       6.029  15.438  18.754  0.00  0.00    +0.000 C 
ATOM      8  N   UNL     1       4.625  15.258  19.106  0.00  0.00    +0.000 NA
ATOM      9  C   UNL     1       4.483  14.801  20.507  0.00  0.00    +0.000 C 
ATOM     10  C   UNL     1       3.011  14.561  20.902  0.00  0.00    +0.000 C 
ATOM     11  N   UNL     1       2.323  13.693  19.943  0.00  0.00    +0.000 N 
ATOM     12  C   UNL     1       1.351  12.835  20.418  0.00  0.00    +0.000 C 
ATOM     13  O   UNL     1       1.048  12.788  21.619  0.00  0.00    +0.000 OA
ATOM     14  C   UNL     1       2.500  14.118  18.548  0.00  0.00    +0.000 C 
ATOM     15  C   UNL     1       3.987  14.278  18.207  0.00  0.00    +0.000 C 
ENDBRANCH   1  12
BRANCH   3  16
ATOM     16  C   UNL     1      -2.754  11.523  18.394  0.00  0.00    +0.000 A 
ATOM     17  C   UNL     1      -3.703  10.769  17.695  0.00  0.00    +0.000 A 
ATOM     18  C   UNL     1      -5.048  10.831  18.052  0.00  0.00    +0.000 A 
ATOM     19  C   UNL     1      -5.471  11.644  19.115  0.00  0.00    +0.000 A 
ATOM     20  C   UNL     1      -4.516  12.383  19.827  0.00  0.00    +0.000 A 
ATOM     21  C   UNL     1      -3.172  12.322  19.472  0.00  0.00    +0.000 A 
BRANCH  19  22
ATOM     22  C   UNL     1      -6.925  11.742  19.491  0.00  0.00    +0.000 C 
ATOM     23  F   UNL     1      -7.146  12.465  20.623  0.00  0.00    +0.000 F 
ATOM     24  F   UNL     1      -7.674  12.333  18.519  0.00  0.00    +0.000 F 
ATOM     25  F   UNL     1      -7.490  10.523  19.712  0.00  0.00    +0.000 F 
ENDBRANCH  19  22
ENDBRANCH   3  16
BRANCH   5  26
ATOM     26  O   UNL     1       1.254   8.713  17.964  0.00  0.00    +0.000 OA
BRANCH  26  27
ATOM     27  C   UNL     1       1.906   8.324  19.167  0.00  0.00    +0.000 C 
BRANCH  27  28
ATOM     28  C   UNL     1       2.494   6.943  19.048  0.00  0.00    +0.000 A 
ATOM     29  C   UNL     1       2.235   6.007  20.059  0.00  0.00    +0.000 A 
ATOM     30  C   UNL     1       2.717   4.703  19.962  0.00  0.00    +0.000 A 
ATOM     31  C   UNL     1       3.452   4.299  18.841  0.00  0.00    +0.000 A 
ATOM     32  C   UNL     1       3.739   5.245  17.846  0.00  0.00    +0.000 A 
ATOM     33  C   UNL     1       3.251   6.551  17.940  0.00  0.00    +0.000 A 
BRANCH  31  34
ATOM     34  C   UNL     1       3.966   2.886  18.767  0.00  0.00    +0.000 C 
BRANCH  34  35
ATOM     35  O   UNL     1       5.098   2.689  19.605  0.00  0.00    +0.000 OA
ATOM     36  H   UNL     1       4.990   1.813  20.016  0.00  0.00    +0.000 HD
ENDBRANCH  34  35
ENDBRANCH  31  34
ENDBRANCH  27  28
ENDBRANCH  26  27
ENDBRANCH   5  26
TORSDOF 8
ENDMDL
