MODEL 1
REMARK VINA RESULT:      -8.3      0.000      0.000
REMARK  Name = 
REMARK  2 active torsions:
REMARK  status: ('A' for Active; 'I' for Inactive)
REMARK    1  A    between atoms: C_9  and  C_10
REMARK    2  A    between atoms: C_24  and  C_25
REMARK                            x       y       z     vdW  Elec       q    Type
REMARK                         _______ _______ _______ _____ _____    ______ ____
ROOT
ATOM      1  N   UNL     1      -2.141  11.863  16.725  0.00  0.00    +0.000 N 
ATOM      2  C   UNL     1      -1.584  11.909  17.949  0.00  0.00    +0.000 C 
ATOM      3  N   UNL     1      -1.898  11.178  18.958  0.00  0.00    +0.000 NA
ATOM      4  C   UNL     1      -1.033  11.658  20.068  0.00  0.00    +0.000 C 
ATOM      5  C   UNL     1      -0.104  12.689  19.392  0.00  0.00    +0.000 C 
ATOM      6  O   UNL     1      -0.593  12.817  18.056  0.00  0.00    +0.000 OA
ATOM      7  C   UNL     1      -1.896  12.322  21.134  0.00  0.00    +0.000 A 
ATOM      8  C   UNL     1      -2.770  13.386  20.812  0.00  0.00    +0.000 A 
ATOM      9  C   UNL     1      -3.583  14.019  21.774  0.00  0.00    +0.000 A 
ATOM     10  C   UNL     1      -3.497  13.540  23.089  0.00  0.00    +0.000 A 
ATOM     11  C   UNL     1      -2.631  12.499  23.430  0.00  0.00    +0.000 A 
ATOM     12  C   UNL     1      -1.837  11.893  22.457  0.00  0.00    +0.000 A 
ATOM     13  O   UNL     1      -1.027  10.881  22.902  0.00  0.00    +0.000 OA
ATOM     14  C   UNL     1      -0.291  10.190  21.986  0.00  0.00    +0.000 A 
ATOM     15  C   UNL     1       0.442   9.106  22.453  0.00  0.00    +0.000 A 
ATOM     16  N   UNL     1       1.219   8.318  21.673  0.00  0.00    +0.000 NA
ATOM     17  C   UNL     1       1.265   8.607  20.352  0.00  0.00    +0.000 A 
ATOM     18  C   UNL     1       0.558   9.680  19.808  0.00  0.00    +0.000 A 
ATOM     19  C   UNL     1      -0.238  10.495  20.632  0.00  0.00    +0.000 A 
ATOM     20  H   UNL     1      -2.634  11.002  16.525  0.00  0.00    +0.000 HD
ATOM     21  H   UNL     1      -1.565  12.216  15.972  0.00  0.00    +0.000 HD
ENDROOT
BRANCH   9  22
ATOM     22  C   UNL     1      -4.486  15.135  21.405  0.00  0.00    +0.000 A 
ATOM     23  C   UNL     1      -3.999  16.433  21.170  0.00  0.00    +0.000 A 
ATOM     24  C   UNL     1      -4.865  17.473  20.834  0.00  0.00    +0.000 A 
ATOM     25  C   UNL     1      -6.214  17.193  20.723  0.00  0.00    +0.000 A 
ATOM     26  N   UNL     1      -6.739  15.972  20.931  0.00  0.00    +0.000 NA
ATOM     27  C   UNL     1      -5.873  14.985  21.269  0.00  0.00    +0.000 A 
ATOM     28  F   UNL     1      -6.435  13.786  21.501  0.00  0.00    +0.000 F 
ENDBRANCH   9  22
BRANCH  17  29
ATOM     29  C   UNL     1       2.103   7.733  19.510  0.00  0.00    +0.000 C 
ATOM     30  C   UNL     1       2.486   6.513  19.931  0.00  0.00    +0.000 C 
ATOM     31  C   UNL     1       3.270   5.563  19.078  0.00  0.00    +0.000 C 
ATOM     32  O   UNL     1       3.303   5.965  17.705  0.00  0.00    +0.000 OA
ATOM     33  C   UNL     1       3.643   7.344  17.569  0.00  0.00    +0.000 C 
ATOM     34  C   UNL     1       2.530   8.217  18.148  0.00  0.00    +0.000 C 
ENDBRANCH  17  29
TORSDOF 2
ENDMDL
MODEL 2
REMARK VINA RESULT:      -8.2      0.948      1.158
REMARK  Name = 
REMARK  2 active torsions:
REMARK  status: ('A' for Active; 'I' for Inactive)
REMARK    1  A    between atoms: C_9  and  C_10
REMARK    2  A    between atoms: C_24  and  C_25
REMARK                            x       y       z     vdW  Elec       q    Type
REMARK                         _______ _______ _______ _____ _____    ______ ____
ROOT
ATOM      1  N   UNL     1      -2.285  11.728  16.653  0.00  0.00    +0.000 N 
ATOM      2  C   UNL     1      -1.710  11.829  17.866  0.00  0.00    +0.000 C 
ATOM      3  N   UNL     1      -1.999  11.134  18.907  0.00  0.00    +0.000 NA
ATOM      4  C   UNL     1      -1.124  11.667  19.984  0.00  0.00    +0.000 C 
ATOM      5  C   UNL     1      -0.218  12.682  19.254  0.00  0.00    +0.000 C 
ATOM      6  O   UNL     1      -0.729  12.752  17.922  0.00  0.00    +0.000 OA
ATOM      7  C   UNL     1      -1.978  12.361  21.037  0.00  0.00    +0.000 A 
ATOM      8  C   UNL     1      -2.871  13.401  20.688  0.00  0.00    +0.000 A 
ATOM      9  C   UNL     1      -3.677  14.062  21.637  0.00  0.00    +0.000 A 
ATOM     10  C   UNL     1      -3.564  13.635  22.969  0.00  0.00    +0.000 A 
ATOM     11  C   UNL     1      -2.681  12.618  23.336  0.00  0.00    +0.000 A 
ATOM     12  C   UNL     1      -1.894  11.986  22.375  0.00  0.00    +0.000 A 
ATOM     13  O   UNL     1      -1.065  11.001  22.846  0.00  0.00    +0.000 OA
ATOM     14  C   UNL     1      -0.334  10.283  21.945  0.00  0.00    +0.000 A 
ATOM     15  C   UNL     1       0.420   9.228  22.442  0.00  0.00    +0.000 A 
ATOM     16  N   UNL     1       1.194   8.419  21.682  0.00  0.00    +0.000 NA
ATOM     17  C   UNL     1       1.217   8.658  20.350  0.00  0.00    +0.000 A 
ATOM     18  C   UNL     1       0.488   9.699  19.776  0.00  0.00    +0.000 A 
ATOM     19  C   UNL     1      -0.306  10.536  20.580  0.00  0.00    +0.000 A 
ATOM     20  H   UNL     1      -2.770  10.854  16.494  0.00  0.00    +0.000 HD
ATOM     21  H   UNL     1      -1.724  12.059  15.878  0.00  0.00    +0.000 HD
ENDROOT
BRANCH   9  22
ATOM     22  C   UNL     1      -4.600  15.152  21.239  0.00  0.00    +0.000 A 
ATOM     23  C   UNL     1      -5.824  14.887  20.601  0.00  0.00    +0.000 A 
ATOM     24  C   UNL     1      -6.674  15.926  20.224  0.00  0.00    +0.000 A 
ATOM     25  C   UNL     1      -6.290  17.224  20.508  0.00  0.00    +0.000 A 
ATOM     26  N   UNL     1      -5.134  17.539  21.118  0.00  0.00    +0.000 NA
ATOM     27  C   UNL     1      -4.323  16.508  21.461  0.00  0.00    +0.000 A 
ATOM     28  F   UNL     1      -3.163  16.861  22.041  0.00  0.00    +0.000 F 
ENDBRANCH   9  22
BRANCH  17  29
ATOM     29  C   UNL     1       2.052   7.761  19.529  0.00  0.00    +0.000 C 
ATOM     30  C   UNL     1       2.419   6.544  19.973  0.00  0.00    +0.000 C 
ATOM     31  C   UNL     1       3.200   5.573  19.142  0.00  0.00    +0.000 C 
ATOM     32  O   UNL     1       3.249   5.952  17.763  0.00  0.00    +0.000 OA
ATOM     33  C   UNL     1       3.605   7.325  17.608  0.00  0.00    +0.000 C 
ATOM     34  C   UNL     1       2.497   8.219  18.164  0.00  0.00    +0.000 C 
ENDBRANCH  17  29
TORSDOF 2
ENDMDL
MODEL 3
REMARK VINA RESULT:      -7.9      3.712      9.282
REMARK  Name = 
REMARK  2 active torsions:
REMARK  status: ('A' for Active; 'I' for Inactive)
REMARK    1  A    between atoms: C_9  and  C_10
REMARK    2  A    between atoms: C_24  and  C_25
REMARK                            x       y       z     vdW  Elec       q    Type
REMARK                         _______ _______ _______ _____ _____    ______ ____
ROOT
ATOM      1  N   UNL     1       2.529  12.113  17.543  0.00  0.00    +0.000 N 
ATOM      2  C   UNL     1       1.788  11.219  18.224  0.00  0.00    +0.000 C 
ATOM      3  N   UNL     1       2.022  10.777  19.407  0.00  0.00    +0.000 NA
ATOM      4  C   UNL     1       0.948   9.783  19.670  0.00  0.00    +0.000 C 
ATOM      5  C   UNL     1       0.025   9.905  18.438  0.00  0.00    +0.000 C 
ATOM      6  O   UNL     1       0.697  10.800  17.551  0.00  0.00    +0.000 OA
ATOM      7  C   UNL     1       1.555   8.390  19.757  0.00  0.00    +0.000 A 
ATOM      8  C   UNL     1       2.344   7.866  18.706  0.00  0.00    +0.000 A 
ATOM      9  C   UNL     1       2.923   6.581  18.757  0.00  0.00    +0.000 A 
ATOM     10  C   UNL     1       2.688   5.828  19.917  0.00  0.00    +0.000 A 
ATOM     11  C   UNL     1       1.902   6.322  20.960  0.00  0.00    +0.000 A 
ATOM     12  C   UNL     1       1.341   7.595  20.880  0.00  0.00    +0.000 A 
ATOM     13  O   UNL     1       0.591   7.978  21.961  0.00  0.00    +0.000 OA
ATOM     14  C   UNL     1       0.088   9.246  21.984  0.00  0.00    +0.000 A 
ATOM     15  C   UNL     1      -0.582   9.638  23.135  0.00  0.00    +0.000 A 
ATOM     16  N   UNL     1      -1.136  10.860  23.317  0.00  0.00    +0.000 NA
ATOM     17  C   UNL     1      -1.010  11.753  22.308  0.00  0.00    +0.000 A 
ATOM     18  C   UNL     1      -0.352  11.433  21.120  0.00  0.00    +0.000 A 
ATOM     19  C   UNL     1       0.211  10.157  20.943  0.00  0.00    +0.000 A 
ATOM     20  H   UNL     1       3.141  12.673  18.123  0.00  0.00    +0.000 HD
ATOM     21  H   UNL     1       2.040  12.618  16.815  0.00  0.00    +0.000 HD
ENDROOT
BRANCH   9  22
ATOM     22  C   UNL     1       3.741   6.060  17.636  0.00  0.00    +0.000 A 
ATOM     23  C   UNL     1       4.543   6.906  16.852  0.00  0.00    +0.000 A 
ATOM     24  C   UNL     1       5.298   6.399  15.795  0.00  0.00    +0.000 A 
ATOM     25  C   UNL     1       5.249   5.040  15.546  0.00  0.00    +0.000 A 
ATOM     26  N   UNL     1       4.504   4.180  16.263  0.00  0.00    +0.000 NA
ATOM     27  C   UNL     1       3.771   4.706  17.276  0.00  0.00    +0.000 A 
ATOM     28  F   UNL     1       3.014   3.823  17.951  0.00  0.00    +0.000 F 
ENDBRANCH   9  22
BRANCH  17  29
ATOM     29  C   UNL     1      -1.603  13.086  22.522  0.00  0.00    +0.000 C 
ATOM     30  C   UNL     1      -2.938  13.266  22.530  0.00  0.00    +0.000 C 
ATOM     31  C   UNL     1      -3.582  14.587  22.820  0.00  0.00    +0.000 C 
ATOM     32  O   UNL     1      -2.661  15.533  23.370  0.00  0.00    +0.000 OA
ATOM     33  C   UNL     1      -1.451  15.588  22.614  0.00  0.00    +0.000 C 
ATOM     34  C   UNL     1      -0.693  14.267  22.743  0.00  0.00    +0.000 C 
ENDBRANCH  17  29
TORSDOF 2
ENDMDL
MODEL 4
REMARK VINA RESULT:      -7.7      3.136      4.701
REMARK  Name = 
REMARK  2 active torsions:
REMARK  status: ('A' for Active; 'I' for Inactive)
REMARK    1  A    between atoms: C_9  and  C_10
REMARK    2  A    between atoms: C_24  and  C_25
REMARK                            x       y       z     vdW  Elec       q    Type
REMARK                         _______ _______ _______ _____ _____    ______ ____
ROOT
ATOM      1  N   UNL     1       0.451   9.346  24.261  0.00  0.00    +0.000 N 
ATOM      2  C   UNL     1       0.378   9.393  22.918  0.00  0.00    +0.000 C 
ATOM      3  N   UNL     1       1.335   9.688  22.112  0.00  0.00    +0.000 NA
ATOM      4  C   UNL     1       0.725   9.650  20.756  0.00  0.00    +0.000 C 
ATOM      5  C   UNL     1      -0.708   9.134  21.012  0.00  0.00    +0.000 C 
ATOM      6  O   UNL     1      -0.838   9.071  22.432  0.00  0.00    +0.000 OA
ATOM      7  C   UNL     1       0.698  11.056  20.171  0.00  0.00    +0.000 A 
ATOM      8  C   UNL     1       0.085  12.127  20.862  0.00  0.00    +0.000 A 
ATOM      9  C   UNL     1       0.046  13.440  20.349  0.00  0.00    +0.000 A 
ATOM     10  C   UNL     1       0.658  13.651  19.105  0.00  0.00    +0.000 A 
ATOM     11  C   UNL     1       1.259  12.605  18.401  0.00  0.00    +0.000 A 
ATOM     12  C   UNL     1       1.279  11.316  18.933  0.00  0.00    +0.000 A 
ATOM     13  O   UNL     1       1.896  10.369  18.159  0.00  0.00    +0.000 OA
ATOM     14  C   UNL     1       2.028   9.107  18.661  0.00  0.00    +0.000 A 
ATOM     15  C   UNL     1       2.745   8.195  17.898  0.00  0.00    +0.000 A 
ATOM     16  N   UNL     1       2.969   6.909  18.255  0.00  0.00    +0.000 NA
ATOM     17  C   UNL     1       2.465   6.501  19.443  0.00  0.00    +0.000 A 
ATOM     18  C   UNL     1       1.733   7.357  20.265  0.00  0.00    +0.000 A 
ATOM     19  C   UNL     1       1.502   8.689  19.877  0.00  0.00    +0.000 A 
ATOM     20  H   UNL     1       1.392   9.259  24.623  0.00  0.00    +0.000 HD
ATOM     21  H   UNL     1      -0.242   8.764  24.713  0.00  0.00    +0.000 HD
ENDROOT
BRANCH   9  22
ATOM     22  C   UNL     1      -0.609  14.539  21.096  0.00  0.00    +0.000 A 
ATOM     23  C   UNL     1      -1.948  14.898  20.860  0.00  0.00    +0.000 A 
ATOM     24  C   UNL     1      -2.544  15.942  21.566  0.00  0.00    +0.000 A 
ATOM     25  C   UNL     1      -1.791  16.608  22.514  0.00  0.00    +0.000 A 
ATOM     26  N   UNL     1      -0.508  16.309  22.787  0.00  0.00    +0.000 NA
ATOM     27  C   UNL     1       0.048  15.297  22.076  0.00  0.00    +0.000 A 
ATOM     28  F   UNL     1       1.339  15.046  22.352  0.00  0.00    +0.000 F 
ENDBRANCH   9  22
BRANCH  17  29
ATOM     29  C   UNL     1       2.727   5.102  19.830  0.00  0.00    +0.000 C 
ATOM     30  C   UNL     1       2.134   4.550  20.906  0.00  0.00    +0.000 C 
ATOM     31  C   UNL     1       2.312   3.113  21.288  0.00  0.00    +0.000 C 
ATOM     32  O   UNL     1       2.918   2.342  20.246  0.00  0.00    +0.000 OA
ATOM     33  C   UNL     1       4.076   2.990  19.720  0.00  0.00    +0.000 C 
ATOM     34  C   UNL     1       3.673   4.276  18.998  0.00  0.00    +0.000 C 
ENDBRANCH  17  29
TORSDOF 2
ENDMDL
MODEL 5
REMARK VINA RESULT:      -7.6      2.824      4.460
REMARK  Name = 
REMARK  2 active torsions:
REMARK  status: ('A' for Active; 'I' for Inactive)
REMARK    1  A    between atoms: C_9  and  C_10
REMARK    2  A    between atoms: C_24  and  C_25
REMARK                            x       y       z     vdW  Elec       q    Type
REMARK                         _______ _______ _______ _____ _____    ______ ____
ROOT
ATOM      1  N   UNL     1       0.513   9.290  24.320  0.00  0.00    +0.000 N 
ATOM      2  C   UNL     1       0.415   9.361  22.980  0.00  0.00    +0.000 C 
ATOM      3  N   UNL     1       1.356   9.673  22.162  0.00  0.00    +0.000 NA
ATOM      4  C   UNL     1       0.721   9.657  20.817  0.00  0.00    +0.000 C 
ATOM      5  C   UNL     1      -0.705   9.130  21.090  0.00  0.00    +0.000 C 
ATOM      6  O   UNL     1      -0.808   9.042  22.511  0.00  0.00    +0.000 OA
ATOM      7  C   UNL     1       0.678  11.072  20.258  0.00  0.00    +0.000 A 
ATOM      8  C   UNL     1       0.074  12.128  20.978  0.00  0.00    +0.000 A 
ATOM      9  C   UNL     1       0.020  13.450  20.490  0.00  0.00    +0.000 A 
ATOM     10  C   UNL     1       0.608  13.685  19.238  0.00  0.00    +0.000 A 
ATOM     11  C   UNL     1       1.200  12.654  18.505  0.00  0.00    +0.000 A 
ATOM     12  C   UNL     1       1.235  11.357  19.014  0.00  0.00    +0.000 A 
ATOM     13  O   UNL     1       1.842  10.426  18.212  0.00  0.00    +0.000 OA
ATOM     14  C   UNL     1       1.988   9.156  18.689  0.00  0.00    +0.000 A 
ATOM     15  C   UNL     1       2.694   8.261  17.896  0.00  0.00    +0.000 A 
ATOM     16  N   UNL     1       2.929   6.969  18.227  0.00  0.00    +0.000 NA
ATOM     17  C   UNL     1       2.448   6.538  19.417  0.00  0.00    +0.000 A 
ATOM     18  C   UNL     1       1.729   7.377  20.267  0.00  0.00    +0.000 A 
ATOM     19  C   UNL     1       1.486   8.714  19.907  0.00  0.00    +0.000 A 
ATOM     20  H   UNL     1       1.461   9.200  24.664  0.00  0.00    +0.000 HD
ATOM     21  H   UNL     1      -0.169   8.697  24.775  0.00  0.00    +0.000 HD
ENDROOT
BRANCH   9  22
ATOM     22  C   UNL     1      -0.625  14.534  21.268  0.00  0.00    +0.000 A 
ATOM     23  C   UNL     1       0.103  15.332  22.167  0.00  0.00    +0.000 A 
ATOM     24  C   UNL     1      -0.524  16.340  22.899  0.00  0.00    +0.000 A 
ATOM     25  C   UNL     1      -1.877  16.545  22.707  0.00  0.00    +0.000 A 
ATOM     26  N   UNL     1      -2.626  15.817  21.860  0.00  0.00    +0.000 NA
ATOM     27  C   UNL     1      -1.990  14.836  21.172  0.00  0.00    +0.000 A 
ATOM     28  F   UNL     1      -2.775  14.109  20.359  0.00  0.00    +0.000 F 
ENDBRANCH   9  22
BRANCH  17  29
ATOM     29  C   UNL     1       2.723   5.134  19.774  0.00  0.00    +0.000 C 
ATOM     30  C   UNL     1       2.127   4.550  20.831  0.00  0.00    +0.000 C 
ATOM     31  C   UNL     1       2.318   3.107  21.183  0.00  0.00    +0.000 C 
ATOM     32  O   UNL     1       2.943   2.368  20.129  0.00  0.00    +0.000 OA
ATOM     33  C   UNL     1       4.098   3.041  19.629  0.00  0.00    +0.000 C 
ATOM     34  C   UNL     1       3.687   4.338  18.932  0.00  0.00    +0.000 C 
ENDBRANCH  17  29
TORSDOF 2
ENDMDL
MODEL 6
REMARK VINA RESULT:      -7.6      3.719      9.353
REMARK  Name = 
REMARK  2 active torsions:
REMARK  status: ('A' for Active; 'I' for Inactive)
REMARK    1  A    between atoms: C_9  and  C_10
REMARK    2  A    between atoms: C_24  and  C_25
REMARK                            x       y       z     vdW  Elec       q    Type
REMARK                         _______ _______ _______ _____ _____    ______ ____
ROOT
ATOM      1  N   UNL     1       2.586  11.986  17.506  0.00  0.00    +0.000 N 
ATOM      2  C   UNL     1       1.861  11.076  18.182  0.00  0.00    +0.000 C 
ATOM      3  N   UNL     1       2.105  10.631  19.363  0.00  0.00    +0.000 NA
ATOM      4  C   UNL     1       1.048   9.617  19.621  0.00  0.00    +0.000 C 
ATOM      5  C   UNL     1       0.121   9.731  18.391  0.00  0.00    +0.000 C 
ATOM      6  O   UNL     1       0.776  10.642  17.509  0.00  0.00    +0.000 OA
ATOM      7  C   UNL     1       1.679   8.234  19.698  0.00  0.00    +0.000 A 
ATOM      8  C   UNL     1       2.475   7.730  18.643  0.00  0.00    +0.000 A 
ATOM      9  C   UNL     1       3.076   6.455  18.685  0.00  0.00    +0.000 A 
ATOM     10  C   UNL     1       2.856   5.690  19.840  0.00  0.00    +0.000 A 
ATOM     11  C   UNL     1       2.063   6.164  20.888  0.00  0.00    +0.000 A 
ATOM     12  C   UNL     1       1.481   7.429  20.817  0.00  0.00    +0.000 A 
ATOM     13  O   UNL     1       0.726   7.792  21.901  0.00  0.00    +0.000 OA
ATOM     14  C   UNL     1       0.201   9.051  21.933  0.00  0.00    +0.000 A 
ATOM     15  C   UNL     1      -0.474   9.425  23.088  0.00  0.00    +0.000 A 
ATOM     16  N   UNL     1      -1.048  10.636  23.278  0.00  0.00    +0.000 NA
ATOM     17  C   UNL     1      -0.939  11.537  22.274  0.00  0.00    +0.000 A 
ATOM     18  C   UNL     1      -0.277  11.235  21.083  0.00  0.00    +0.000 A 
ATOM     19  C   UNL     1       0.307   9.971  20.897  0.00  0.00    +0.000 A 
ATOM     20  H   UNL     1       3.189  12.553  18.088  0.00  0.00    +0.000 HD
ATOM     21  H   UNL     1       2.087  12.488  16.782  0.00  0.00    +0.000 HD
ENDROOT
BRANCH   9  22
ATOM     22  C   UNL     1       3.901   5.955  17.560  0.00  0.00    +0.000 A 
ATOM     23  C   UNL     1       3.768   4.643  17.073  0.00  0.00    +0.000 A 
ATOM     24  C   UNL     1       4.561   4.186  16.021  0.00  0.00    +0.000 A 
ATOM     25  C   UNL     1       5.470   5.061  15.457  0.00  0.00    +0.000 A 
ATOM     26  N   UNL     1       5.640   6.327  15.876  0.00  0.00    +0.000 NA
ATOM     27  C   UNL     1       4.864   6.738  16.910  0.00  0.00    +0.000 A 
ATOM     28  F   UNL     1       5.082   7.998  17.323  0.00  0.00    +0.000 F 
ENDBRANCH   9  22
BRANCH  17  29
ATOM     29  C   UNL     1      -1.555  12.858  22.498  0.00  0.00    +0.000 C 
ATOM     30  C   UNL     1      -0.803  13.964  22.657  0.00  0.00    +0.000 C 
ATOM     31  C   UNL     1      -1.387  15.334  22.809  0.00  0.00    +0.000 C 
ATOM     32  O   UNL     1      -2.777  15.374  22.472  0.00  0.00    +0.000 OA
ATOM     33  C   UNL     1      -3.501  14.319  23.105  0.00  0.00    +0.000 C 
ATOM     34  C   UNL     1      -3.057  12.969  22.543  0.00  0.00    +0.000 C 
ENDBRANCH  17  29
TORSDOF 2
ENDMDL
MODEL 7
REMARK VINA RESULT:      -7.5      2.852      8.778
REMARK  Name = 
REMARK  2 active torsions:
REMARK  status: ('A' for Active; 'I' for Inactive)
REMARK    1  A    between atoms: C_9  and  C_10
REMARK    2  A    between atoms: C_24  and  C_25
REMARK                            x       y       z     vdW  Elec       q    Type
REMARK                         _______ _______ _______ _____ _____    ______ ____
ROOT
ATOM      1  N   UNL     1      -0.461  13.415  17.414  0.00  0.00    +0.000 N 
ATOM      2  C   UNL     1      -1.014  12.769  18.457  0.00  0.00    +0.000 C 
ATOM      3  N   UNL     1      -0.665  12.871  19.690  0.00  0.00    +0.000 NA
ATOM      4  C   UNL     1      -1.545  11.921  20.421  0.00  0.00    +0.000 C 
ATOM      5  C   UNL     1      -2.520  11.413  19.337  0.00  0.00    +0.000 C 
ATOM      6  O   UNL     1      -2.042  11.968  18.111  0.00  0.00    +0.000 OA
ATOM      7  C   UNL     1      -0.707  10.777  20.976  0.00  0.00    +0.000 A 
ATOM      8  C   UNL     1       0.120   9.997  20.135  0.00  0.00    +0.000 A 
ATOM      9  C   UNL     1       0.910   8.934  20.618  0.00  0.00    +0.000 A 
ATOM     10  C   UNL     1       0.849   8.677  21.996  0.00  0.00    +0.000 A 
ATOM     11  C   UNL     1       0.030   9.427  22.842  0.00  0.00    +0.000 A 
ATOM     12  C   UNL     1      -0.741  10.471  22.334  0.00  0.00    +0.000 A 
ATOM     13  O   UNL     1      -1.505  11.141  23.254  0.00  0.00    +0.000 OA
ATOM     14  C   UNL     1      -2.215  12.229  22.837  0.00  0.00    +0.000 A 
ATOM     15  C   UNL     1      -2.900  12.946  23.810  0.00  0.00    +0.000 A 
ATOM     16  N   UNL     1      -3.646  14.048  23.562  0.00  0.00    +0.000 NA
ATOM     17  C   UNL     1      -3.710  14.476  22.280  0.00  0.00    +0.000 A 
ATOM     18  C   UNL     1      -3.052  13.808  21.247  0.00  0.00    +0.000 A 
ATOM     19  C   UNL     1      -2.287  12.660  21.519  0.00  0.00    +0.000 A 
ATOM     20  H   UNL     1       0.068  14.240  17.668  0.00  0.00    +0.000 HD
ATOM     21  H   UNL     1      -1.055  13.516  16.601  0.00  0.00    +0.000 HD
ENDROOT
BRANCH   9  22
ATOM     22  C   UNL     1       1.763   8.133  19.708  0.00  0.00    +0.000 A 
ATOM     23  C   UNL     1       2.250   8.658  18.499  0.00  0.00    +0.000 A 
ATOM     24  C   UNL     1       3.043   7.886  17.651  0.00  0.00    +0.000 A 
ATOM     25  C   UNL     1       3.350   6.595  18.035  0.00  0.00    +0.000 A 
ATOM     26  N   UNL     1       2.917   6.038  19.180  0.00  0.00    +0.000 NA
ATOM     27  C   UNL     1       2.138   6.810  19.978  0.00  0.00    +0.000 A 
ATOM     28  F   UNL     1       1.698   6.212  21.098  0.00  0.00    +0.000 F 
ENDBRANCH   9  22
BRANCH  17  29
ATOM     29  C   UNL     1      -4.513  15.686  22.023  0.00  0.00    +0.000 C 
ATOM     30  C   UNL     1      -4.921  16.483  23.029  0.00  0.00    +0.000 C 
ATOM     31  C   UNL     1      -5.671  17.760  22.807  0.00  0.00    +0.000 C 
ATOM     32  O   UNL     1      -5.640  18.179  21.439  0.00  0.00    +0.000 OA
ATOM     33  C   UNL     1      -5.967  17.108  20.554  0.00  0.00    +0.000 C 
ATOM     34  C   UNL     1      -4.877  16.037  20.603  0.00  0.00    +0.000 C 
ENDBRANCH  17  29
TORSDOF 2
ENDMDL
MODEL 8
REMARK VINA RESULT:      -7.5      3.999      9.517
REMARK  Name = 
REMARK  2 active torsions:
REMARK  status: ('A' for Active; 'I' for Inactive)
REMARK    1  A    between atoms: C_9  and  C_10
REMARK    2  A    between atoms: C_24  and  C_25
REMARK                            x       y       z     vdW  Elec       q    Type
REMARK                         _______ _______ _______ _____ _____    ______ ____
ROOT
ATOM      1  N   UNL     1      -1.103   9.036  23.382  0.00  0.00    +0.000 N 
ATOM      2  C   UNL     1      -0.152   9.449  22.523  0.00  0.00    +0.000 C 
ATOM      3  N   UNL     1      -0.301   9.664  21.265  0.00  0.00    +0.000 NA
ATOM      4  C   UNL     1       1.049  10.047  20.775  0.00  0.00    +0.000 C 
ATOM      5  C   UNL     1       1.899  10.128  22.062  0.00  0.00    +0.000 C 
ATOM      6  O   UNL     1       1.046   9.659  23.106  0.00  0.00    +0.000 OA
ATOM      7  C   UNL     1       1.578   8.964  19.844  0.00  0.00    +0.000 A 
ATOM      8  C   UNL     1       1.666   7.616  20.261  0.00  0.00    +0.000 A 
ATOM      9  C   UNL     1       2.147   6.590  19.422  0.00  0.00    +0.000 A 
ATOM     10  C   UNL     1       2.538   6.963  18.127  0.00  0.00    +0.000 A 
ATOM     11  C   UNL     1       2.470   8.291  17.700  0.00  0.00    +0.000 A 
ATOM     12  C   UNL     1       1.992   9.284  18.553  0.00  0.00    +0.000 A 
ATOM     13  O   UNL     1       1.967  10.550  18.029  0.00  0.00    +0.000 OA
ATOM     14  C   UNL     1       1.428  11.552  18.781  0.00  0.00    +0.000 A 
ATOM     15  C   UNL     1       1.326  12.803  18.186  0.00  0.00    +0.000 A 
ATOM     16  N   UNL     1       0.812  13.897  18.795  0.00  0.00    +0.000 NA
ATOM     17  C   UNL     1       0.362  13.747  20.062  0.00  0.00    +0.000 A 
ATOM     18  C   UNL     1       0.432  12.523  20.728  0.00  0.00    +0.000 A 
ATOM     19  C   UNL     1       0.975  11.396  20.085  0.00  0.00    +0.000 A 
ATOM     20  H   UNL     1      -2.050   9.185  23.057  0.00  0.00    +0.000 HD
ATOM     21  H   UNL     1      -0.938   9.263  24.354  0.00  0.00    +0.000 HD
ENDROOT
BRANCH   9  22
ATOM     22  C   UNL     1       2.231   5.186  19.891  0.00  0.00    +0.000 A 
ATOM     23  C   UNL     1       1.102   4.500  20.373  0.00  0.00    +0.000 A 
ATOM     24  C   UNL     1       1.202   3.183  20.820  0.00  0.00    +0.000 A 
ATOM     25  C   UNL     1       2.436   2.563  20.765  0.00  0.00    +0.000 A 
ATOM     26  N   UNL     1       3.550   3.166  20.313  0.00  0.00    +0.000 NA
ATOM     27  C   UNL     1       3.423   4.451  19.897  0.00  0.00    +0.000 A 
ATOM     28  F   UNL     1       4.562   5.032  19.480  0.00  0.00    +0.000 F 
ENDBRANCH   9  22
BRANCH  17  29
ATOM     29  C   UNL     1      -0.209  14.942  20.710  0.00  0.00    +0.000 C 
ATOM     30  C   UNL     1      -0.628  15.998  19.988  0.00  0.00    +0.000 C 
ATOM     31  C   UNL     1      -1.284  17.198  20.600  0.00  0.00    +0.000 C 
ATOM     32  O   UNL     1      -1.677  16.971  21.957  0.00  0.00    +0.000 OA
ATOM     33  C   UNL     1      -0.621  16.388  22.719  0.00  0.00    +0.000 C 
ATOM     34  C   UNL     1      -0.329  14.975  22.213  0.00  0.00    +0.000 C 
ENDBRANCH  17  29
TORSDOF 2
ENDMDL
MODEL 9
REMARK VINA RESULT:      -7.5      3.540      4.938
REMARK  Name = 
REMARK  2 active torsions:
REMARK  status: ('A' for Active; 'I' for Inactive)
REMARK    1  A    between atoms: C_9  and  C_10
REMARK    2  A    between atoms: C_24  and  C_25
REMARK                            x       y       z     vdW  Elec       q    Type
REMARK                         _______ _______ _______ _____ _____    ______ ____
ROOT
ATOM      1  N   UNL     1       0.129   9.549  23.831  0.00  0.00    +0.000 N 
ATOM      2  C   UNL     1       0.225   9.578  22.488  0.00  0.00    +0.000 C 
ATOM      3  N   UNL     1       1.306   9.689  21.803  0.00  0.00    +0.000 NA
ATOM      4  C   UNL     1       0.864   9.724  20.384  0.00  0.00    +0.000 C 
ATOM      5  C   UNL     1      -0.656   9.461  20.466  0.00  0.00    +0.000 C 
ATOM      6  O   UNL     1      -0.962   9.453  21.861  0.00  0.00    +0.000 OA
ATOM      7  C   UNL     1       1.145  11.100  19.797  0.00  0.00    +0.000 A 
ATOM      8  C   UNL     1       0.644  12.274  20.406  0.00  0.00    +0.000 A 
ATOM      9  C   UNL     1       0.889  13.563  19.889  0.00  0.00    +0.000 A 
ATOM     10  C   UNL     1       1.671  13.640  18.727  0.00  0.00    +0.000 A 
ATOM     11  C   UNL     1       2.165  12.492  18.104  0.00  0.00    +0.000 A 
ATOM     12  C   UNL     1       1.904  11.231  18.637  0.00  0.00    +0.000 A 
ATOM     13  O   UNL     1       2.439  10.176  17.945  0.00  0.00    +0.000 OA
ATOM     14  C   UNL     1       2.295   8.922  18.463  0.00  0.00    +0.000 A 
ATOM     15  C   UNL     1       2.933   7.886  17.793  0.00  0.00    +0.000 A 
ATOM     16  N   UNL     1       2.891   6.589  18.178  0.00  0.00    +0.000 NA
ATOM     17  C   UNL     1       2.188   6.298  19.298  0.00  0.00    +0.000 A 
ATOM     18  C   UNL     1       1.520   7.283  20.024  0.00  0.00    +0.000 A 
ATOM     19  C   UNL     1       1.566   8.625  19.607  0.00  0.00    +0.000 A 
ATOM     20  H   UNL     1       0.992   9.314  24.304  0.00  0.00    +0.000 HD
ATOM     21  H   UNL     1      -0.702   9.102  24.197  0.00  0.00    +0.000 HD
ENDROOT
BRANCH   9  22
ATOM     22  C   UNL     1       0.346  14.774  20.549  0.00  0.00    +0.000 A 
ATOM     23  C   UNL     1       0.483  14.986  21.932  0.00  0.00    +0.000 A 
ATOM     24  C   UNL     1      -0.044  16.126  22.537  0.00  0.00    +0.000 A 
ATOM     25  C   UNL     1      -0.692  17.051  21.741  0.00  0.00    +0.000 A 
ATOM     26  N   UNL     1      -0.853  16.906  20.414  0.00  0.00    +0.000 NA
ATOM     27  C   UNL     1      -0.340  15.781  19.856  0.00  0.00    +0.000 A 
ATOM     28  F   UNL     1      -0.546  15.653  18.534  0.00  0.00    +0.000 F 
ENDBRANCH   9  22
BRANCH  17  29
ATOM     29  C   UNL     1       2.162   4.884  19.717  0.00  0.00    +0.000 C 
ATOM     30  C   UNL     1       2.326   4.532  21.006  0.00  0.00    +0.000 C 
ATOM     31  C   UNL     1       2.229   3.116  21.485  0.00  0.00    +0.000 C 
ATOM     32  O   UNL     1       1.661   2.246  20.502  0.00  0.00    +0.000 OA
ATOM     33  C   UNL     1       2.272   2.427  19.225  0.00  0.00    +0.000 C 
ATOM     34  C   UNL     1       1.940   3.815  18.677  0.00  0.00    +0.000 C 
ENDBRANCH  17  29
TORSDOF 2
ENDMDL
