MODEL 1
REMARK VINA RESULT:      -5.5      0.000      0.000
REMARK  Name = 
REMARK  3 active torsions:
REMARK  status: ('A' for Active; 'I' for Inactive)
REMARK    1  A    between atoms: C_1  and  C_2
REMARK    2  A    between atoms: C_4  and  C_5
REMARK    3  A    between atoms: C_9  and  S_10
REMARK                            x       y       z     vdW  Elec       q    Type
REMARK                         _______ _______ _______ _____ _____    ______ ____
ROOT
ATOM      1  C   UNL     1       6.325   3.972  14.422  0.00  0.00    +0.000 C 
ATOM      2  C   UNL     1       6.008   4.347  15.848  0.00  0.00    +0.000 A 
ATOM      3  C   UNL     1       7.143   4.835  16.691  0.00  0.00    +0.000 A 
ATOM      4  C   UNL     1       6.851   5.168  17.960  0.00  0.00    +0.000 A 
ATOM      5  C   UNL     1       7.887   5.670  18.916  0.00  0.00    +0.000 C 
ATOM      6  N   UNL     1       5.527   5.042  18.412  0.00  0.00    +0.000 N 
ATOM      7  N   UNL     1       5.036   5.326  19.651  0.00  0.00    +0.000 NA
ATOM      8  C   UNL     1       3.736   5.037  19.569  0.00  0.00    +0.000 A 
ATOM      9  C   UNL     1       3.366   4.571  18.300  0.00  0.00    +0.000 A 
ATOM     10  C   UNL     1       4.522   4.574  17.553  0.00  0.00    +0.000 A 
ATOM     11  N   UNL     1       4.779   4.226  16.252  0.00  0.00    +0.000 NA
ENDROOT
BRANCH   9  12
ATOM     12  S   UNL     1       1.772   4.092  17.790  0.00  0.00    +0.000 S 
ATOM     13  H   UNL     1       2.038   2.836  17.409  0.00  0.00    +0.000 HD
ENDBRANCH   9  12
TORSDOF 1
ENDMDL
MODEL 2
REMARK VINA RESULT:      -5.4      1.058      1.058
REMARK  Name = 
REMARK  3 active torsions:
REMARK  status: ('A' for Active; 'I' for Inactive)
REMARK    1  A    between atoms: C_1  and  C_2
REMARK    2  A    between atoms: C_4  and  C_5
REMARK    3  A    between atoms: C_9  and  S_10
REMARK                            x       y       z     vdW  Elec       q    Type
REMARK                         _______ _______ _______ _____ _____    ______ ____
ROOT
ATOM      1  C   UNL     1       6.290   4.008  13.882  0.00  0.00    +0.000 C 
ATOM      2  C   UNL     1       6.073   4.364  15.331  0.00  0.00    +0.000 A 
ATOM      3  C   UNL     1       6.940   5.439  15.904  0.00  0.00    +0.000 A 
ATOM      4  C   UNL     1       6.738   5.751  17.196  0.00  0.00    +0.000 A 
ATOM      5  C   UNL     1       7.533   6.806  17.901  0.00  0.00    +0.000 C 
ATOM      6  N   UNL     1       5.748   5.065  17.918  0.00  0.00    +0.000 N 
ATOM      7  N   UNL     1       5.395   5.235  19.223  0.00  0.00    +0.000 NA
ATOM      8  C   UNL     1       4.416   4.351  19.423  0.00  0.00    +0.000 A 
ATOM      9  C   UNL     1       4.119   3.607  18.273  0.00  0.00    +0.000 A 
ATOM     10  C   UNL     1       4.978   4.067  17.301  0.00  0.00    +0.000 A 
ATOM     11  N   UNL     1       5.153   3.721  15.986  0.00  0.00    +0.000 NA
ENDROOT
BRANCH   9  12
ATOM     12  S   UNL     1       2.912   2.362  18.120  0.00  0.00    +0.000 S 
ATOM     13  H   UNL     1       2.437   2.370  19.372  0.00  0.00    +0.000 HD
ENDBRANCH   9  12
TORSDOF 1
ENDMDL
MODEL 3
REMARK VINA RESULT:      -5.3      2.963      4.917
REMARK  Name = 
REMARK  3 active torsions:
REMARK  status: ('A' for Active; 'I' for Inactive)
REMARK    1  A    between atoms: C_1  and  C_2
REMARK    2  A    between atoms: C_4  and  C_5
REMARK    3  A    between atoms: C_9  and  S_10
REMARK                            x       y       z     vdW  Elec       q    Type
REMARK                         _______ _______ _______ _____ _____    ______ ____
ROOT
ATOM      1  C   UNL     1       2.117   7.522  19.827  0.00  0.00    +0.000 C 
ATOM      2  C   UNL     1       2.351   6.042  19.655  0.00  0.00    +0.000 A 
ATOM      3  C   UNL     1       1.696   5.130  20.643  0.00  0.00    +0.000 A 
ATOM      4  C   UNL     1       1.910   3.813  20.481  0.00  0.00    +0.000 A 
ATOM      5  C   UNL     1       1.318   2.786  21.395  0.00  0.00    +0.000 C 
ATOM      6  N   UNL     1       2.716   3.378  19.417  0.00  0.00    +0.000 N 
ATOM      7  N   UNL     1       3.047   2.098  19.088  0.00  0.00    +0.000 NA
ATOM      8  C   UNL     1       3.826   2.220  18.011  0.00  0.00    +0.000 A 
ATOM      9  C   UNL     1       4.009   3.555  17.627  0.00  0.00    +0.000 A 
ATOM     10  C   UNL     1       3.293   4.304  18.534  0.00  0.00    +0.000 A 
ATOM     11  N   UNL     1       3.099   5.654  18.665  0.00  0.00    +0.000 NA
ENDROOT
BRANCH   9  12
ATOM     12  S   UNL     1       4.950   4.133  16.281  0.00  0.00    +0.000 S 
ATOM     13  H   UNL     1       6.148   3.649  16.634  0.00  0.00    +0.000 HD
ENDBRANCH   9  12
TORSDOF 1
ENDMDL
MODEL 4
REMARK VINA RESULT:      -5.3      2.175      3.333
REMARK  Name = 
REMARK  3 active torsions:
REMARK  status: ('A' for Active; 'I' for Inactive)
REMARK    1  A    between atoms: C_1  and  C_2
REMARK    2  A    between atoms: C_4  and  C_5
REMARK    3  A    between atoms: C_9  and  S_10
REMARK                            x       y       z     vdW  Elec       q    Type
REMARK                         _______ _______ _______ _____ _____    ______ ____
ROOT
ATOM      1  C   UNL     1       2.391   7.677  18.111  0.00  0.00    +0.000 C 
ATOM      2  C   UNL     1       3.137   6.418  18.477  0.00  0.00    +0.000 A 
ATOM      3  C   UNL     1       4.529   6.274  17.949  0.00  0.00    +0.000 A 
ATOM      4  C   UNL     1       5.185   5.150  18.281  0.00  0.00    +0.000 A 
ATOM      5  C   UNL     1       6.583   4.872  17.824  0.00  0.00    +0.000 C 
ATOM      6  N   UNL     1       4.543   4.196  19.088  0.00  0.00    +0.000 N 
ATOM      7  N   UNL     1       5.037   3.005  19.529  0.00  0.00    +0.000 NA
ATOM      8  C   UNL     1       4.045   2.479  20.249  0.00  0.00    +0.000 A 
ATOM      9  C   UNL     1       2.912   3.302  20.290  0.00  0.00    +0.000 A 
ATOM     10  C   UNL     1       3.232   4.411  19.540  0.00  0.00    +0.000 A 
ATOM     11  N   UNL     1       2.530   5.545  19.224  0.00  0.00    +0.000 NA
ENDROOT
BRANCH   9  12
ATOM     12  S   UNL     1       1.416   2.978  21.120  0.00  0.00    +0.000 S 
ATOM     13  H   UNL     1       1.102   1.810  20.546  0.00  0.00    +0.000 HD
ENDBRANCH   9  12
TORSDOF 1
ENDMDL
MODEL 5
REMARK VINA RESULT:      -5.2      1.184      2.979
REMARK  Name = 
REMARK  3 active torsions:
REMARK  status: ('A' for Active; 'I' for Inactive)
REMARK    1  A    between atoms: C_1  and  C_2
REMARK    2  A    between atoms: C_4  and  C_5
REMARK    3  A    between atoms: C_9  and  S_10
REMARK                            x       y       z     vdW  Elec       q    Type
REMARK                         _______ _______ _______ _____ _____    ______ ____
ROOT
ATOM      1  C   UNL     1       7.932   5.869  19.335  0.00  0.00    +0.000 C 
ATOM      2  C   UNL     1       6.747   5.278  18.614  0.00  0.00    +0.000 A 
ATOM      3  C   UNL     1       6.962   4.831  17.203  0.00  0.00    +0.000 A 
ATOM      4  C   UNL     1       5.899   4.305  16.570  0.00  0.00    +0.000 A 
ATOM      5  C   UNL     1       5.969   3.817  15.157  0.00  0.00    +0.000 C 
ATOM      6  N   UNL     1       4.676   4.208  17.253  0.00  0.00    +0.000 N 
ATOM      7  N   UNL     1       3.496   3.709  16.787  0.00  0.00    +0.000 NA
ATOM      8  C   UNL     1       2.650   3.843  17.811  0.00  0.00    +0.000 A 
ATOM      9  C   UNL     1       3.254   4.418  18.938  0.00  0.00    +0.000 A 
ATOM     10  C   UNL     1       4.561   4.653  18.578  0.00  0.00    +0.000 A 
ATOM     11  N   UNL     1       5.621   5.194  19.259  0.00  0.00    +0.000 NA
ENDROOT
BRANCH   9  12
ATOM     12  S   UNL     1       2.495   4.757  20.467  0.00  0.00    +0.000 S 
ATOM     13  H   UNL     1       2.040   3.531  20.757  0.00  0.00    +0.000 HD
ENDBRANCH   9  12
TORSDOF 1
ENDMDL
MODEL 6
REMARK VINA RESULT:      -5.0      2.344      3.889
REMARK  Name = 
REMARK  3 active torsions:
REMARK  status: ('A' for Active; 'I' for Inactive)
REMARK    1  A    between atoms: C_1  and  C_2
REMARK    2  A    between atoms: C_4  and  C_5
REMARK    3  A    between atoms: C_9  and  S_10
REMARK                            x       y       z     vdW  Elec       q    Type
REMARK                         _______ _______ _______ _____ _____    ______ ____
ROOT
ATOM      1  C   UNL     1       2.197   7.985  18.911  0.00  0.00    +0.000 C 
ATOM      2  C   UNL     1       2.737   6.591  18.719  0.00  0.00    +0.000 A 
ATOM      3  C   UNL     1       3.658   6.372  17.561  0.00  0.00    +0.000 A 
ATOM      4  C   UNL     1       4.136   5.126  17.399  0.00  0.00    +0.000 A 
ATOM      5  C   UNL     1       5.066   4.762  16.284  0.00  0.00    +0.000 C 
ATOM      6  N   UNL     1       3.752   4.123  18.304  0.00  0.00    +0.000 N 
ATOM      7  N   UNL     1       4.125   2.813  18.309  0.00  0.00    +0.000 NA
ATOM      8  C   UNL     1       3.492   2.289  19.360  0.00  0.00    +0.000 A 
ATOM      9  C   UNL     1       2.713   3.231  20.045  0.00  0.00    +0.000 A 
ATOM     10  C   UNL     1       2.880   4.416  19.365  0.00  0.00    +0.000 A 
ATOM     11  N   UNL     1       2.373   5.673  19.565  0.00  0.00    +0.000 NA
ENDROOT
BRANCH   9  12
ATOM     12  S   UNL     1       1.742   2.949  21.462  0.00  0.00    +0.000 S 
ATOM     13  H   UNL     1       1.520   4.219  21.825  0.00  0.00    +0.000 HD
ENDBRANCH   9  12
TORSDOF 1
ENDMDL
MODEL 7
REMARK VINA RESULT:      -5.0      2.529      3.937
REMARK  Name = 
REMARK  3 active torsions:
REMARK  status: ('A' for Active; 'I' for Inactive)
REMARK    1  A    between atoms: C_1  and  C_2
REMARK    2  A    between atoms: C_4  and  C_5
REMARK    3  A    between atoms: C_9  and  S_10
REMARK                            x       y       z     vdW  Elec       q    Type
REMARK                         _______ _______ _______ _____ _____    ______ ____
ROOT
ATOM      1  C   UNL     1       3.232   1.643  18.498  0.00  0.00    +0.000 C 
ATOM      2  C   UNL     1       3.526   3.076  18.131  0.00  0.00    +0.000 A 
ATOM      3  C   UNL     1       2.861   4.138  18.948  0.00  0.00    +0.000 A 
ATOM      4  C   UNL     1       3.130   5.411  18.614  0.00  0.00    +0.000 A 
ATOM      5  C   UNL     1       2.536   6.575  19.343  0.00  0.00    +0.000 C 
ATOM      6  N   UNL     1       4.001   5.667  17.542  0.00  0.00    +0.000 N 
ATOM      7  N   UNL     1       4.395   6.877  17.055  0.00  0.00    +0.000 NA
ATOM      8  C   UNL     1       5.213   6.580  16.044  0.00  0.00    +0.000 A 
ATOM      9  C   UNL     1       5.364   5.199  15.860  0.00  0.00    +0.000 A 
ATOM     10  C   UNL     1       4.582   4.609  16.827  0.00  0.00    +0.000 A 
ATOM     11  N   UNL     1       4.333   3.297  17.137  0.00  0.00    +0.000 NA
ENDROOT
BRANCH   9  12
ATOM     12  S   UNL     1       6.342   4.408  14.656  0.00  0.00    +0.000 S 
ATOM     13  H   UNL     1       6.211   5.293  13.660  0.00  0.00    +0.000 HD
ENDBRANCH   9  12
TORSDOF 1
ENDMDL
MODEL 8
REMARK VINA RESULT:      -5.0      2.745      4.981
REMARK  Name = 
REMARK  3 active torsions:
REMARK  status: ('A' for Active; 'I' for Inactive)
REMARK    1  A    between atoms: C_1  and  C_2
REMARK    2  A    between atoms: C_4  and  C_5
REMARK    3  A    between atoms: C_9  and  S_10
REMARK                            x       y       z     vdW  Elec       q    Type
REMARK                         _______ _______ _______ _____ _____    ______ ____
ROOT
ATOM      1  C   UNL     1       1.686   7.653  20.669  0.00  0.00    +0.000 C 
ATOM      2  C   UNL     1       2.154   6.399  19.976  0.00  0.00    +0.000 A 
ATOM      3  C   UNL     1       1.635   5.098  20.501  0.00  0.00    +0.000 A 
ATOM      4  C   UNL     1       2.057   3.985  19.875  0.00  0.00    +0.000 A 
ATOM      5  C   UNL     1       1.620   2.616  20.292  0.00  0.00    +0.000 C 
ATOM      6  N   UNL     1       2.940   4.104  18.789  0.00  0.00    +0.000 N 
ATOM      7  N   UNL     1       3.475   3.105  18.033  0.00  0.00    +0.000 NA
ATOM      8  C   UNL     1       4.243   3.735  17.142  0.00  0.00    +0.000 A 
ATOM      9  C   UNL     1       4.219   5.128  17.299  0.00  0.00    +0.000 A 
ATOM     10  C   UNL     1       3.379   5.367  18.362  0.00  0.00    +0.000 A 
ATOM     11  N   UNL     1       2.971   6.524  18.973  0.00  0.00    +0.000 NA
ENDROOT
BRANCH   9  12
ATOM     12  S   UNL     1       5.079   6.300  16.341  0.00  0.00    +0.000 S 
ATOM     13  H   UNL     1       4.236   6.389  15.305  0.00  0.00    +0.000 HD
ENDBRANCH   9  12
TORSDOF 1
ENDMDL
MODEL 9
REMARK VINA RESULT:      -4.9      3.180      4.868
REMARK  Name = 
REMARK  3 active torsions:
REMARK  status: ('A' for Active; 'I' for Inactive)
REMARK    1  A    between atoms: C_1  and  C_2
REMARK    2  A    between atoms: C_4  and  C_5
REMARK    3  A    between atoms: C_9  and  S_10
REMARK                            x       y       z     vdW  Elec       q    Type
REMARK                         _______ _______ _______ _____ _____    ______ ____
ROOT
ATOM      1  C   UNL     1       1.715   2.569  21.673  0.00  0.00    +0.000 C 
ATOM      2  C   UNL     1       2.124   3.594  20.645  0.00  0.00    +0.000 A 
ATOM      3  C   UNL     1       2.834   3.091  19.428  0.00  0.00    +0.000 A 
ATOM      4  C   UNL     1       3.194   4.011  18.517  0.00  0.00    +0.000 A 
ATOM      5  C   UNL     1       3.910   3.652  17.253  0.00  0.00    +0.000 C 
ATOM      6  N   UNL     1       2.891   5.362  18.754  0.00  0.00    +0.000 N 
ATOM      7  N   UNL     1       3.169   6.433  17.959  0.00  0.00    +0.000 NA
ATOM      8  C   UNL     1       2.681   7.480  18.626  0.00  0.00    +0.000 A 
ATOM      9  C   UNL     1       2.086   7.115  19.842  0.00  0.00    +0.000 A 
ATOM     10  C   UNL     1       2.221   5.748  19.925  0.00  0.00    +0.000 A 
ATOM     11  N   UNL     1       1.837   4.840  20.877  0.00  0.00    +0.000 NA
ENDROOT
BRANCH   9  12
ATOM     12  S   UNL     1       1.336   8.180  20.997  0.00  0.00    +0.000 S 
ATOM     13  H   UNL     1       2.377   8.984  21.253  0.00  0.00    +0.000 HD
ENDBRANCH   9  12
TORSDOF 1
ENDMDL
