MODEL 1
REMARK VINA RESULT:      -8.2      0.000      0.000
REMARK  Name = 
REMARK  7 active torsions:
REMARK  status: ('A' for Active; 'I' for Inactive)
REMARK    1  A    between atoms: C_2  and  O_3
REMARK    2  A    between atoms: C_2  and  C_4
REMARK    3  A    between atoms: C_7  and  N_8
REMARK    4  A    between atoms: C_15  and  N_16
REMARK    5  A    between atoms: N_16  and  C_17
REMARK    6  A    between atoms: C_22  and  C_23
REMARK    7  A    between atoms: C_23  and  O_25
REMARK                            x       y       z     vdW  Elec       q    Type
REMARK                         _______ _______ _______ _____ _____    ______ ____
ROOT
ATOM      1  N   UNL     1       1.260   7.164  20.869  0.00  0.00    +0.000 N 
ATOM      2  C   UNL     1       1.959   5.992  20.566  0.00  0.00    +0.000 A 
ATOM      3  N   UNL     1       1.361   4.842  20.858  0.00  0.00    +0.000 NA
ATOM      4  C   UNL     1       2.025   3.720  20.511  0.00  0.00    +0.000 A 
ATOM      5 CL   UNL     1       1.153   2.288  20.911  0.00  0.00    +0.000 Cl
ATOM      6  C   UNL     1       3.274   3.683  19.933  0.00  0.00    +0.000 A 
ATOM      7 CL   UNL     1       4.126   2.240  19.555  0.00  0.00    +0.000 Cl
ATOM      8  C   UNL     1       3.839   4.921  19.713  0.00  0.00    +0.000 A 
ATOM      9  N   UNL     1       3.164   6.051  19.988  0.00  0.00    +0.000 NA
ATOM     10  H   UNL     1       0.322   6.908  21.158  0.00  0.00    +0.000 HD
ENDROOT
BRANCH   1  14
ATOM     11  C   UNL     1       1.417  10.913  18.941  0.00  0.00    +0.000 A 
ATOM     12  C   UNL     1       1.026  10.823  20.279  0.00  0.00    +0.000 A 
ATOM     13  C   UNL     1       1.007   9.574  20.912  0.00  0.00    +0.000 A 
ATOM     14  C   UNL     1       1.345   8.405  20.214  0.00  0.00    +0.000 A 
ATOM     15  C   UNL     1       1.770   8.531  18.888  0.00  0.00    +0.000 A 
ATOM     16  C   UNL     1       1.801   9.766  18.251  0.00  0.00    +0.000 A 
BRANCH  11  18
ATOM     17  O   UNL     1       0.580  13.065  18.356  0.00  0.00    +0.000 OA
ATOM     18  C   UNL     1       1.430  12.219  18.225  0.00  0.00    +0.000 C 
BRANCH  18  19
ATOM     19  O   UNL     1       2.486  12.335  17.382  0.00  0.00    +0.000 OA
ATOM     20  H   UNL     1       3.297  11.872  17.670  0.00  0.00    +0.000 HD
ENDBRANCH  18  19
ENDBRANCH  11  18
ENDBRANCH   1  14
BRANCH   8  21
ATOM     21  N   UNL     1       5.209   5.042  19.345  0.00  0.00    +0.000 N 
ATOM     22  H   UNL     1       5.801   4.473  19.948  0.00  0.00    +0.000 HD
BRANCH  21  23
ATOM     23  C   UNL     1       5.672   5.114  18.000  0.00  0.00    +0.000 A 
ATOM     24  C   UNL     1       4.905   4.513  16.983  0.00  0.00    +0.000 A 
ATOM     25  C   UNL     1       5.289   4.591  15.642  0.00  0.00    +0.000 A 
ATOM     26  C   UNL     1       6.457   5.259  15.293  0.00  0.00    +0.000 A 
ATOM     27  C   UNL     1       7.245   5.839  16.286  0.00  0.00    +0.000 A 
ATOM     28  C   UNL     1       6.879   5.754  17.642  0.00  0.00    +0.000 A 
BRANCH  28  29
ATOM     29  C   UNL     1       7.837   6.366  18.612  0.00  0.00    +0.000 C 
ATOM     30  O   UNL     1       8.306   7.476  18.463  0.00  0.00    +0.000 OA
BRANCH  29  31
ATOM     31  O   UNL     1       8.160   5.571  19.659  0.00  0.00    +0.000 OA
ATOM     32  H   UNL     1       7.632   5.771  20.454  0.00  0.00    +0.000 HD
ENDBRANCH  29  31
ENDBRANCH  28  29
ENDBRANCH  21  23
ENDBRANCH   8  21
TORSDOF 7
ENDMDL
MODEL 2
REMARK VINA RESULT:      -8.1      0.488      1.190
REMARK  Name = 
REMARK  7 active torsions:
REMARK  status: ('A' for Active; 'I' for Inactive)
REMARK    1  A    between atoms: C_2  and  O_3
REMARK    2  A    between atoms: C_2  and  C_4
REMARK    3  A    between atoms: C_7  and  N_8
REMARK    4  A    between atoms: C_15  and  N_16
REMARK    5  A    between atoms: N_16  and  C_17
REMARK    6  A    between atoms: C_22  and  C_23
REMARK    7  A    between atoms: C_23  and  O_25
REMARK                            x       y       z     vdW  Elec       q    Type
REMARK                         _______ _______ _______ _____ _____    ______ ____
ROOT
ATOM      1  N   UNL     1       1.371   7.260  20.887  0.00  0.00    +0.000 N 
ATOM      2  C   UNL     1       2.068   6.105  20.524  0.00  0.00    +0.000 A 
ATOM      3  N   UNL     1       1.533   4.941  20.879  0.00  0.00    +0.000 NA
ATOM      4  C   UNL     1       2.191   3.834  20.474  0.00  0.00    +0.000 A 
ATOM      5 CL   UNL     1       1.401   2.383  20.964  0.00  0.00    +0.000 Cl
ATOM      6  C   UNL     1       3.378   3.826  19.778  0.00  0.00    +0.000 A 
ATOM      7 CL   UNL     1       4.229   2.403  19.327  0.00  0.00    +0.000 Cl
ATOM      8  C   UNL     1       3.885   5.078  19.498  0.00  0.00    +0.000 A 
ATOM      9  N   UNL     1       3.210   6.191  19.831  0.00  0.00    +0.000 NA
ATOM     10  H   UNL     1       0.473   6.981  21.268  0.00  0.00    +0.000 HD
ENDROOT
BRANCH   1  14
ATOM     11  C   UNL     1       1.427  10.951  18.845  0.00  0.00    +0.000 A 
ATOM     12  C   UNL     1       1.781   9.772  18.183  0.00  0.00    +0.000 A 
ATOM     13  C   UNL     1       1.729   8.551  18.868  0.00  0.00    +0.000 A 
ATOM     14  C   UNL     1       1.358   8.497  20.221  0.00  0.00    +0.000 A 
ATOM     15  C   UNL     1       0.972   9.687  20.845  0.00  0.00    +0.000 A 
ATOM     16  C   UNL     1       1.012  10.904  20.174  0.00  0.00    +0.000 A 
BRANCH  11  18
ATOM     17  O   UNL     1       0.648  13.127  18.272  0.00  0.00    +0.000 OA
ATOM     18  C   UNL     1       1.490  12.272  18.160  0.00  0.00    +0.000 C 
BRANCH  18  19
ATOM     19  O   UNL     1       2.584  12.389  17.367  0.00  0.00    +0.000 OA
ATOM     20  H   UNL     1       2.443  12.153  16.430  0.00  0.00    +0.000 HD
ENDBRANCH  18  19
ENDBRANCH  11  18
ENDBRANCH   1  14
BRANCH   8  21
ATOM     21  N   UNL     1       5.210   5.232  18.999  0.00  0.00    +0.000 N 
ATOM     22  H   UNL     1       5.887   4.777  19.610  0.00  0.00    +0.000 HD
BRANCH  21  23
ATOM     23  C   UNL     1       5.556   5.163  17.619  0.00  0.00    +0.000 A 
ATOM     24  C   UNL     1       4.822   4.308  16.774  0.00  0.00    +0.000 A 
ATOM     25  C   UNL     1       5.090   4.235  15.405  0.00  0.00    +0.000 A 
ATOM     26  C   UNL     1       6.109   5.004  14.856  0.00  0.00    +0.000 A 
ATOM     27  C   UNL     1       6.866   5.838  15.677  0.00  0.00    +0.000 A 
ATOM     28  C   UNL     1       6.618   5.910  17.061  0.00  0.00    +0.000 A 
BRANCH  28  29
ATOM     29  C   UNL     1       7.535   6.796  17.839  0.00  0.00    +0.000 C 
ATOM     30  O   UNL     1       8.024   6.467  18.900  0.00  0.00    +0.000 OA
BRANCH  29  31
ATOM     31  O   UNL     1       7.756   8.007  17.277  0.00  0.00    +0.000 OA
ATOM     32  H   UNL     1       7.731   8.730  17.930  0.00  0.00    +0.000 HD
ENDBRANCH  29  31
ENDBRANCH  28  29
ENDBRANCH  21  23
ENDBRANCH   8  21
TORSDOF 7
ENDMDL
MODEL 3
REMARK VINA RESULT:      -8.1      1.739      2.198
REMARK  Name = 
REMARK  7 active torsions:
REMARK  status: ('A' for Active; 'I' for Inactive)
REMARK    1  A    between atoms: C_2  and  O_3
REMARK    2  A    between atoms: C_2  and  C_4
REMARK    3  A    between atoms: C_7  and  N_8
REMARK    4  A    between atoms: C_15  and  N_16
REMARK    5  A    between atoms: N_16  and  C_17
REMARK    6  A    between atoms: C_22  and  C_23
REMARK    7  A    between atoms: C_23  and  O_25
REMARK                            x       y       z     vdW  Elec       q    Type
REMARK                         _______ _______ _______ _____ _____    ______ ____
ROOT
ATOM      1  N   UNL     1       1.794   6.892  21.222  0.00  0.00    +0.000 N 
ATOM      2  C   UNL     1       2.254   5.686  20.687  0.00  0.00    +0.000 A 
ATOM      3  N   UNL     1       1.877   4.571  21.304  0.00  0.00    +0.000 NA
ATOM      4  C   UNL     1       2.285   3.413  20.744  0.00  0.00    +0.000 A 
ATOM      5 CL   UNL     1       1.723   2.031  21.606  0.00  0.00    +0.000 Cl
ATOM      6  C   UNL     1       3.089   3.309  19.631  0.00  0.00    +0.000 A 
ATOM      7 CL   UNL     1       3.646   1.823  18.972  0.00  0.00    +0.000 Cl
ATOM      8  C   UNL     1       3.472   4.517  19.088  0.00  0.00    +0.000 A 
ATOM      9  N   UNL     1       3.019   5.679  19.589  0.00  0.00    +0.000 NA
ATOM     10  H   UNL     1       1.119   6.679  21.950  0.00  0.00    +0.000 HD
ENDROOT
BRANCH   1  14
ATOM     11  C   UNL     1       0.951  10.505  19.212  0.00  0.00    +0.000 A 
ATOM     12  C   UNL     1       0.742  10.397  20.590  0.00  0.00    +0.000 A 
ATOM     13  C   UNL     1       1.054   9.200  21.246  0.00  0.00    +0.000 A 
ATOM     14  C   UNL     1       1.545   8.093  20.536  0.00  0.00    +0.000 A 
ATOM     15  C   UNL     1       1.780   8.243  19.166  0.00  0.00    +0.000 A 
ATOM     16  C   UNL     1       1.482   9.429  18.505  0.00  0.00    +0.000 A 
BRANCH  11  18
ATOM     17  O   UNL     1       1.294  12.746  18.485  0.00  0.00    +0.000 OA
ATOM     18  C   UNL     1       0.611  11.752  18.473  0.00  0.00    +0.000 C 
BRANCH  18  19
ATOM     19  O   UNL     1      -0.570  11.655  17.815  0.00  0.00    +0.000 OA
ATOM     20  H   UNL     1      -0.687  10.837  17.294  0.00  0.00    +0.000 HD
ENDBRANCH  18  19
ENDBRANCH  11  18
ENDBRANCH   1  14
BRANCH   8  21
ATOM     21  N   UNL     1       4.485   4.578  18.088  0.00  0.00    +0.000 N 
ATOM     22  H   UNL     1       4.078   4.561  17.155  0.00  0.00    +0.000 HD
BRANCH  21  23
ATOM     23  C   UNL     1       5.653   5.386  18.184  0.00  0.00    +0.000 A 
ATOM     24  C   UNL     1       6.593   5.109  19.197  0.00  0.00    +0.000 A 
ATOM     25  C   UNL     1       7.777   5.842  19.308  0.00  0.00    +0.000 A 
ATOM     26  C   UNL     1       8.038   6.878  18.418  0.00  0.00    +0.000 A 
ATOM     27  C   UNL     1       7.110   7.187  17.424  0.00  0.00    +0.000 A 
ATOM     28  C   UNL     1       5.905   6.467  17.310  0.00  0.00    +0.000 A 
BRANCH  28  29
ATOM     29  C   UNL     1       4.971   6.933  16.242  0.00  0.00    +0.000 C 
ATOM     30  O   UNL     1       5.283   6.980  15.069  0.00  0.00    +0.000 OA
BRANCH  29  31
ATOM     31  O   UNL     1       3.755   7.323  16.691  0.00  0.00    +0.000 OA
ATOM     32  H   UNL     1       3.752   8.249  16.997  0.00  0.00    +0.000 HD
ENDBRANCH  29  31
ENDBRANCH  28  29
ENDBRANCH  21  23
ENDBRANCH   8  21
TORSDOF 7
ENDMDL
MODEL 4
REMARK VINA RESULT:      -8.1      3.051      5.006
REMARK  Name = 
REMARK  7 active torsions:
REMARK  status: ('A' for Active; 'I' for Inactive)
REMARK    1  A    between atoms: C_2  and  O_3
REMARK    2  A    between atoms: C_2  and  C_4
REMARK    3  A    between atoms: C_7  and  N_8
REMARK    4  A    between atoms: C_15  and  N_16
REMARK    5  A    between atoms: N_16  and  C_17
REMARK    6  A    between atoms: C_22  and  C_23
REMARK    7  A    between atoms: C_23  and  O_25
REMARK                            x       y       z     vdW  Elec       q    Type
REMARK                         _______ _______ _______ _____ _____    ______ ____
ROOT
ATOM      1  N   UNL     1       2.696   8.158  17.604  0.00  0.00    +0.000 N 
ATOM      2  C   UNL     1       3.392   6.990  17.279  0.00  0.00    +0.000 A 
ATOM      3  N   UNL     1       4.422   7.115  16.449  0.00  0.00    +0.000 NA
ATOM      4  C   UNL     1       5.116   5.987  16.188  0.00  0.00    +0.000 A 
ATOM      5 CL   UNL     1       6.443   6.263  15.123  0.00  0.00    +0.000 Cl
ATOM      6  C   UNL     1       4.808   4.735  16.670  0.00  0.00    +0.000 A 
ATOM      7 CL   UNL     1       5.670   3.303  16.273  0.00  0.00    +0.000 Cl
ATOM      8  C   UNL     1       3.693   4.693  17.481  0.00  0.00    +0.000 A 
ATOM      9  N   UNL     1       3.031   5.816  17.810  0.00  0.00    +0.000 NA
ATOM     10  H   UNL     1       3.208   8.948  17.225  0.00  0.00    +0.000 HD
ENDROOT
BRANCH   1  14
ATOM     11  C   UNL     1       0.642   9.097  21.168  0.00  0.00    +0.000 A 
ATOM     12  C   UNL     1       0.540   9.933  20.053  0.00  0.00    +0.000 A 
ATOM     13  C   UNL     1       1.205   9.591  18.868  0.00  0.00    +0.000 A 
ATOM     14  C   UNL     1       2.001   8.437  18.794  0.00  0.00    +0.000 A 
ATOM     15  C   UNL     1       2.052   7.601  19.913  0.00  0.00    +0.000 A 
ATOM     16  C   UNL     1       1.390   7.925  21.091  0.00  0.00    +0.000 A 
BRANCH  11  18
ATOM     17  O   UNL     1       0.207  10.428  23.094  0.00  0.00    +0.000 OA
ATOM     18  C   UNL     1      -0.031   9.436  22.452  0.00  0.00    +0.000 C 
BRANCH  18  19
ATOM     19  O   UNL     1      -0.918   8.484  22.836  0.00  0.00    +0.000 OA
ATOM     20  H   UNL     1      -1.853   8.685  22.635  0.00  0.00    +0.000 HD
ENDBRANCH  18  19
ENDBRANCH  11  18
ENDBRANCH   1  14
BRANCH   8  21
ATOM     21  N   UNL     1       3.114   3.449  17.861  0.00  0.00    +0.000 N 
ATOM     22  H   UNL     1       3.651   2.667  17.488  0.00  0.00    +0.000 HD
BRANCH  21  23
ATOM     23  C   UNL     1       2.549   3.189  19.141  0.00  0.00    +0.000 A 
ATOM     24  C   UNL     1       1.192   3.501  19.364  0.00  0.00    +0.000 A 
ATOM     25  C   UNL     1       0.576   3.226  20.586  0.00  0.00    +0.000 A 
ATOM     26  C   UNL     1       1.307   2.648  21.618  0.00  0.00    +0.000 A 
ATOM     27  C   UNL     1       2.656   2.354  21.429  0.00  0.00    +0.000 A 
ATOM     28  C   UNL     1       3.295   2.640  20.207  0.00  0.00    +0.000 A 
BRANCH  28  29
ATOM     29  C   UNL     1       4.756   2.331  20.152  0.00  0.00    +0.000 C 
ATOM     30  O   UNL     1       5.233   1.321  20.627  0.00  0.00    +0.000 OA
BRANCH  29  31
ATOM     31  O   UNL     1       5.508   3.282  19.550  0.00  0.00    +0.000 OA
ATOM     32  H   UNL     1       5.333   4.174  19.903  0.00  0.00    +0.000 HD
ENDBRANCH  29  31
ENDBRANCH  28  29
ENDBRANCH  21  23
ENDBRANCH   8  21
TORSDOF 7
ENDMDL
MODEL 5
REMARK VINA RESULT:      -8.0      1.684      2.284
REMARK  Name = 
REMARK  7 active torsions:
REMARK  status: ('A' for Active; 'I' for Inactive)
REMARK    1  A    between atoms: C_2  and  O_3
REMARK    2  A    between atoms: C_2  and  C_4
REMARK    3  A    between atoms: C_7  and  N_8
REMARK    4  A    between atoms: C_15  and  N_16
REMARK    5  A    between atoms: N_16  and  C_17
REMARK    6  A    between atoms: C_22  and  C_23
REMARK    7  A    between atoms: C_23  and  O_25
REMARK                            x       y       z     vdW  Elec       q    Type
REMARK                         _______ _______ _______ _____ _____    ______ ____
ROOT
ATOM      1  N   UNL     1       1.647   7.210  21.082  0.00  0.00    +0.000 N 
ATOM      2  C   UNL     1       2.048   5.978  20.558  0.00  0.00    +0.000 A 
ATOM      3  N   UNL     1       1.598   4.888  21.171  0.00  0.00    +0.000 NA
ATOM      4  C   UNL     1       1.950   3.707  20.622  0.00  0.00    +0.000 A 
ATOM      5 CL   UNL     1       1.295   2.362  21.477  0.00  0.00    +0.000 Cl
ATOM      6  C   UNL     1       2.767   3.554  19.525  0.00  0.00    +0.000 A 
ATOM      7 CL   UNL     1       3.252   2.037  18.880  0.00  0.00    +0.000 Cl
ATOM      8  C   UNL     1       3.228   4.736  18.985  0.00  0.00    +0.000 A 
ATOM      9  N   UNL     1       2.832   5.924  19.475  0.00  0.00    +0.000 NA
ATOM     10  H   UNL     1       0.948   7.038  21.797  0.00  0.00    +0.000 HD
ENDROOT
BRANCH   1  14
ATOM     11  C   UNL     1       1.238  10.832  18.957  0.00  0.00    +0.000 A 
ATOM     12  C   UNL     1       1.716   9.687  18.315  0.00  0.00    +0.000 A 
ATOM     13  C   UNL     1       1.819   8.485  19.028  0.00  0.00    +0.000 A 
ATOM     14  C   UNL     1       1.478   8.421  20.388  0.00  0.00    +0.000 A 
ATOM     15  C   UNL     1       0.965   9.573  20.993  0.00  0.00    +0.000 A 
ATOM     16  C   UNL     1       0.851  10.769  20.294  0.00  0.00    +0.000 A 
BRANCH  11  18
ATOM     17  O   UNL     1       0.184  12.871  18.322  0.00  0.00    +0.000 OA
ATOM     18  C   UNL     1       1.135  12.134  18.241  0.00  0.00    +0.000 C 
BRANCH  18  19
ATOM     19  O   UNL     1       2.216  12.380  17.462  0.00  0.00    +0.000 OA
ATOM     20  H   UNL     1       3.066  12.058  17.820  0.00  0.00    +0.000 HD
ENDBRANCH  18  19
ENDBRANCH  11  18
ENDBRANCH   1  14
BRANCH   8  21
ATOM     21  N   UNL     1       4.260   4.737  18.005  0.00  0.00    +0.000 N 
ATOM     22  H   UNL     1       3.871   4.762  17.064  0.00  0.00    +0.000 HD
BRANCH  21  23
ATOM     23  C   UNL     1       5.482   5.457  18.132  0.00  0.00    +0.000 A 
ATOM     24  C   UNL     1       6.341   5.157  19.209  0.00  0.00    +0.000 A 
ATOM     25  C   UNL     1       7.571   5.801  19.356  0.00  0.00    +0.000 A 
ATOM     26  C   UNL     1       7.962   6.770  18.439  0.00  0.00    +0.000 A 
ATOM     27  C   UNL     1       7.117   7.101  17.381  0.00  0.00    +0.000 A 
ATOM     28  C   UNL     1       5.867   6.472  17.229  0.00  0.00    +0.000 A 
BRANCH  28  29
ATOM     29  C   UNL     1       5.032   6.957  16.089  0.00  0.00    +0.000 C 
ATOM     30  O   UNL     1       5.350   6.803  14.928  0.00  0.00    +0.000 OA
BRANCH  29  31
ATOM     31  O   UNL     1       3.902   7.606  16.457  0.00  0.00    +0.000 OA
ATOM     32  H   UNL     1       3.972   7.997  17.348  0.00  0.00    +0.000 HD
ENDBRANCH  29  31
ENDBRANCH  28  29
ENDBRANCH  21  23
ENDBRANCH   8  21
TORSDOF 7
ENDMDL
MODEL 6
REMARK VINA RESULT:      -8.0      0.762      1.260
REMARK  Name = 
REMARK  7 active torsions:
REMARK  status: ('A' for Active; 'I' for Inactive)
REMARK    1  A    between atoms: C_2  and  O_3
REMARK    2  A    between atoms: C_2  and  C_4
REMARK    3  A    between atoms: C_7  and  N_8
REMARK    4  A    between atoms: C_15  and  N_16
REMARK    5  A    between atoms: N_16  and  C_17
REMARK    6  A    between atoms: C_22  and  C_23
REMARK    7  A    between atoms: C_23  and  O_25
REMARK                            x       y       z     vdW  Elec       q    Type
REMARK                         _______ _______ _______ _____ _____    ______ ____
ROOT
ATOM      1  N   UNL     1       1.261   7.486  20.885  0.00  0.00    +0.000 N 
ATOM      2  C   UNL     1       1.966   6.339  20.513  0.00  0.00    +0.000 A 
ATOM      3  N   UNL     1       1.426   5.169  20.838  0.00  0.00    +0.000 NA
ATOM      4  C   UNL     1       2.092   4.069  20.425  0.00  0.00    +0.000 A 
ATOM      5 CL   UNL     1       1.296   2.609  20.875  0.00  0.00    +0.000 Cl
ATOM      6  C   UNL     1       3.292   4.075  19.750  0.00  0.00    +0.000 A 
ATOM      7 CL   UNL     1       4.152   2.662  19.288  0.00  0.00    +0.000 Cl
ATOM      8  C   UNL     1       3.802   5.332  19.502  0.00  0.00    +0.000 A 
ATOM      9  N   UNL     1       3.120   6.439  19.843  0.00  0.00    +0.000 NA
ATOM     10  H   UNL     1       0.356   7.200  21.244  0.00  0.00    +0.000 HD
ENDROOT
BRANCH   1  14
ATOM     11  C   UNL     1       1.346  11.212  18.907  0.00  0.00    +0.000 A 
ATOM     12  C   UNL     1       1.658  10.038  18.216  0.00  0.00    +0.000 A 
ATOM     13  C   UNL     1       1.597   8.806  18.881  0.00  0.00    +0.000 A 
ATOM     14  C   UNL     1       1.258   8.735  20.241  0.00  0.00    +0.000 A 
ATOM     15  C   UNL     1       0.913   9.922  20.895  0.00  0.00    +0.000 A 
ATOM     16  C   UNL     1       0.962  11.149  20.244  0.00  0.00    +0.000 A 
BRANCH  11  18
ATOM     17  O   UNL     1       0.619  13.426  18.417  0.00  0.00    +0.000 OA
ATOM     18  C   UNL     1       1.421  12.543  18.243  0.00  0.00    +0.000 C 
BRANCH  18  19
ATOM     19  O   UNL     1       2.473  12.637  17.394  0.00  0.00    +0.000 OA
ATOM     20  H   UNL     1       2.243  12.872  16.474  0.00  0.00    +0.000 HD
ENDBRANCH  18  19
ENDBRANCH  11  18
ENDBRANCH   1  14
BRANCH   8  21
ATOM     21  N   UNL     1       5.136   5.497  19.029  0.00  0.00    +0.000 N 
ATOM     22  H   UNL     1       5.810   5.133  19.700  0.00  0.00    +0.000 HD
BRANCH  21  23
ATOM     23  C   UNL     1       5.530   5.312  17.673  0.00  0.00    +0.000 A 
ATOM     24  C   UNL     1       4.561   5.438  16.658  0.00  0.00    +0.000 A 
ATOM     25  C   UNL     1       4.902   5.311  15.310  0.00  0.00    +0.000 A 
ATOM     26  C   UNL     1       6.217   5.039  14.949  0.00  0.00    +0.000 A 
ATOM     27  C   UNL     1       7.187   4.885  15.937  0.00  0.00    +0.000 A 
ATOM     28  C   UNL     1       6.855   4.994  17.301  0.00  0.00    +0.000 A 
BRANCH  28  29
ATOM     29  C   UNL     1       7.973   4.751  18.262  0.00  0.00    +0.000 C 
ATOM     30  O   UNL     1       8.118   5.397  19.280  0.00  0.00    +0.000 OA
BRANCH  29  31
ATOM     31  O   UNL     1       8.826   3.767  17.893  0.00  0.00    +0.000 OA
ATOM     32  H   UNL     1       9.380   3.458  18.634  0.00  0.00    +0.000 HD
ENDBRANCH  29  31
ENDBRANCH  28  29
ENDBRANCH  21  23
ENDBRANCH   8  21
TORSDOF 7
ENDMDL
MODEL 7
REMARK VINA RESULT:      -7.9      1.780      2.223
REMARK  Name = 
REMARK  7 active torsions:
REMARK  status: ('A' for Active; 'I' for Inactive)
REMARK    1  A    between atoms: C_2  and  O_3
REMARK    2  A    between atoms: C_2  and  C_4
REMARK    3  A    between atoms: C_7  and  N_8
REMARK    4  A    between atoms: C_15  and  N_16
REMARK    5  A    between atoms: N_16  and  C_17
REMARK    6  A    between atoms: C_22  and  C_23
REMARK    7  A    between atoms: C_23  and  O_25
REMARK                            x       y       z     vdW  Elec       q    Type
REMARK                         _______ _______ _______ _____ _____    ______ ____
ROOT
ATOM      1  N   UNL     1       1.511   7.485  21.000  0.00  0.00    +0.000 N 
ATOM      2  C   UNL     1       1.867   6.285  20.379  0.00  0.00    +0.000 A 
ATOM      3  N   UNL     1       1.457   5.162  20.959  0.00  0.00    +0.000 NA
ATOM      4  C   UNL     1       1.764   4.014  20.318  0.00  0.00    +0.000 A 
ATOM      5 CL   UNL     1       1.164   2.622  21.139  0.00  0.00    +0.000 Cl
ATOM      6  C   UNL     1       2.500   3.924  19.159  0.00  0.00    +0.000 A 
ATOM      7 CL   UNL     1       2.931   2.447  18.395  0.00  0.00    +0.000 Cl
ATOM      8  C   UNL     1       2.927   5.136  18.658  0.00  0.00    +0.000 A 
ATOM      9  N   UNL     1       2.573   6.293  19.242  0.00  0.00    +0.000 NA
ATOM     10  H   UNL     1       0.863   7.273  21.751  0.00  0.00    +0.000 HD
ENDROOT
BRANCH   1  14
ATOM     11  C   UNL     1       0.783  11.242  19.222  0.00  0.00    +0.000 A 
ATOM     12  C   UNL     1       0.586  11.059  20.593  0.00  0.00    +0.000 A 
ATOM     13  C   UNL     1       0.860   9.814  21.173  0.00  0.00    +0.000 A 
ATOM     14  C   UNL     1       1.299   8.734  20.390  0.00  0.00    +0.000 A 
ATOM     15  C   UNL     1       1.525   8.958  19.029  0.00  0.00    +0.000 A 
ATOM     16  C   UNL     1       1.264  10.192  18.444  0.00  0.00    +0.000 A 
BRANCH  11  18
ATOM     17  O   UNL     1      -0.593  13.087  18.611  0.00  0.00    +0.000 OA
ATOM     18  C   UNL     1       0.482  12.544  18.565  0.00  0.00    +0.000 C 
BRANCH  18  19
ATOM     19  O   UNL     1       1.545  13.032  17.879  0.00  0.00    +0.000 OA
ATOM     20  H   UNL     1       2.379  13.080  18.387  0.00  0.00    +0.000 HD
ENDBRANCH  18  19
ENDBRANCH  11  18
ENDBRANCH   1  14
BRANCH   8  21
ATOM     21  N   UNL     1       3.888   5.192  17.608  0.00  0.00    +0.000 N 
ATOM     22  H   UNL     1       3.610   5.862  16.893  0.00  0.00    +0.000 HD
BRANCH  21  23
ATOM     23  C   UNL     1       5.297   5.132  17.810  0.00  0.00    +0.000 A 
ATOM     24  C   UNL     1       5.819   5.475  19.074  0.00  0.00    +0.000 A 
ATOM     25  C   UNL     1       7.187   5.392  19.340  0.00  0.00    +0.000 A 
ATOM     26  C   UNL     1       8.064   4.978  18.343  0.00  0.00    +0.000 A 
ATOM     27  C   UNL     1       7.573   4.658  17.079  0.00  0.00    +0.000 A 
ATOM     28  C   UNL     1       6.198   4.753  16.791  0.00  0.00    +0.000 A 
BRANCH  28  29
ATOM     29  C   UNL     1       5.807   4.439  15.384  0.00  0.00    +0.000 C 
ATOM     30  O   UNL     1       5.126   5.183  14.708  0.00  0.00    +0.000 OA
BRANCH  29  31
ATOM     31  O   UNL     1       6.253   3.244  14.931  0.00  0.00    +0.000 OA
ATOM     32  H   UNL     1       7.191   3.090  15.150  0.00  0.00    +0.000 HD
ENDBRANCH  29  31
ENDBRANCH  28  29
ENDBRANCH  21  23
ENDBRANCH   8  21
TORSDOF 7
ENDMDL
MODEL 8
REMARK VINA RESULT:      -7.9      1.018      1.185
REMARK  Name = 
REMARK  7 active torsions:
REMARK  status: ('A' for Active; 'I' for Inactive)
REMARK    1  A    between atoms: C_2  and  O_3
REMARK    2  A    between atoms: C_2  and  C_4
REMARK    3  A    between atoms: C_7  and  N_8
REMARK    4  A    between atoms: C_15  and  N_16
REMARK    5  A    between atoms: N_16  and  C_17
REMARK    6  A    between atoms: C_22  and  C_23
REMARK    7  A    between atoms: C_23  and  O_25
REMARK                            x       y       z     vdW  Elec       q    Type
REMARK                         _______ _______ _______ _____ _____    ______ ____
ROOT
ATOM      1  N   UNL     1       1.169   7.529  20.901  0.00  0.00    +0.000 N 
ATOM      2  C   UNL     1       1.913   6.435  20.451  0.00  0.00    +0.000 A 
ATOM      3  N   UNL     1       1.425   5.227  20.709  0.00  0.00    +0.000 NA
ATOM      4  C   UNL     1       2.128   4.183  20.220  0.00  0.00    +0.000 A 
ATOM      5 CL   UNL     1       1.396   2.667  20.588  0.00  0.00    +0.000 Cl
ATOM      6  C   UNL     1       3.316   4.278  19.532  0.00  0.00    +0.000 A 
ATOM      7 CL   UNL     1       4.225   2.931  18.974  0.00  0.00    +0.000 Cl
ATOM      8  C   UNL     1       3.773   5.567  19.356  0.00  0.00    +0.000 A 
ATOM      9  N   UNL     1       3.052   6.623  19.773  0.00  0.00    +0.000 NA
ATOM     10  H   UNL     1       0.282   7.184  21.253  0.00  0.00    +0.000 HD
ENDROOT
BRANCH   1  14
ATOM     11  C   UNL     1       0.890  11.402  19.252  0.00  0.00    +0.000 A 
ATOM     12  C   UNL     1       0.633  11.192  20.609  0.00  0.00    +0.000 A 
ATOM     13  C   UNL     1       0.758   9.904  21.147  0.00  0.00    +0.000 A 
ATOM     14  C   UNL     1       1.107   8.814  20.335  0.00  0.00    +0.000 A 
ATOM     15  C   UNL     1       1.396   9.061  18.990  0.00  0.00    +0.000 A 
ATOM     16  C   UNL     1       1.283  10.336  18.447  0.00  0.00    +0.000 A 
BRANCH  11  18
ATOM     17  O   UNL     1       1.520  13.657  18.820  0.00  0.00    +0.000 OA
ATOM     18  C   UNL     1       0.746  12.751  18.637  0.00  0.00    +0.000 C 
BRANCH  18  19
ATOM     19  O   UNL     1      -0.372  12.854  17.877  0.00  0.00    +0.000 OA
ATOM     20  H   UNL     1      -0.279  13.409  17.079  0.00  0.00    +0.000 HD
ENDBRANCH  18  19
ENDBRANCH  11  18
ENDBRANCH   1  14
BRANCH   8  21
ATOM     21  N   UNL     1       5.091   5.814  18.878  0.00  0.00    +0.000 N 
ATOM     22  H   UNL     1       5.784   5.625  19.601  0.00  0.00    +0.000 HD
BRANCH  21  23
ATOM     23  C   UNL     1       5.539   5.490  17.566  0.00  0.00    +0.000 A 
ATOM     24  C   UNL     1       4.656   5.670  16.481  0.00  0.00    +0.000 A 
ATOM     25  C   UNL     1       5.058   5.410  15.169  0.00  0.00    +0.000 A 
ATOM     26  C   UNL     1       6.344   4.950  14.915  0.00  0.00    +0.000 A 
ATOM     27  C   UNL     1       7.226   4.740  15.974  0.00  0.00    +0.000 A 
ATOM     28  C   UNL     1       6.830   4.982  17.304  0.00  0.00    +0.000 A 
BRANCH  28  29
ATOM     29  C   UNL     1       7.847   4.663  18.351  0.00  0.00    +0.000 C 
ATOM     30  O   UNL     1       7.796   5.115  19.477  0.00  0.00    +0.000 OA
BRANCH  29  31
ATOM     31  O   UNL     1       8.844   3.849  17.935  0.00  0.00    +0.000 OA
ATOM     32  H   UNL     1       9.373   4.245  17.218  0.00  0.00    +0.000 HD
ENDBRANCH  29  31
ENDBRANCH  28  29
ENDBRANCH  21  23
ENDBRANCH   8  21
TORSDOF 7
ENDMDL
MODEL 9
REMARK VINA RESULT:      -7.8      2.346      6.173
REMARK  Name = 
REMARK  7 active torsions:
REMARK  status: ('A' for Active; 'I' for Inactive)
REMARK    1  A    between atoms: C_2  and  O_3
REMARK    2  A    between atoms: C_2  and  C_4
REMARK    3  A    between atoms: C_7  and  N_8
REMARK    4  A    between atoms: C_15  and  N_16
REMARK    5  A    between atoms: N_16  and  C_17
REMARK    6  A    between atoms: C_22  and  C_23
REMARK    7  A    between atoms: C_23  and  O_25
REMARK                            x       y       z     vdW  Elec       q    Type
REMARK                         _______ _______ _______ _____ _____    ______ ____
ROOT
ATOM      1  N   UNL     1       5.874   5.407  17.549  0.00  0.00    +0.000 N 
ATOM      2  C   UNL     1       4.786   4.978  18.313  0.00  0.00    +0.000 A 
ATOM      3  N   UNL     1       4.512   3.678  18.295  0.00  0.00    +0.000 NA
ATOM      4  C   UNL     1       3.492   3.272  19.081  0.00  0.00    +0.000 A 
ATOM      5 CL   UNL     1       3.238   1.570  19.003  0.00  0.00    +0.000 Cl
ATOM      6  C   UNL     1       2.699   4.100  19.843  0.00  0.00    +0.000 A 
ATOM      7 CL   UNL     1       1.367   3.568  20.788  0.00  0.00    +0.000 Cl
ATOM      8  C   UNL     1       3.024   5.438  19.760  0.00  0.00    +0.000 A 
ATOM      9  N   UNL     1       4.080   5.853  19.039  0.00  0.00    +0.000 NA
ATOM     10  H   UNL     1       6.358   4.587  17.200  0.00  0.00    +0.000 HD
ENDROOT
BRANCH   1  14
ATOM     11  C   UNL     1       8.369   8.705  18.383  0.00  0.00    +0.000 A 
ATOM     12  C   UNL     1       8.573   7.484  19.030  0.00  0.00    +0.000 A 
ATOM     13  C   UNL     1       7.754   6.390  18.720  0.00  0.00    +0.000 A 
ATOM     14  C   UNL     1       6.708   6.512  17.792  0.00  0.00    +0.000 A 
ATOM     15  C   UNL     1       6.554   7.735  17.132  0.00  0.00    +0.000 A 
ATOM     16  C   UNL     1       7.366   8.824  17.425  0.00  0.00    +0.000 A 
BRANCH  11  18
ATOM     17  O   UNL     1       9.638  10.653  17.867  0.00  0.00    +0.000 OA
ATOM     18  C   UNL     1       9.204   9.897  18.700  0.00  0.00    +0.000 C 
BRANCH  18  19
ATOM     19  O   UNL     1       9.449  10.015  20.028  0.00  0.00    +0.000 OA
ATOM     20  H   UNL     1       9.039  10.791  20.457  0.00  0.00    +0.000 HD
ENDBRANCH  18  19
ENDBRANCH  11  18
ENDBRANCH   1  14
BRANCH   8  21
ATOM     21  N   UNL     1       2.158   6.433  20.298  0.00  0.00    +0.000 N 
ATOM     22  H   UNL     1       2.277   6.515  21.306  0.00  0.00    +0.000 HD
BRANCH  21  23
ATOM     23  C   UNL     1       1.870   7.672  19.658  0.00  0.00    +0.000 A 
ATOM     24  C   UNL     1       2.240   7.844  18.309  0.00  0.00    +0.000 A 
ATOM     25  C   UNL     1       1.943   9.022  17.620  0.00  0.00    +0.000 A 
ATOM     26  C   UNL     1       1.284  10.059  18.270  0.00  0.00    +0.000 A 
ATOM     27  C   UNL     1       0.932   9.921  19.612  0.00  0.00    +0.000 A 
ATOM     28  C   UNL     1       1.239   8.746  20.324  0.00  0.00    +0.000 A 
BRANCH  28  29
ATOM     29  C   UNL     1       0.860   8.745  21.768  0.00  0.00    +0.000 C 
ATOM     30  O   UNL     1      -0.291   8.677  22.147  0.00  0.00    +0.000 OA
BRANCH  29  31
ATOM     31  O   UNL     1       1.905   8.852  22.623  0.00  0.00    +0.000 OA
ATOM     32  H   UNL     1       1.852   9.654  23.175  0.00  0.00    +0.000 HD
ENDBRANCH  29  31
ENDBRANCH  28  29
ENDBRANCH  21  23
ENDBRANCH   8  21
TORSDOF 7
ENDMDL
