MODEL 1
REMARK VINA RESULT:      -7.8      0.000      0.000
REMARK  Name = 
REMARK  1 active torsions:
REMARK  status: ('A' for Active; 'I' for Inactive)
REMARK    1  A    between atoms: CB_8  and  CG_9
REMARK                            x       y       z     vdW  Elec       q    Type
REMARK                         _______ _______ _______ _____ _____    ______ ____
ROOT
ATOM      1  O   GLY A   1       7.409   5.728  15.257  0.00  0.00    +0.000 OA
ATOM      2  C   GLY A   1       6.853   5.239  16.237  0.00  0.00    +0.000 C 
ATOM      3  CA  GLY A   1       7.614   4.515  17.338  0.00  0.00    +0.000 C 
ATOM      4  N   GLY A   1       6.859   4.341  18.559  0.00  0.00    +0.000 N 
ATOM      5  C   PHE A   2       5.517   4.063  18.533  0.00  0.00    +0.000 C 
ATOM      6  O   PHE A   2       5.020   3.408  19.440  0.00  0.00    +0.000 OA
ATOM      7  CA  PHE A   2       4.764   4.655  17.362  0.00  0.00    +0.000 C 
ATOM      8  CB  PHE A   2       3.421   4.726  17.330  0.00  0.00    +0.000 C 
ATOM      9  N   PHE A   2       5.483   5.186  16.313  0.00  0.00    +0.000 N 
ATOM     10  H   GLY A   1       7.322   3.884  19.335  0.00  0.00    +0.000 HD
ATOM     11  H   PHE A   2       4.998   5.622  15.541  0.00  0.00    +0.000 HD
ENDROOT
BRANCH   8  12
ATOM     12  CG  PHE A   2       2.494   4.342  18.396  0.00  0.00    +0.000 A 
ATOM     13  CD1 PHE A   2       1.848   3.099  18.341  0.00  0.00    +0.000 A 
ATOM     14  CE1 PHE A   2       1.005   2.702  19.381  0.00  0.00    +0.000 A 
ATOM     15  CZ  PHE A   2       0.808   3.540  20.478  0.00  0.00    +0.000 A 
ATOM     16  CE2 PHE A   2       1.435   4.784  20.526  0.00  0.00    +0.000 A 
ATOM     17  CD2 PHE A   2       2.274   5.188  19.485  0.00  0.00    +0.000 A 
ENDBRANCH   8  12
TORSDOF 1
ENDMDL
MODEL 2
REMARK VINA RESULT:      -7.8      1.284      1.760
REMARK  Name = 
REMARK  1 active torsions:
REMARK  status: ('A' for Active; 'I' for Inactive)
REMARK    1  A    between atoms: CB_8  and  CG_9
REMARK                            x       y       z     vdW  Elec       q    Type
REMARK                         _______ _______ _______ _____ _____    ______ ____
ROOT
ATOM      1  O   GLY A   1       7.488   7.800  16.962  0.00  0.00    +0.000 OA
ATOM      2  C   GLY A   1       6.935   6.890  17.576  0.00  0.00    +0.000 C 
ATOM      3  CA  GLY A   1       7.702   5.873  18.406  0.00  0.00    +0.000 C 
ATOM      4  N   GLY A   1       6.878   5.128  19.331  0.00  0.00    +0.000 N 
ATOM      5  C   PHE A   2       5.611   4.731  18.996  0.00  0.00    +0.000 C 
ATOM      6  O   PHE A   2       5.149   3.708  19.487  0.00  0.00    +0.000 OA
ATOM      7  CA  PHE A   2       4.879   5.658  18.051  0.00  0.00    +0.000 C 
ATOM      8  CB  PHE A   2       3.552   5.581  17.847  0.00  0.00    +0.000 C 
ATOM      9  N   PHE A   2       5.592   6.653  17.416  0.00  0.00    +0.000 N 
ATOM     10  H   GLY A   1       7.339   4.449  19.927  0.00  0.00    +0.000 HD
ATOM     11  H   PHE A   2       5.113   7.307  16.813  0.00  0.00    +0.000 HD
ENDROOT
BRANCH   8  12
ATOM     12  CG  PHE A   2       2.608   4.688  18.523  0.00  0.00    +0.000 A 
ATOM     13  CD1 PHE A   2       2.094   5.040  19.778  0.00  0.00    +0.000 A 
ATOM     14  CE1 PHE A   2       1.151   4.222  20.403  0.00  0.00    +0.000 A 
ATOM     15  CZ  PHE A   2       0.717   3.054  19.776  0.00  0.00    +0.000 A 
ATOM     16  CE2 PHE A   2       1.240   2.692  18.536  0.00  0.00    +0.000 A 
ATOM     17  CD2 PHE A   2       2.188   3.505  17.910  0.00  0.00    +0.000 A 
ENDBRANCH   8  12
TORSDOF 1
ENDMDL
MODEL 3
REMARK VINA RESULT:      -7.8      1.283      1.296
REMARK  Name = 
REMARK  1 active torsions:
REMARK  status: ('A' for Active; 'I' for Inactive)
REMARK    1  A    between atoms: CB_8  and  CG_9
REMARK                            x       y       z     vdW  Elec       q    Type
REMARK                         _______ _______ _______ _____ _____    ______ ____
ROOT
ATOM      1  O   GLY A   1       7.473   7.762  17.011  0.00  0.00    +0.000 OA
ATOM      2  C   GLY A   1       6.896   6.857  17.608  0.00  0.00    +0.000 C 
ATOM      3  CA  GLY A   1       7.637   5.799  18.412  0.00  0.00    +0.000 C 
ATOM      4  N   GLY A   1       6.796   5.058  19.325  0.00  0.00    +0.000 N 
ATOM      5  C   PHE A   2       5.515   4.706  18.989  0.00  0.00    +0.000 C 
ATOM      6  O   PHE A   2       5.026   3.688  19.460  0.00  0.00    +0.000 OA
ATOM      7  CA  PHE A   2       4.806   5.676  18.068  0.00  0.00    +0.000 C 
ATOM      8  CB  PHE A   2       3.477   5.642  17.870  0.00  0.00    +0.000 C 
ATOM      9  N   PHE A   2       5.546   6.663  17.451  0.00  0.00    +0.000 N 
ATOM     10  H   GLY A   1       7.238   4.354  19.903  0.00  0.00    +0.000 HD
ATOM     11  H   PHE A   2       5.084   7.344  16.865  0.00  0.00    +0.000 HD
ENDROOT
BRANCH   8  12
ATOM     12  CG  PHE A   2       2.510   4.763  18.531  0.00  0.00    +0.000 A 
ATOM     13  CD1 PHE A   2       2.114   3.572  17.909  0.00  0.00    +0.000 A 
ATOM     14  CE1 PHE A   2       1.237   2.701  18.559  0.00  0.00    +0.000 A 
ATOM     15  CZ  PHE A   2       0.755   3.016  19.828  0.00  0.00    +0.000 A 
ATOM     16  CE2 PHE A   2       1.133   4.209  20.442  0.00  0.00    +0.000 A 
ATOM     17  CD2 PHE A   2       2.006   5.085  19.794  0.00  0.00    +0.000 A 
ENDBRANCH   8  12
TORSDOF 1
ENDMDL
MODEL 4
REMARK VINA RESULT:      -7.7      0.152      1.256
REMARK  Name = 
REMARK  1 active torsions:
REMARK  status: ('A' for Active; 'I' for Inactive)
REMARK    1  A    between atoms: CB_8  and  CG_9
REMARK                            x       y       z     vdW  Elec       q    Type
REMARK                         _______ _______ _______ _____ _____    ______ ____
ROOT
ATOM      1  O   GLY A   1       7.356   5.610  15.039  0.00  0.00    +0.000 OA
ATOM      2  C   GLY A   1       6.838   5.163  16.060  0.00  0.00    +0.000 C 
ATOM      3  CA  GLY A   1       7.643   4.502  17.169  0.00  0.00    +0.000 C 
ATOM      4  N   GLY A   1       6.929   4.379  18.420  0.00  0.00    +0.000 N 
ATOM      5  C   PHE A   2       5.591   4.086  18.452  0.00  0.00    +0.000 C 
ATOM      6  O   PHE A   2       5.132   3.470  19.405  0.00  0.00    +0.000 OA
ATOM      7  CA  PHE A   2       4.793   4.611  17.279  0.00  0.00    +0.000 C 
ATOM      8  CB  PHE A   2       3.450   4.667  17.287  0.00  0.00    +0.000 C 
ATOM      9  N   PHE A   2       5.472   5.099  16.182  0.00  0.00    +0.000 N 
ATOM     10  H   GLY A   1       7.423   3.965  19.202  0.00  0.00    +0.000 HD
ATOM     11  H   PHE A   2       4.957   5.491  15.407  0.00  0.00    +0.000 HD
ENDROOT
BRANCH   8  12
ATOM     12  CG  PHE A   2       2.561   4.324  18.399  0.00  0.00    +0.000 A 
ATOM     13  CD1 PHE A   2       2.336   5.255  19.422  0.00  0.00    +0.000 A 
ATOM     14  CE1 PHE A   2       1.446   4.957  20.456  0.00  0.00    +0.000 A 
ATOM     15  CZ  PHE A   2       0.779   3.733  20.471  0.00  0.00    +0.000 A 
ATOM     16  CE2 PHE A   2       1.015   2.798  19.465  0.00  0.00    +0.000 A 
ATOM     17  CD2 PHE A   2       1.908   3.089  18.432  0.00  0.00    +0.000 A 
ENDBRANCH   8  12
TORSDOF 1
ENDMDL
MODEL 5
REMARK VINA RESULT:      -7.1      1.535      1.716
REMARK  Name = 
REMARK  1 active torsions:
REMARK  status: ('A' for Active; 'I' for Inactive)
REMARK    1  A    between atoms: CB_8  and  CG_9
REMARK                            x       y       z     vdW  Elec       q    Type
REMARK                         _______ _______ _______ _____ _____    ______ ____
ROOT
ATOM      1  O   GLY A   1       7.526   4.664  15.318  0.00  0.00    +0.000 OA
ATOM      2  C   GLY A   1       6.793   4.903  16.274  0.00  0.00    +0.000 C 
ATOM      3  CA  GLY A   1       6.890   6.189  17.082  0.00  0.00    +0.000 C 
ATOM      4  N   GLY A   1       5.733   6.451  17.909  0.00  0.00    +0.000 N 
ATOM      5  C   PHE A   2       5.070   5.438  18.550  0.00  0.00    +0.000 C 
ATOM      6  O   PHE A   2       4.498   5.667  19.608  0.00  0.00    +0.000 OA
ATOM      7  CA  PHE A   2       5.086   4.107  17.831  0.00  0.00    +0.000 C 
ATOM      8  CB  PHE A   2       4.261   3.098  18.162  0.00  0.00    +0.000 C 
ATOM      9  N   PHE A   2       5.942   3.943  16.762  0.00  0.00    +0.000 N 
ATOM     10  H   GLY A   1       5.731   7.305  18.454  0.00  0.00    +0.000 HD
ATOM     11  H   PHE A   2       5.938   3.076  16.244  0.00  0.00    +0.000 HD
ENDROOT
BRANCH   8  12
ATOM     12  CG  PHE A   2       3.200   3.124  19.170  0.00  0.00    +0.000 A 
ATOM     13  CD1 PHE A   2       1.911   3.541  18.812  0.00  0.00    +0.000 A 
ATOM     14  CE1 PHE A   2       0.880   3.514  19.754  0.00  0.00    +0.000 A 
ATOM     15  CZ  PHE A   2       1.132   3.069  21.050  0.00  0.00    +0.000 A 
ATOM     16  CE2 PHE A   2       2.417   2.671  21.414  0.00  0.00    +0.000 A 
ATOM     17  CD2 PHE A   2       3.452   2.701  20.477  0.00  0.00    +0.000 A 
ENDBRANCH   8  12
TORSDOF 1
ENDMDL
MODEL 6
REMARK VINA RESULT:      -7.1      1.498      1.614
REMARK  Name = 
REMARK  1 active torsions:
REMARK  status: ('A' for Active; 'I' for Inactive)
REMARK    1  A    between atoms: CB_8  and  CG_9
REMARK                            x       y       z     vdW  Elec       q    Type
REMARK                         _______ _______ _______ _____ _____    ______ ____
ROOT
ATOM      1  O   GLY A   1       7.475   4.667  15.151  0.00  0.00    +0.000 OA
ATOM      2  C   GLY A   1       6.836   4.860  16.182  0.00  0.00    +0.000 C 
ATOM      3  CA  GLY A   1       7.166   5.982  17.155  0.00  0.00    +0.000 C 
ATOM      4  N   GLY A   1       6.105   6.278  18.092  0.00  0.00    +0.000 N 
ATOM      5  C   PHE A   2       5.330   5.284  18.629  0.00  0.00    +0.000 C 
ATOM      6  O   PHE A   2       4.853   5.429  19.747  0.00  0.00    +0.000 OA
ATOM      7  CA  PHE A   2       5.109   4.088  17.728  0.00  0.00    +0.000 C 
ATOM      8  CB  PHE A   2       4.159   3.168  17.971  0.00  0.00    +0.000 C 
ATOM      9  N   PHE A   2       5.876   3.968  16.588  0.00  0.00    +0.000 N 
ATOM     10  H   GLY A   1       6.259   7.031  18.752  0.00  0.00    +0.000 HD
ATOM     11  H   PHE A   2       5.714   3.199  15.954  0.00  0.00    +0.000 HD
ENDROOT
BRANCH   8  12
ATOM     12  CG  PHE A   2       3.165   3.191  19.046  0.00  0.00    +0.000 A 
ATOM     13  CD1 PHE A   2       3.465   2.604  20.283  0.00  0.00    +0.000 A 
ATOM     14  CE1 PHE A   2       2.544   2.671  21.331  0.00  0.00    +0.000 A 
ATOM     15  CZ  PHE A   2       1.327   3.325  21.148  0.00  0.00    +0.000 A 
ATOM     16  CE2 PHE A   2       1.019   3.895  19.913  0.00  0.00    +0.000 A 
ATOM     17  CD2 PHE A   2       1.934   3.825  18.861  0.00  0.00    +0.000 A 
ENDBRANCH   8  12
TORSDOF 1
ENDMDL
MODEL 7
REMARK VINA RESULT:      -7.0      1.502      1.881
REMARK  Name = 
REMARK  1 active torsions:
REMARK  status: ('A' for Active; 'I' for Inactive)
REMARK    1  A    between atoms: CB_8  and  CG_9
REMARK                            x       y       z     vdW  Elec       q    Type
REMARK                         _______ _______ _______ _____ _____    ______ ____
ROOT
ATOM      1  O   GLY A   1       7.624   6.418  16.341  0.00  0.00    +0.000 OA
ATOM      2  C   GLY A   1       6.735   5.621  16.629  0.00  0.00    +0.000 C 
ATOM      3  CA  GLY A   1       6.363   4.447  15.735  0.00  0.00    +0.000 C 
ATOM      4  N   GLY A   1       5.574   3.432  16.397  0.00  0.00    +0.000 N 
ATOM      5  C   PHE A   2       4.610   3.763  17.313  0.00  0.00    +0.000 C 
ATOM      6  O   PHE A   2       3.633   3.037  17.448  0.00  0.00    +0.000 OA
ATOM      7  CA  PHE A   2       4.893   5.014  18.115  0.00  0.00    +0.000 C 
ATOM      8  CB  PHE A   2       4.214   5.323  19.234  0.00  0.00    +0.000 C 
ATOM      9  N   PHE A   2       5.920   5.841  17.711  0.00  0.00    +0.000 N 
ATOM     10  H   GLY A   1       5.313   2.615  15.857  0.00  0.00    +0.000 HD
ATOM     11  H   PHE A   2       6.150   6.659  18.257  0.00  0.00    +0.000 HD
ENDROOT
BRANCH   8  12
ATOM     12  CG  PHE A   2       3.187   4.512  19.892  0.00  0.00    +0.000 A 
ATOM     13  CD1 PHE A   2       1.832   4.798  19.679  0.00  0.00    +0.000 A 
ATOM     14  CE1 PHE A   2       0.848   3.995  20.259  0.00  0.00    +0.000 A 
ATOM     15  CZ  PHE A   2       1.213   2.905  21.048  0.00  0.00    +0.000 A 
ATOM     16  CE2 PHE A   2       2.560   2.629  21.277  0.00  0.00    +0.000 A 
ATOM     17  CD2 PHE A   2       3.548   3.433  20.704  0.00  0.00    +0.000 A 
ENDBRANCH   8  12
TORSDOF 1
ENDMDL
MODEL 8
REMARK VINA RESULT:      -6.9      1.354      1.929
REMARK  Name = 
REMARK  1 active torsions:
REMARK  status: ('A' for Active; 'I' for Inactive)
REMARK    1  A    between atoms: CB_8  and  CG_9
REMARK                            x       y       z     vdW  Elec       q    Type
REMARK                         _______ _______ _______ _____ _____    ______ ____
ROOT
ATOM      1  O   GLY A   1       8.478   4.287  17.214  0.00  0.00    +0.000 OA
ATOM      2  C   GLY A   1       7.276   4.535  17.266  0.00  0.00    +0.000 C 
ATOM      3  CA  GLY A   1       6.631   5.650  16.456  0.00  0.00    +0.000 C 
ATOM      4  N   GLY A   1       5.191   5.552  16.364  0.00  0.00    +0.000 N 
ATOM      5  C   PHE A   2       4.436   5.125  17.424  0.00  0.00    +0.000 C 
ATOM      6  O   PHE A   2       3.291   5.537  17.553  0.00  0.00    +0.000 OA
ATOM      7  CA  PHE A   2       5.115   4.121  18.329  0.00  0.00    +0.000 C 
ATOM      8  CB  PHE A   2       4.438   3.391  19.233  0.00  0.00    +0.000 C 
ATOM      9  N   PHE A   2       6.470   3.910  18.185  0.00  0.00    +0.000 N 
ATOM     10  H   GLY A   1       4.708   6.256  15.818  0.00  0.00    +0.000 HD
ATOM     11  H   PHE A   2       6.933   3.214  18.753  0.00  0.00    +0.000 HD
ENDROOT
BRANCH   8  12
ATOM     12  CG  PHE A   2       2.989   3.373  19.443  0.00  0.00    +0.000 A 
ATOM     13  CD1 PHE A   2       2.186   2.512  18.684  0.00  0.00    +0.000 A 
ATOM     14  CE1 PHE A   2       0.811   2.449  18.918  0.00  0.00    +0.000 A 
ATOM     15  CZ  PHE A   2       0.235   3.241  19.910  0.00  0.00    +0.000 A 
ATOM     16  CE2 PHE A   2       1.029   4.112  20.655  0.00  0.00    +0.000 A 
ATOM     17  CD2 PHE A   2       2.404   4.182  20.420  0.00  0.00    +0.000 A 
ENDBRANCH   8  12
TORSDOF 1
ENDMDL
MODEL 9
REMARK VINA RESULT:      -6.9      1.366      2.306
REMARK  Name = 
REMARK  1 active torsions:
REMARK  status: ('A' for Active; 'I' for Inactive)
REMARK    1  A    between atoms: CB_8  and  CG_9
REMARK                            x       y       z     vdW  Elec       q    Type
REMARK                         _______ _______ _______ _____ _____    ______ ____
ROOT
ATOM      1  O   GLY A   1       8.319   4.344  17.045  0.00  0.00    +0.000 OA
ATOM      2  C   GLY A   1       7.111   4.536  17.161  0.00  0.00    +0.000 C 
ATOM      3  CA  GLY A   1       6.372   5.616  16.384  0.00  0.00    +0.000 C 
ATOM      4  N   GLY A   1       4.936   5.450  16.370  0.00  0.00    +0.000 N 
ATOM      5  C   PHE A   2       4.259   4.994  17.470  0.00  0.00    +0.000 C 
ATOM      6  O   PHE A   2       3.105   5.353  17.660  0.00  0.00    +0.000 OA
ATOM      7  CA  PHE A   2       5.032   4.026  18.340  0.00  0.00    +0.000 C 
ATOM      8  CB  PHE A   2       4.439   3.270  19.280  0.00  0.00    +0.000 C 
ATOM      9  N   PHE A   2       6.386   3.878  18.123  0.00  0.00    +0.000 N 
ATOM     10  H   GLY A   1       4.391   6.129  15.850  0.00  0.00    +0.000 HD
ATOM     11  H   PHE A   2       6.911   3.207  18.666  0.00  0.00    +0.000 HD
ENDROOT
BRANCH   8  12
ATOM     12  CG  PHE A   2       3.006   3.185  19.568  0.00  0.00    +0.000 A 
ATOM     13  CD1 PHE A   2       2.448   3.997  20.564  0.00  0.00    +0.000 A 
ATOM     14  CE1 PHE A   2       1.073   3.963  20.806  0.00  0.00    +0.000 A 
ATOM     15  CZ  PHE A   2       0.254   3.124  20.053  0.00  0.00    +0.000 A 
ATOM     16  CE2 PHE A   2       0.808   2.302  19.073  0.00  0.00    +0.000 A 
ATOM     17  CD2 PHE A   2       2.184   2.329  18.832  0.00  0.00    +0.000 A 
ENDBRANCH   8  12
TORSDOF 1
ENDMDL
