MODEL 1
REMARK VINA RESULT:      -7.2      0.000      0.000
REMARK  Name = 
REMARK  6 active torsions:
REMARK  status: ('A' for Active; 'I' for Inactive)
REMARK    1  A    between atoms: C_1  and  O_2
REMARK    2  A    between atoms: O_2  and  C_3
REMARK    3  A    between atoms: C_8  and  C_9
REMARK    4  A    between atoms: C_9  and  N_10
REMARK    5  A    between atoms: C_15  and  C_16
REMARK    6  A    between atoms: C_19  and  C_20
REMARK                            x       y       z     vdW  Elec       q    Type
REMARK                         _______ _______ _______ _____ _____    ______ ____
ROOT
ATOM      1  N   UNL     1       3.646   6.715  18.146  0.00  0.00    +0.000 NA
ATOM      2  C   UNL     1       3.201   5.608  17.276  0.00  0.00    +0.000 C 
ATOM      3  C   UNL     1       4.121   4.419  17.478  0.00  0.00    +0.000 C 
ATOM      4  C   UNL     1       5.144   4.864  18.508  0.00  0.00    +0.000 C 
ATOM      5  O   UNL     1       6.435   4.298  18.312  0.00  0.00    +0.000 OA
ATOM      6  C   UNL     1       7.314   4.939  17.374  0.00  0.00    +0.000 C 
ATOM      7  C   UNL     1       7.383   6.444  17.621  0.00  0.00    +0.000 C 
ATOM      8  C   UNL     1       6.006   7.093  17.597  0.00  0.00    +0.000 C 
ATOM      9  C   UNL     1       5.033   6.392  18.549  0.00  0.00    +0.000 C 
ENDROOT
BRANCH   6  10
ATOM     10  C   UNL     1       6.959   4.566  15.970  0.00  0.00    +0.000 A 
ATOM     11  N   UNL     1       6.199   3.583  15.527  0.00  0.00    +0.000 NA
ATOM     12  N   UNL     1       6.280   3.609  14.153  0.00  0.00    +0.000 NA
ATOM     13  C   UNL     1       7.067   4.618  13.845  0.00  0.00    +0.000 A 
ATOM     14  C   UNL     1       7.526   5.070  12.522  0.00  0.00    +0.000 C 
ATOM     15  O   UNL     1       7.526   5.290  14.948  0.00  0.00    +0.000 OA
ENDBRANCH   6  10
BRANCH   1  16
ATOM     16  C   UNL     1       2.736   6.916  19.295  0.00  0.00    +0.000 C 
BRANCH  16  22
ATOM     17  C   UNL     1       1.201   8.699  20.266  0.00  0.00    +0.000 A 
ATOM     18  N   UNL     1       0.347   9.748  20.193  0.00  0.00    +0.000 NA
ATOM     19  C   UNL     1       0.135  10.284  18.972  0.00  0.00    +0.000 A 
ATOM     20  C   UNL     1       0.773   9.853  17.824  0.00  0.00    +0.000 A 
ATOM     21  C   UNL     1       1.665   8.790  17.929  0.00  0.00    +0.000 A 
ATOM     22  C   UNL     1       1.864   8.155  19.165  0.00  0.00    +0.000 A 
BRANCH  17  24
ATOM     23  C   UNL     1       1.319   9.050  22.577  0.00  0.00    +0.000 C 
ATOM     24  O   UNL     1       1.441   8.126  21.500  0.00  0.00    +0.000 OA
ENDBRANCH  17  24
ENDBRANCH  16  22
ENDBRANCH   1  16
TORSDOF 4
ENDMDL
MODEL 2
REMARK VINA RESULT:      -7.1      3.432      5.211
REMARK  Name = 
REMARK  6 active torsions:
REMARK  status: ('A' for Active; 'I' for Inactive)
REMARK    1  A    between atoms: C_1  and  O_2
REMARK    2  A    between atoms: O_2  and  C_3
REMARK    3  A    between atoms: C_8  and  C_9
REMARK    4  A    between atoms: C_9  and  N_10
REMARK    5  A    between atoms: C_15  and  C_16
REMARK    6  A    between atoms: C_19  and  C_20
REMARK                            x       y       z     vdW  Elec       q    Type
REMARK                         _______ _______ _______ _____ _____    ______ ____
ROOT
ATOM      1  N   UNL     1       3.473   6.138  18.444  0.00  0.00    +0.000 NA
ATOM      2  C   UNL     1       3.675   7.322  17.586  0.00  0.00    +0.000 C 
ATOM      3  C   UNL     1       4.809   7.045  16.618  0.00  0.00    +0.000 C 
ATOM      4  C   UNL     1       5.283   5.638  16.937  0.00  0.00    +0.000 C 
ATOM      5  O   UNL     1       6.682   5.451  16.747  0.00  0.00    +0.000 OA
ATOM      6  C   UNL     1       7.562   5.835  17.816  0.00  0.00    +0.000 C 
ATOM      7  C   UNL     1       7.087   5.270  19.153  0.00  0.00    +0.000 C 
ATOM      8  C   UNL     1       5.652   5.672  19.467  0.00  0.00    +0.000 C 
ATOM      9  C   UNL     1       4.701   5.323  18.319  0.00  0.00    +0.000 C 
ENDROOT
BRANCH   6  10
ATOM     10  C   UNL     1       7.780   7.314  17.820  0.00  0.00    +0.000 A 
ATOM     11  N   UNL     1       7.416   8.221  16.935  0.00  0.00    +0.000 NA
ATOM     12  N   UNL     1       7.952   9.419  17.352  0.00  0.00    +0.000 NA
ATOM     13  C   UNL     1       8.590   9.171  18.476  0.00  0.00    +0.000 A 
ATOM     14  C   UNL     1       9.375  10.083  19.321  0.00  0.00    +0.000 C 
ATOM     15  O   UNL     1       8.512   7.854  18.852  0.00  0.00    +0.000 OA
ENDBRANCH   6  10
BRANCH   1  16
ATOM     16  C   UNL     1       2.242   5.398  18.087  0.00  0.00    +0.000 C 
BRANCH  16  22
ATOM     17  C   UNL     1       1.896   2.938  18.640  0.00  0.00    +0.000 A 
ATOM     18  N   UNL     1       1.528   1.904  19.434  0.00  0.00    +0.000 NA
ATOM     19  C   UNL     1       1.155   2.202  20.696  0.00  0.00    +0.000 A 
ATOM     20  C   UNL     1       1.177   3.481  21.222  0.00  0.00    +0.000 A 
ATOM     21  C   UNL     1       1.583   4.523  20.394  0.00  0.00    +0.000 A 
ATOM     22  C   UNL     1       1.913   4.271  19.052  0.00  0.00    +0.000 A 
BRANCH  17  24
ATOM     23  C   UNL     1       3.534   1.993  17.262  0.00  0.00    +0.000 C 
ATOM     24  O   UNL     1       2.284   2.670  17.341  0.00  0.00    +0.000 OA
ENDBRANCH  17  24
ENDBRANCH  16  22
ENDBRANCH   1  16
TORSDOF 4
ENDMDL
MODEL 3
REMARK VINA RESULT:      -7.1      3.632      5.089
REMARK  Name = 
REMARK  6 active torsions:
REMARK  status: ('A' for Active; 'I' for Inactive)
REMARK    1  A    between atoms: C_1  and  O_2
REMARK    2  A    between atoms: O_2  and  C_3
REMARK    3  A    between atoms: C_8  and  C_9
REMARK    4  A    between atoms: C_9  and  N_10
REMARK    5  A    between atoms: C_15  and  C_16
REMARK    6  A    between atoms: C_19  and  C_20
REMARK                            x       y       z     vdW  Elec       q    Type
REMARK                         _______ _______ _______ _____ _____    ______ ____
ROOT
ATOM      1  N   UNL     1       4.775   2.941  17.873  0.00  0.00    +0.000 NA
ATOM      2  C   UNL     1       5.062   3.779  19.054  0.00  0.00    +0.000 C 
ATOM      3  C   UNL     1       4.686   5.216  18.744  0.00  0.00    +0.000 C 
ATOM      4  C   UNL     1       4.164   5.203  17.318  0.00  0.00    +0.000 C 
ATOM      5  O   UNL     1       4.459   6.392  16.592  0.00  0.00    +0.000 OA
ATOM      6  C   UNL     1       5.748   6.494  15.966  0.00  0.00    +0.000 C 
ATOM      7  C   UNL     1       6.072   5.238  15.160  0.00  0.00    +0.000 C 
ATOM      8  C   UNL     1       5.984   3.975  16.006  0.00  0.00    +0.000 C 
ATOM      9  C   UNL     1       4.638   3.870  16.730  0.00  0.00    +0.000 C 
ENDROOT
BRANCH   6  10
ATOM     10  C   UNL     1       6.797   6.867  16.964  0.00  0.00    +0.000 A 
ATOM     11  N   UNL     1       7.395   6.123  17.874  0.00  0.00    +0.000 NA
ATOM     12  N   UNL     1       8.200   6.966  18.608  0.00  0.00    +0.000 NA
ATOM     13  C   UNL     1       8.057   8.166  18.085  0.00  0.00    +0.000 A 
ATOM     14  C   UNL     1       8.653   9.442  18.508  0.00  0.00    +0.000 C 
ATOM     15  O   UNL     1       7.192   8.183  17.020  0.00  0.00    +0.000 OA
ENDBRANCH   6  10
BRANCH   1  16
ATOM     16  C   UNL     1       3.585   2.086  18.076  0.00  0.00    +0.000 C 
BRANCH  16  22
ATOM     17  C   UNL     1       1.543   3.149  19.160  0.00  0.00    +0.000 A 
ATOM     18  N   UNL     1       0.808   3.596  20.206  0.00  0.00    +0.000 NA
ATOM     19  C   UNL     1       1.301   3.370  21.443  0.00  0.00    +0.000 A 
ATOM     20  C   UNL     1       2.471   2.676  21.688  0.00  0.00    +0.000 A 
ATOM     21  C   UNL     1       3.195   2.206  20.597  0.00  0.00    +0.000 A 
ATOM     22  C   UNL     1       2.759   2.477  19.290  0.00  0.00    +0.000 A 
BRANCH  17  24
ATOM     23  C   UNL     1       1.083   4.735  17.501  0.00  0.00    +0.000 C 
ATOM     24  O   UNL     1       1.069   3.362  17.880  0.00  0.00    +0.000 OA
ENDBRANCH  17  24
ENDBRANCH  16  22
ENDBRANCH   1  16
TORSDOF 4
ENDMDL
MODEL 4
REMARK VINA RESULT:      -7.0      2.265      3.471
REMARK  Name = 
REMARK  6 active torsions:
REMARK  status: ('A' for Active; 'I' for Inactive)
REMARK    1  A    between atoms: C_1  and  O_2
REMARK    2  A    between atoms: O_2  and  C_3
REMARK    3  A    between atoms: C_8  and  C_9
REMARK    4  A    between atoms: C_9  and  N_10
REMARK    5  A    between atoms: C_15  and  C_16
REMARK    6  A    between atoms: C_19  and  C_20
REMARK                            x       y       z     vdW  Elec       q    Type
REMARK                         _______ _______ _______ _____ _____    ______ ____
ROOT
ATOM      1  N   UNL     1       1.888   6.782  20.518  0.00  0.00    +0.000 NA
ATOM      2  C   UNL     1       2.718   7.238  19.386  0.00  0.00    +0.000 C 
ATOM      3  C   UNL     1       2.626   6.221  18.263  0.00  0.00    +0.000 C 
ATOM      4  C   UNL     1       1.703   5.130  18.777  0.00  0.00    +0.000 C 
ATOM      5  O   UNL     1       2.039   3.830  18.303  0.00  0.00    +0.000 OA
ATOM      6  C   UNL     1       3.057   3.100  19.007  0.00  0.00    +0.000 C 
ATOM      7  C   UNL     1       2.803   3.111  20.513  0.00  0.00    +0.000 C 
ATOM      8  C   UNL     1       2.676   4.525  21.063  0.00  0.00    +0.000 C 
ATOM      9  C   UNL     1       1.635   5.342  20.293  0.00  0.00    +0.000 C 
ENDROOT
BRANCH   6  10
ATOM     10  C   UNL     1       4.420   3.574  18.614  0.00  0.00    +0.000 A 
ATOM     11  N   UNL     1       5.435   3.938  19.372  0.00  0.00    +0.000 NA
ATOM     12  N   UNL     1       6.421   4.391  18.523  0.00  0.00    +0.000 NA
ATOM     13  C   UNL     1       5.951   4.255  17.301  0.00  0.00    +0.000 A 
ATOM     14  C   UNL     1       6.571   4.624  16.019  0.00  0.00    +0.000 C 
ATOM     15  O   UNL     1       4.687   3.724  17.273  0.00  0.00    +0.000 OA
ENDBRANCH   6  10
BRANCH   1  16
ATOM     16  C   UNL     1       0.649   7.579  20.652  0.00  0.00    +0.000 C 
BRANCH  16  22
ATOM     17  C   UNL     1       1.050   9.956  21.467  0.00  0.00    +0.000 A 
ATOM     18  N   UNL     1       1.155  11.298  21.317  0.00  0.00    +0.000 NA
ATOM     19  C   UNL     1       1.060  11.784  20.061  0.00  0.00    +0.000 A 
ATOM     20  C   UNL     1       0.913  10.990  18.939  0.00  0.00    +0.000 A 
ATOM     21  C   UNL     1       0.833   9.612  19.118  0.00  0.00    +0.000 A 
ATOM     22  C   UNL     1       0.856   9.066  20.411  0.00  0.00    +0.000 A 
BRANCH  17  24
ATOM     23  C   UNL     1      -0.064   9.544  23.484  0.00  0.00    +0.000 C 
ATOM     24  O   UNL     1       1.143   9.423  22.739  0.00  0.00    +0.000 OA
ENDBRANCH  17  24
ENDBRANCH  16  22
ENDBRANCH   1  16
TORSDOF 4
ENDMDL
MODEL 5
REMARK VINA RESULT:      -6.8      2.663      7.580
REMARK  Name = 
REMARK  6 active torsions:
REMARK  status: ('A' for Active; 'I' for Inactive)
REMARK    1  A    between atoms: C_1  and  O_2
REMARK    2  A    between atoms: O_2  and  C_3
REMARK    3  A    between atoms: C_8  and  C_9
REMARK    4  A    between atoms: C_9  and  N_10
REMARK    5  A    between atoms: C_15  and  C_16
REMARK    6  A    between atoms: C_19  and  C_20
REMARK                            x       y       z     vdW  Elec       q    Type
REMARK                         _______ _______ _______ _____ _____    ______ ____
ROOT
ATOM      1  N   UNL     1       4.777   4.928  16.289  0.00  0.00    +0.000 NA
ATOM      2  C   UNL     1       4.288   6.004  17.173  0.00  0.00    +0.000 C 
ATOM      3  C   UNL     1       4.633   5.660  18.609  0.00  0.00    +0.000 C 
ATOM      4  C   UNL     1       5.350   4.323  18.548  0.00  0.00    +0.000 C 
ATOM      5  O   UNL     1       5.102   3.491  19.676  0.00  0.00    +0.000 OA
ATOM      6  C   UNL     1       3.910   2.689  19.671  0.00  0.00    +0.000 C 
ATOM      7  C   UNL     1       3.763   1.926  18.356  0.00  0.00    +0.000 C 
ATOM      8  C   UNL     1       3.793   2.854  17.149  0.00  0.00    +0.000 C 
ATOM      9  C   UNL     1       5.027   3.759  17.160  0.00  0.00    +0.000 C 
ENDROOT
BRANCH   6  10
ATOM     10  C   UNL     1       2.715   3.510  20.039  0.00  0.00    +0.000 A 
ATOM     11  N   UNL     1       1.433   3.216  19.947  0.00  0.00    +0.000 NA
ATOM     12  N   UNL     1       0.741   4.349  20.314  0.00  0.00    +0.000 NA
ATOM     13  C   UNL     1       1.645   5.253  20.626  0.00  0.00    +0.000 A 
ATOM     14  C   UNL     1       1.458   6.652  21.042  0.00  0.00    +0.000 C 
ATOM     15  O   UNL     1       2.929   4.790  20.494  0.00  0.00    +0.000 OA
ENDBRANCH   6  10
BRANCH   1  16
ATOM     16  C   UNL     1       5.966   5.345  15.514  0.00  0.00    +0.000 C 
BRANCH  16  22
ATOM     17  C   UNL     1       7.222   4.808  13.367  0.00  0.00    +0.000 A 
ATOM     18  N   UNL     1       7.361   4.254  12.138  0.00  0.00    +0.000 NA
ATOM     19  C   UNL     1       6.348   3.479  11.696  0.00  0.00    +0.000 A 
ATOM     20  C   UNL     1       5.221   3.189  12.442  0.00  0.00    +0.000 A 
ATOM     21  C   UNL     1       5.113   3.750  13.711  0.00  0.00    +0.000 A 
ATOM     22  C   UNL     1       6.108   4.619  14.186  0.00  0.00    +0.000 A 
BRANCH  17  24
ATOM     23  C   UNL     1       9.084   6.118  12.825  0.00  0.00    +0.000 C 
ATOM     24  O   UNL     1       8.240   5.606  13.851  0.00  0.00    +0.000 OA
ENDBRANCH  17  24
ENDBRANCH  16  22
ENDBRANCH   1  16
TORSDOF 4
ENDMDL
MODEL 6
REMARK VINA RESULT:      -6.8      2.278      3.669
REMARK  Name = 
REMARK  6 active torsions:
REMARK  status: ('A' for Active; 'I' for Inactive)
REMARK    1  A    between atoms: C_1  and  O_2
REMARK    2  A    between atoms: O_2  and  C_3
REMARK    3  A    between atoms: C_8  and  C_9
REMARK    4  A    between atoms: C_9  and  N_10
REMARK    5  A    between atoms: C_15  and  C_16
REMARK    6  A    between atoms: C_19  and  C_20
REMARK                            x       y       z     vdW  Elec       q    Type
REMARK                         _______ _______ _______ _____ _____    ______ ____
ROOT
ATOM      1  N   UNL     1       2.319   7.756  19.333  0.00  0.00    +0.000 NA
ATOM      2  C   UNL     1       3.339   7.889  18.273  0.00  0.00    +0.000 C 
ATOM      3  C   UNL     1       3.288   6.663  17.381  0.00  0.00    +0.000 C 
ATOM      4  C   UNL     1       2.193   5.784  17.958  0.00  0.00    +0.000 C 
ATOM      5  O   UNL     1       2.447   4.390  17.817  0.00  0.00    +0.000 OA
ATOM      6  C   UNL     1       3.277   3.755  18.803  0.00  0.00    +0.000 C 
ATOM      7  C   UNL     1       2.825   4.112  20.217  0.00  0.00    +0.000 C 
ATOM      8  C   UNL     1       2.779   5.618  20.441  0.00  0.00    +0.000 C 
ATOM      9  C   UNL     1       1.945   6.325  19.370  0.00  0.00    +0.000 C 
ENDROOT
BRANCH   6  10
ATOM     10  C   UNL     1       4.723   4.026  18.536  0.00  0.00    +0.000 A 
ATOM     11  N   UNL     1       5.696   4.306  19.381  0.00  0.00    +0.000 NA
ATOM     12  N   UNL     1       6.814   4.574  18.622  0.00  0.00    +0.000 NA
ATOM     13  C   UNL     1       6.456   4.420  17.365  0.00  0.00    +0.000 A 
ATOM     14  C   UNL     1       7.246   4.623  16.141  0.00  0.00    +0.000 C 
ATOM     15  O   UNL     1       5.141   4.053  17.227  0.00  0.00    +0.000 OA
ENDBRANCH   6  10
BRANCH   1  16
ATOM     16  C   UNL     1       1.166   8.656  19.109  0.00  0.00    +0.000 C 
BRANCH  16  22
ATOM     17  C   UNL     1       0.743  10.627  20.662  0.00  0.00    +0.000 A 
ATOM     18  N   UNL     1       0.348  11.206  21.821  0.00  0.00    +0.000 NA
ATOM     19  C   UNL     1      -0.196  10.400  22.756  0.00  0.00    +0.000 A 
ATOM     20  C   UNL     1      -0.410   9.047  22.573  0.00  0.00    +0.000 A 
ATOM     21  C   UNL     1      -0.019   8.479  21.364  0.00  0.00    +0.000 A 
ATOM     22  C   UNL     1       0.616   9.264  20.389  0.00  0.00    +0.000 A 
BRANCH  17  24
ATOM     23  C   UNL     1       0.505  12.555  19.358  0.00  0.00    +0.000 C 
ATOM     24  O   UNL     1       1.304  11.422  19.682  0.00  0.00    +0.000 OA
ENDBRANCH  17  24
ENDBRANCH  16  22
ENDBRANCH   1  16
TORSDOF 4
ENDMDL
MODEL 7
REMARK VINA RESULT:      -6.7      3.882      5.393
REMARK  Name = 
REMARK  6 active torsions:
REMARK  status: ('A' for Active; 'I' for Inactive)
REMARK    1  A    between atoms: C_1  and  O_2
REMARK    2  A    between atoms: O_2  and  C_3
REMARK    3  A    between atoms: C_8  and  C_9
REMARK    4  A    between atoms: C_9  and  N_10
REMARK    5  A    between atoms: C_15  and  C_16
REMARK    6  A    between atoms: C_19  and  C_20
REMARK                            x       y       z     vdW  Elec       q    Type
REMARK                         _______ _______ _______ _____ _____    ______ ____
ROOT
ATOM      1  N   UNL     1       4.716   3.186  17.819  0.00  0.00    +0.000 NA
ATOM      2  C   UNL     1       5.096   3.980  19.004  0.00  0.00    +0.000 C 
ATOM      3  C   UNL     1       4.712   5.429  18.773  0.00  0.00    +0.000 C 
ATOM      4  C   UNL     1       4.088   5.470  17.389  0.00  0.00    +0.000 C 
ATOM      5  O   UNL     1       4.340   6.682  16.685  0.00  0.00    +0.000 OA
ATOM      6  C   UNL     1       5.581   6.797  15.970  0.00  0.00    +0.000 C 
ATOM      7  C   UNL     1       5.834   5.568  15.100  0.00  0.00    +0.000 C 
ATOM      8  C   UNL     1       5.795   4.277  15.907  0.00  0.00    +0.000 C 
ATOM      9  C   UNL     1       4.505   4.155  16.722  0.00  0.00    +0.000 C 
ENDROOT
BRANCH   6  10
ATOM     10  C   UNL     1       6.703   7.128  16.902  0.00  0.00    +0.000 A 
ATOM     11  N   UNL     1       7.377   6.342  17.719  0.00  0.00    +0.000 NA
ATOM     12  N   UNL     1       8.232   7.154  18.433  0.00  0.00    +0.000 NA
ATOM     13  C   UNL     1       8.039   8.378  17.990  0.00  0.00    +0.000 A 
ATOM     14  C   UNL     1       8.658   9.636  18.434  0.00  0.00    +0.000 C 
ATOM     15  O   UNL     1       7.092   8.443  16.999  0.00  0.00    +0.000 OA
ENDBRANCH   6  10
BRANCH   1  16
ATOM     16  C   UNL     1       3.536   2.332  18.079  0.00  0.00    +0.000 C 
BRANCH  16  22
ATOM     17  C   UNL     1       3.530   2.141  20.617  0.00  0.00    +0.000 A 
ATOM     18  N   UNL     1       2.977   2.249  21.849  0.00  0.00    +0.000 NA
ATOM     19  C   UNL     1       1.748   2.802  21.924  0.00  0.00    +0.000 A 
ATOM     20  C   UNL     1       1.062   3.299  20.832  0.00  0.00    +0.000 A 
ATOM     21  C   UNL     1       1.661   3.199  19.580  0.00  0.00    +0.000 A 
ATOM     22  C   UNL     1       2.907   2.568  19.443  0.00  0.00    +0.000 A 
BRANCH  17  24
ATOM     23  C   UNL     1       5.250   0.996  21.716  0.00  0.00    +0.000 C 
ATOM     24  O   UNL     1       4.787   1.580  20.502  0.00  0.00    +0.000 OA
ENDBRANCH  17  24
ENDBRANCH  16  22
ENDBRANCH   1  16
TORSDOF 4
ENDMDL
MODEL 8
REMARK VINA RESULT:      -6.6      3.163      4.933
REMARK  Name = 
REMARK  6 active torsions:
REMARK  status: ('A' for Active; 'I' for Inactive)
REMARK    1  A    between atoms: C_1  and  O_2
REMARK    2  A    between atoms: O_2  and  C_3
REMARK    3  A    between atoms: C_8  and  C_9
REMARK    4  A    between atoms: C_9  and  N_10
REMARK    5  A    between atoms: C_15  and  C_16
REMARK    6  A    between atoms: C_19  and  C_20
REMARK                            x       y       z     vdW  Elec       q    Type
REMARK                         _______ _______ _______ _____ _____    ______ ____
ROOT
ATOM      1  N   UNL     1       3.376   6.225  18.292  0.00  0.00    +0.000 NA
ATOM      2  C   UNL     1       3.627   7.438  17.488  0.00  0.00    +0.000 C 
ATOM      3  C   UNL     1       4.782   7.173  16.541  0.00  0.00    +0.000 C 
ATOM      4  C   UNL     1       5.217   5.744  16.817  0.00  0.00    +0.000 C 
ATOM      5  O   UNL     1       6.616   5.533  16.658  0.00  0.00    +0.000 OA
ATOM      6  C   UNL     1       7.474   5.855  17.765  0.00  0.00    +0.000 C 
ATOM      7  C   UNL     1       6.949   5.249  19.065  0.00  0.00    +0.000 C 
ATOM      8  C   UNL     1       5.515   5.670  19.355  0.00  0.00    +0.000 C 
ATOM      9  C   UNL     1       4.589   5.388  18.169  0.00  0.00    +0.000 C 
ENDROOT
BRANCH   6  10
ATOM     10  C   UNL     1       7.724   7.328  17.834  0.00  0.00    +0.000 A 
ATOM     11  N   UNL     1       7.344   8.285  17.011  0.00  0.00    +0.000 NA
ATOM     12  N   UNL     1       7.921   9.450  17.466  0.00  0.00    +0.000 NA
ATOM     13  C   UNL     1       8.598   9.132  18.548  0.00  0.00    +0.000 A 
ATOM     14  C   UNL     1       9.436   9.985  19.405  0.00  0.00    +0.000 C 
ATOM     15  O   UNL     1       8.508   7.800  18.861  0.00  0.00    +0.000 OA
ENDBRANCH   6  10
BRANCH   1  16
ATOM     16  C   UNL     1       2.140   5.528  17.873  0.00  0.00    +0.000 C 
BRANCH  16  22
ATOM     17  C   UNL     1       1.663   3.619  19.486  0.00  0.00    +0.000 A 
ATOM     18  N   UNL     1       1.702   2.329  19.899  0.00  0.00    +0.000 NA
ATOM     19  C   UNL     1       2.224   1.426  19.043  0.00  0.00    +0.000 A 
ATOM     20  C   UNL     1       2.666   1.740  17.771  0.00  0.00    +0.000 A 
ATOM     21  C   UNL     1       2.592   3.067  17.360  0.00  0.00    +0.000 A 
ATOM     22  C   UNL     1       2.122   4.053  18.242  0.00  0.00    +0.000 A 
BRANCH  17  24
ATOM     23  C   UNL     1       2.078   5.055  21.286  0.00  0.00    +0.000 C 
ATOM     24  O   UNL     1       1.134   4.570  20.337  0.00  0.00    +0.000 OA
ENDBRANCH  17  24
ENDBRANCH  16  22
ENDBRANCH   1  16
TORSDOF 4
ENDMDL
MODEL 9
REMARK VINA RESULT:      -6.6      2.995      4.661
REMARK  Name = 
REMARK  6 active torsions:
REMARK  status: ('A' for Active; 'I' for Inactive)
REMARK    1  A    between atoms: C_1  and  O_2
REMARK    2  A    between atoms: O_2  and  C_3
REMARK    3  A    between atoms: C_8  and  C_9
REMARK    4  A    between atoms: C_9  and  N_10
REMARK    5  A    between atoms: C_15  and  C_16
REMARK    6  A    between atoms: C_19  and  C_20
REMARK                            x       y       z     vdW  Elec       q    Type
REMARK                         _______ _______ _______ _____ _____    ______ ____
ROOT
ATOM      1  N   UNL     1       3.632   5.963  18.264  0.00  0.00    +0.000 NA
ATOM      2  C   UNL     1       3.808   7.178  17.444  0.00  0.00    +0.000 C 
ATOM      3  C   UNL     1       4.999   6.986  16.524  0.00  0.00    +0.000 C 
ATOM      4  C   UNL     1       5.533   5.599  16.832  0.00  0.00    +0.000 C 
ATOM      5  O   UNL     1       6.947   5.490  16.705  0.00  0.00    +0.000 OA
ATOM      6  C   UNL     1       7.755   5.893  17.822  0.00  0.00    +0.000 C 
ATOM      7  C   UNL     1       7.251   5.269  19.122  0.00  0.00    +0.000 C 
ATOM      8  C   UNL     1       5.783   5.586  19.377  0.00  0.00    +0.000 C 
ATOM      9  C   UNL     1       4.906   5.217  18.178  0.00  0.00    +0.000 C 
ENDROOT
BRANCH   6  10
ATOM     10  C   UNL     1       7.893   7.381  17.871  0.00  0.00    +0.000 A 
ATOM     11  N   UNL     1       7.459   8.294  17.025  0.00  0.00    +0.000 NA
ATOM     12  N   UNL     1       7.938   9.506  17.471  0.00  0.00    +0.000 NA
ATOM     13  C   UNL     1       8.617   9.257  18.571  0.00  0.00    +0.000 A 
ATOM     14  C   UNL     1       9.372  10.183  19.429  0.00  0.00    +0.000 C 
ATOM     15  O   UNL     1       8.620   7.926  18.904  0.00  0.00    +0.000 OA
ENDBRANCH   6  10
BRANCH   1  16
ATOM     16  C   UNL     1       2.460   5.169  17.832  0.00  0.00    +0.000 C 
BRANCH  16  22
ATOM     17  C   UNL     1       1.906   4.596  20.249  0.00  0.00    +0.000 A 
ATOM     18  N   UNL     1       1.534   3.767  21.254  0.00  0.00    +0.000 NA
ATOM     19  C   UNL     1       1.182   2.509  20.914  0.00  0.00    +0.000 A 
ATOM     20  C   UNL     1       1.137   2.050  19.610  0.00  0.00    +0.000 A 
ATOM     21  C   UNL     1       1.500   2.928  18.594  0.00  0.00    +0.000 A 
ATOM     22  C   UNL     1       1.941   4.224  18.905  0.00  0.00    +0.000 A 
BRANCH  17  24
ATOM     23  C   UNL     1       1.168   6.706  20.940  0.00  0.00    +0.000 C 
ATOM     24  O   UNL     1       2.272   5.891  20.561  0.00  0.00    +0.000 OA
ENDBRANCH  17  24
ENDBRANCH  16  22
ENDBRANCH   1  16
TORSDOF 4
ENDMDL
