MODEL 1
REMARK VINA RESULT:      -7.8      0.000      0.000
REMARK  Name = 
REMARK  2 active torsions:
REMARK  status: ('A' for Active; 'I' for Inactive)
REMARK    1  A    between atoms: C_4  and  N_5
REMARK    2  A    between atoms: N_5  and  C_6
REMARK                            x       y       z     vdW  Elec       q    Type
REMARK                         _______ _______ _______ _____ _____    ______ ____
ROOT
ATOM      1  N   UNL     1       5.925   3.883  18.888  0.00  0.00    +0.000 N 
ATOM      2  H   UNL     1       6.548   3.095  19.047  0.00  0.00    +0.000 HD
ENDROOT
BRANCH   1   3
ATOM      3  C   UNL     1       6.584   4.884  18.145  0.00  0.00    +0.000 A 
ATOM      4  N   UNL     1       7.078   6.013  18.727  0.00  0.00    +0.000 NA
ATOM      5  C   UNL     1       7.621   6.979  17.960  0.00  0.00    +0.000 A 
ATOM      6  N   UNL     1       7.756   6.993  16.622  0.00  0.00    +0.000 NA
ATOM      7  C   UNL     1       7.274   5.862  16.089  0.00  0.00    +0.000 A 
ATOM      8  N   UNL     1       7.216   5.548  14.765  0.00  0.00    +0.000 N 
ATOM      9  C   UNL     1       6.640   4.310  14.660  0.00  0.00    +0.000 A 
ATOM     10  N   UNL     1       6.313   3.818  15.838  0.00  0.00    +0.000 NA
ATOM     11  C   UNL     1       6.704   4.785  16.745  0.00  0.00    +0.000 A 
ATOM     12  H   UNL     1       7.524   6.144  14.011  0.00  0.00    +0.000 HD
ENDBRANCH   1   3
BRANCH   1  16
ATOM     13  F   UNL     1       1.388   4.588  17.423  0.00  0.00    +0.000 F 
ATOM     14  C   UNL     1       2.255   3.895  18.176  0.00  0.00    +0.000 A 
ATOM     15  C   UNL     1       3.591   4.290  18.185  0.00  0.00    +0.000 A 
ATOM     16  C   UNL     1       4.550   3.576  18.914  0.00  0.00    +0.000 A 
ATOM     17  C   UNL     1       4.104   2.503  19.703  0.00  0.00    +0.000 A 
ATOM     18  C   UNL     1       2.759   2.109  19.698  0.00  0.00    +0.000 A 
ATOM     19  C   UNL     1       1.837   2.801  18.918  0.00  0.00    +0.000 A 
ATOM     20 CL   UNL     1       0.195   2.287  18.878  0.00  0.00    +0.000 Cl
ENDBRANCH   1  16
TORSDOF 2
ENDMDL
MODEL 2
REMARK VINA RESULT:      -7.5      1.909      2.239
REMARK  Name = 
REMARK  2 active torsions:
REMARK  status: ('A' for Active; 'I' for Inactive)
REMARK    1  A    between atoms: C_4  and  N_5
REMARK    2  A    between atoms: N_5  and  C_6
REMARK                            x       y       z     vdW  Elec       q    Type
REMARK                         _______ _______ _______ _____ _____    ______ ____
ROOT
ATOM      1  N   UNL     1       3.790   4.325  16.952  0.00  0.00    +0.000 N 
ATOM      2  H   UNL     1       3.139   4.640  16.236  0.00  0.00    +0.000 HD
ENDROOT
BRANCH   1   3
ATOM      3  C   UNL     1       5.025   4.990  16.816  0.00  0.00    +0.000 A 
ATOM      4  N   UNL     1       5.469   5.894  17.736  0.00  0.00    +0.000 NA
ATOM      5  C   UNL     1       6.615   6.567  17.514  0.00  0.00    +0.000 A 
ATOM      6  N   UNL     1       7.436   6.472  16.453  0.00  0.00    +0.000 NA
ATOM      7  C   UNL     1       6.976   5.566  15.581  0.00  0.00    +0.000 A 
ATOM      8  N   UNL     1       7.532   5.235  14.382  0.00  0.00    +0.000 N 
ATOM      9  C   UNL     1       6.735   4.281  13.808  0.00  0.00    +0.000 A 
ATOM     10  N   UNL     1       5.694   3.991  14.561  0.00  0.00    +0.000 NA
ATOM     11  C   UNL     1       5.831   4.794  15.678  0.00  0.00    +0.000 A 
ATOM     12  H   UNL     1       8.368   5.647  13.995  0.00  0.00    +0.000 HD
ENDBRANCH   1   3
BRANCH   1  16
ATOM     13  F   UNL     1       4.028   2.087  21.214  0.00  0.00    +0.000 F 
ATOM     14  C   UNL     1       3.288   2.715  20.288  0.00  0.00    +0.000 A 
ATOM     15  C   UNL     1       3.903   3.119  19.106  0.00  0.00    +0.000 A 
ATOM     16  C   UNL     1       3.193   3.821  18.124  0.00  0.00    +0.000 A 
ATOM     17  C   UNL     1       1.818   4.024  18.334  0.00  0.00    +0.000 A 
ATOM     18  C   UNL     1       1.197   3.611  19.520  0.00  0.00    +0.000 A 
ATOM     19  C   UNL     1       1.941   2.968  20.506  0.00  0.00    +0.000 A 
ATOM     20 CL   UNL     1       1.186   2.504  21.981  0.00  0.00    +0.000 Cl
ENDBRANCH   1  16
TORSDOF 2
ENDMDL
MODEL 3
REMARK VINA RESULT:      -7.5      1.266      1.672
REMARK  Name = 
REMARK  2 active torsions:
REMARK  status: ('A' for Active; 'I' for Inactive)
REMARK    1  A    between atoms: C_4  and  N_5
REMARK    2  A    between atoms: N_5  and  C_6
REMARK                            x       y       z     vdW  Elec       q    Type
REMARK                         _______ _______ _______ _____ _____    ______ ____
ROOT
ATOM      1  N   UNL     1       5.926   3.643  18.760  0.00  0.00    +0.000 N 
ATOM      2  H   UNL     1       6.462   2.784  18.658  0.00  0.00    +0.000 HD
ENDROOT
BRANCH   1   3
ATOM      3  C   UNL     1       6.545   4.692  18.052  0.00  0.00    +0.000 A 
ATOM      4  N   UNL     1       6.995   5.820  18.671  0.00  0.00    +0.000 NA
ATOM      5  C   UNL     1       7.500   6.831  17.936  0.00  0.00    +0.000 A 
ATOM      6  N   UNL     1       7.634   6.894  16.600  0.00  0.00    +0.000 NA
ATOM      7  C   UNL     1       7.197   5.764  16.029  0.00  0.00    +0.000 A 
ATOM      8  N   UNL     1       7.151   5.491  14.696  0.00  0.00    +0.000 N 
ATOM      9  C   UNL     1       6.623   4.236  14.550  0.00  0.00    +0.000 A 
ATOM     10  N   UNL     1       6.316   3.693  15.710  0.00  0.00    +0.000 NA
ATOM     11  C   UNL     1       6.669   4.644  16.650  0.00  0.00    +0.000 A 
ATOM     12  H   UNL     1       7.436   6.123  13.963  0.00  0.00    +0.000 HD
ENDBRANCH   1   3
BRANCH   1  16
ATOM     13  F   UNL     1       2.328   2.187  21.618  0.00  0.00    +0.000 F 
ATOM     14  C   UNL     1       2.721   2.760  20.470  0.00  0.00    +0.000 A 
ATOM     15  C   UNL     1       4.085   2.836  20.197  0.00  0.00    +0.000 A 
ATOM     16  C   UNL     1       4.556   3.465  19.039  0.00  0.00    +0.000 A 
ATOM     17  C   UNL     1       3.604   3.938  18.120  0.00  0.00    +0.000 A 
ATOM     18  C   UNL     1       2.231   3.857  18.391  0.00  0.00    +0.000 A 
ATOM     19  C   UNL     1       1.792   3.279  19.579  0.00  0.00    +0.000 A 
ATOM     20 CL   UNL     1       0.109   3.221  19.931  0.00  0.00    +0.000 Cl
ENDBRANCH   1  16
TORSDOF 2
ENDMDL
MODEL 4
REMARK VINA RESULT:      -7.5      1.858      2.053
REMARK  Name = 
REMARK  2 active torsions:
REMARK  status: ('A' for Active; 'I' for Inactive)
REMARK    1  A    between atoms: C_4  and  N_5
REMARK    2  A    between atoms: N_5  and  C_6
REMARK                            x       y       z     vdW  Elec       q    Type
REMARK                         _______ _______ _______ _____ _____    ______ ____
ROOT
ATOM      1  N   UNL     1       3.503   6.092  17.367  0.00  0.00    +0.000 N 
ATOM      2  H   UNL     1       3.020   6.952  17.114  0.00  0.00    +0.000 HD
ENDROOT
BRANCH   1   3
ATOM      3  C   UNL     1       4.886   6.220  17.128  0.00  0.00    +0.000 A 
ATOM      4  N   UNL     1       5.626   7.230  17.667  0.00  0.00    +0.000 NA
ATOM      5  C   UNL     1       6.926   7.357  17.335  0.00  0.00    +0.000 A 
ATOM      6  N   UNL     1       7.645   6.587  16.501  0.00  0.00    +0.000 NA
ATOM      7  C   UNL     1       6.889   5.598  16.004  0.00  0.00    +0.000 A 
ATOM      8  N   UNL     1       7.277   4.651  15.105  0.00  0.00    +0.000 N 
ATOM      9  C   UNL     1       6.195   3.849  14.860  0.00  0.00    +0.000 A 
ATOM     10  N   UNL     1       5.133   4.234  15.538  0.00  0.00    +0.000 NA
ATOM     11  C   UNL     1       5.555   5.335  16.261  0.00  0.00    +0.000 A 
ATOM     12  H   UNL     1       8.193   4.586  14.689  0.00  0.00    +0.000 HD
ENDBRANCH   1   3
BRANCH   1  16
ATOM     13  F   UNL     1       0.578   2.476  18.631  0.00  0.00    +0.000 F 
ATOM     14  C   UNL     1       1.399   3.470  19.002  0.00  0.00    +0.000 A 
ATOM     15  C   UNL     1       1.951   4.281  18.013  0.00  0.00    +0.000 A 
ATOM     16  C   UNL     1       2.852   5.303  18.336  0.00  0.00    +0.000 A 
ATOM     17  C   UNL     1       3.110   5.539  19.697  0.00  0.00    +0.000 A 
ATOM     18  C   UNL     1       2.550   4.728  20.693  0.00  0.00    +0.000 A 
ATOM     19  C   UNL     1       1.703   3.680  20.339  0.00  0.00    +0.000 A 
ATOM     20 CL   UNL     1       1.053   2.657  21.560  0.00  0.00    +0.000 Cl
ENDBRANCH   1  16
TORSDOF 2
ENDMDL
MODEL 5
REMARK VINA RESULT:      -7.5      1.464      1.571
REMARK  Name = 
REMARK  2 active torsions:
REMARK  status: ('A' for Active; 'I' for Inactive)
REMARK    1  A    between atoms: C_4  and  N_5
REMARK    2  A    between atoms: N_5  and  C_6
REMARK                            x       y       z     vdW  Elec       q    Type
REMARK                         _______ _______ _______ _____ _____    ______ ____
ROOT
ATOM      1  N   UNL     1       4.627   3.340  17.449  0.00  0.00    +0.000 N 
ATOM      2  H   UNL     1       4.203   3.026  16.579  0.00  0.00    +0.000 HD
ENDROOT
BRANCH   1   3
ATOM      3  C   UNL     1       5.621   4.304  17.189  0.00  0.00    +0.000 A 
ATOM      4  N   UNL     1       6.021   5.208  18.128  0.00  0.00    +0.000 NA
ATOM      5  C   UNL     1       6.911   6.165  17.801  0.00  0.00    +0.000 A 
ATOM      6  N   UNL     1       7.499   6.373  16.610  0.00  0.00    +0.000 NA
ATOM      7  C   UNL     1       7.094   5.459  15.718  0.00  0.00    +0.000 A 
ATOM      8  N   UNL     1       7.457   5.384  14.408  0.00  0.00    +0.000 N 
ATOM      9  C   UNL     1       6.803   4.312  13.860  0.00  0.00    +0.000 A 
ATOM     10  N   UNL     1       6.031   3.705  14.738  0.00  0.00    +0.000 NA
ATOM     11  C   UNL     1       6.203   4.417  15.911  0.00  0.00    +0.000 A 
ATOM     12  H   UNL     1       8.078   6.026  13.939  0.00  0.00    +0.000 HD
ENDBRANCH   1   3
BRANCH   1  16
ATOM     13  F   UNL     1       0.468   3.967  19.801  0.00  0.00    +0.000 F 
ATOM     14  C   UNL     1       1.722   3.491  19.796  0.00  0.00    +0.000 A 
ATOM     15  C   UNL     1       2.516   3.721  18.676  0.00  0.00    +0.000 A 
ATOM     16  C   UNL     1       3.816   3.207  18.593  0.00  0.00    +0.000 A 
ATOM     17  C   UNL     1       4.321   2.527  19.715  0.00  0.00    +0.000 A 
ATOM     18  C   UNL     1       3.524   2.300  20.845  0.00  0.00    +0.000 A 
ATOM     19  C   UNL     1       2.214   2.772  20.876  0.00  0.00    +0.000 A 
ATOM     20 CL   UNL     1       1.222   2.452  22.245  0.00  0.00    +0.000 Cl
ENDBRANCH   1  16
TORSDOF 2
ENDMDL
MODEL 6
REMARK VINA RESULT:      -7.4      1.201      1.458
REMARK  Name = 
REMARK  2 active torsions:
REMARK  status: ('A' for Active; 'I' for Inactive)
REMARK    1  A    between atoms: C_4  and  N_5
REMARK    2  A    between atoms: N_5  and  C_6
REMARK                            x       y       z     vdW  Elec       q    Type
REMARK                         _______ _______ _______ _____ _____    ______ ____
ROOT
ATOM      1  N   UNL     1       6.008   3.967  19.004  0.00  0.00    +0.000 N 
ATOM      2  H   UNL     1       6.566   3.118  19.048  0.00  0.00    +0.000 HD
ENDROOT
BRANCH   1   3
ATOM      3  C   UNL     1       6.658   4.937  18.214  0.00  0.00    +0.000 A 
ATOM      4  N   UNL     1       7.205   6.064  18.752  0.00  0.00    +0.000 NA
ATOM      5  C   UNL     1       7.737   7.001  17.943  0.00  0.00    +0.000 A 
ATOM      6  N   UNL     1       7.813   6.988  16.601  0.00  0.00    +0.000 NA
ATOM      7  C   UNL     1       7.281   5.860  16.111  0.00  0.00    +0.000 A 
ATOM      8  N   UNL     1       7.157   5.523  14.797  0.00  0.00    +0.000 N 
ATOM      9  C   UNL     1       6.547   4.298  14.742  0.00  0.00    +0.000 A 
ATOM     10  N   UNL     1       6.260   3.836  15.942  0.00  0.00    +0.000 NA
ATOM     11  C   UNL     1       6.714   4.810  16.813  0.00  0.00    +0.000 A 
ATOM     12  H   UNL     1       7.447   6.097  14.020  0.00  0.00    +0.000 HD
ENDBRANCH   1   3
BRANCH   1  16
ATOM     13  F   UNL     1       2.042   1.230  19.050  0.00  0.00    +0.000 F 
ATOM     14  C   UNL     1       2.613   2.426  19.260  0.00  0.00    +0.000 A 
ATOM     15  C   UNL     1       3.965   2.579  18.963  0.00  0.00    +0.000 A 
ATOM     16  C   UNL     1       4.626   3.789  19.207  0.00  0.00    +0.000 A 
ATOM     17  C   UNL     1       3.858   4.868  19.677  0.00  0.00    +0.000 A 
ATOM     18  C   UNL     1       2.496   4.716  19.970  0.00  0.00    +0.000 A 
ATOM     19  C   UNL     1       1.878   3.484  19.774  0.00  0.00    +0.000 A 
ATOM     20 CL   UNL     1       0.217   3.287  20.179  0.00  0.00    +0.000 Cl
ENDBRANCH   1  16
TORSDOF 2
ENDMDL
MODEL 7
REMARK VINA RESULT:      -7.4      1.572      2.862
REMARK  Name = 
REMARK  2 active torsions:
REMARK  status: ('A' for Active; 'I' for Inactive)
REMARK    1  A    between atoms: C_4  and  N_5
REMARK    2  A    between atoms: N_5  and  C_6
REMARK                            x       y       z     vdW  Elec       q    Type
REMARK                         _______ _______ _______ _____ _____    ______ ____
ROOT
ATOM      1  N   UNL     1       4.951   2.895  16.860  0.00  0.00    +0.000 N 
ATOM      2  H   UNL     1       4.874   2.007  16.370  0.00  0.00    +0.000 HD
ENDROOT
BRANCH   1   3
ATOM      3  C   UNL     1       5.727   3.801  16.110  0.00  0.00    +0.000 A 
ATOM      4  N   UNL     1       5.972   3.621  14.781  0.00  0.00    +0.000 NA
ATOM      5  C   UNL     1       6.792   4.469  14.130  0.00  0.00    +0.000 A 
ATOM      6  N   UNL     1       7.444   5.534  14.629  0.00  0.00    +0.000 NA
ATOM      7  C   UNL     1       7.167   5.688  15.930  0.00  0.00    +0.000 A 
ATOM      8  N   UNL     1       7.675   6.639  16.763  0.00  0.00    +0.000 N 
ATOM      9  C   UNL     1       7.141   6.425  18.006  0.00  0.00    +0.000 A 
ATOM     10  N   UNL     1       6.331   5.386  18.022  0.00  0.00    +0.000 NA
ATOM     11  C   UNL     1       6.340   4.911  16.723  0.00  0.00    +0.000 A 
ATOM     12  H   UNL     1       8.341   7.348  16.498  0.00  0.00    +0.000 HD
ENDBRANCH   1   3
BRANCH   1  16
ATOM     13  F   UNL     1       3.024   2.863  21.277  0.00  0.00    +0.000 F 
ATOM     14  C   UNL     1       2.916   3.194  19.981  0.00  0.00    +0.000 A 
ATOM     15  C   UNL     1       3.938   2.818  19.112  0.00  0.00    +0.000 A 
ATOM     16  C   UNL     1       3.904   3.177  17.759  0.00  0.00    +0.000 A 
ATOM     17  C   UNL     1       2.763   3.851  17.292  0.00  0.00    +0.000 A 
ATOM     18  C   UNL     1       1.732   4.223  18.164  0.00  0.00    +0.000 A 
ATOM     19  C   UNL     1       1.820   3.905  19.517  0.00  0.00    +0.000 A 
ATOM     20 CL   UNL     1       0.575   4.404  20.595  0.00  0.00    +0.000 Cl
ENDBRANCH   1  16
TORSDOF 2
ENDMDL
MODEL 8
REMARK VINA RESULT:      -7.3      1.867      2.862
REMARK  Name = 
REMARK  2 active torsions:
REMARK  status: ('A' for Active; 'I' for Inactive)
REMARK    1  A    between atoms: C_4  and  N_5
REMARK    2  A    between atoms: N_5  and  C_6
REMARK                            x       y       z     vdW  Elec       q    Type
REMARK                         _______ _______ _______ _____ _____    ______ ____
ROOT
ATOM      1  N   UNL     1       3.467   5.626  17.414  0.00  0.00    +0.000 N 
ATOM      2  H   UNL     1       3.303   6.630  17.398  0.00  0.00    +0.000 HD
ENDROOT
BRANCH   1   3
ATOM      3  C   UNL     1       4.689   5.321  16.781  0.00  0.00    +0.000 A 
ATOM      4  N   UNL     1       4.871   4.174  16.068  0.00  0.00    +0.000 NA
ATOM      5  C   UNL     1       6.085   3.889  15.556  0.00  0.00    +0.000 A 
ATOM      6  N   UNL     1       7.212   4.616  15.650  0.00  0.00    +0.000 NA
ATOM      7  C   UNL     1       6.990   5.741  16.343  0.00  0.00    +0.000 A 
ATOM      8  N   UNL     1       7.909   6.694  16.662  0.00  0.00    +0.000 N 
ATOM      9  C   UNL     1       7.265   7.662  17.386  0.00  0.00    +0.000 A 
ATOM     10  N   UNL     1       5.990   7.378  17.562  0.00  0.00    +0.000 NA
ATOM     11  C   UNL     1       5.804   6.171  16.913  0.00  0.00    +0.000 A 
ATOM     12  H   UNL     1       8.888   6.662  16.420  0.00  0.00    +0.000 HD
ENDBRANCH   1   3
BRANCH   1  16
ATOM     13  F   UNL     1       0.310   2.361  19.027  0.00  0.00    +0.000 F 
ATOM     14  C   UNL     1       1.257   3.272  19.298  0.00  0.00    +0.000 A 
ATOM     15  C   UNL     1       1.802   3.999  18.242  0.00  0.00    +0.000 A 
ATOM     16  C   UNL     1       2.826   4.929  18.457  0.00  0.00    +0.000 A 
ATOM     17  C   UNL     1       3.223   5.167  19.784  0.00  0.00    +0.000 A 
ATOM     18  C   UNL     1       2.670   4.441  20.847  0.00  0.00    +0.000 A 
ATOM     19  C   UNL     1       1.695   3.479  20.598  0.00  0.00    +0.000 A 
ATOM     20 CL   UNL     1       1.051   2.556  21.900  0.00  0.00    +0.000 Cl
ENDBRANCH   1  16
TORSDOF 2
ENDMDL
MODEL 9
REMARK VINA RESULT:      -7.3      1.926      2.982
REMARK  Name = 
REMARK  2 active torsions:
REMARK  status: ('A' for Active; 'I' for Inactive)
REMARK    1  A    between atoms: C_4  and  N_5
REMARK    2  A    between atoms: N_5  and  C_6
REMARK                            x       y       z     vdW  Elec       q    Type
REMARK                         _______ _______ _______ _____ _____    ______ ____
ROOT
ATOM      1  N   UNL     1       3.649   5.509  17.521  0.00  0.00    +0.000 N 
ATOM      2  H   UNL     1       3.410   6.495  17.441  0.00  0.00    +0.000 HD
ENDROOT
BRANCH   1   3
ATOM      3  C   UNL     1       4.942   5.279  17.010  0.00  0.00    +0.000 A 
ATOM      4  N   UNL     1       5.161   4.970  15.700  0.00  0.00    +0.000 NA
ATOM      5  C   UNL     1       6.407   4.673  15.281  0.00  0.00    +0.000 A 
ATOM      6  N   UNL     1       7.536   4.633  16.011  0.00  0.00    +0.000 NA
ATOM      7  C   UNL     1       7.284   4.956  17.286  0.00  0.00    +0.000 A 
ATOM      8  N   UNL     1       8.182   4.987  18.310  0.00  0.00    +0.000 N 
ATOM      9  C   UNL     1       7.503   5.352  19.442  0.00  0.00    +0.000 A 
ATOM     10  N   UNL     1       6.221   5.543  19.207  0.00  0.00    +0.000 NA
ATOM     11  C   UNL     1       6.069   5.295  17.855  0.00  0.00    +0.000 A 
ATOM     12  H   UNL     1       9.161   4.756  18.232  0.00  0.00    +0.000 HD
ENDBRANCH   1   3
BRANCH   1  16
ATOM     13  F   UNL     1       1.584   1.528  19.284  0.00  0.00    +0.000 F 
ATOM     14  C   UNL     1       1.945   2.807  19.463  0.00  0.00    +0.000 A 
ATOM     15  C   UNL     1       2.532   3.487  18.398  0.00  0.00    +0.000 A 
ATOM     16  C   UNL     1       2.974   4.808  18.539  0.00  0.00    +0.000 A 
ATOM     17  C   UNL     1       2.724   5.452  19.763  0.00  0.00    +0.000 A 
ATOM     18  C   UNL     1       2.128   4.771  20.833  0.00  0.00    +0.000 A 
ATOM     19  C   UNL     1       1.752   3.438  20.683  0.00  0.00    +0.000 A 
ATOM     20 CL   UNL     1       1.063   2.590  22.012  0.00  0.00    +0.000 Cl
ENDBRANCH   1  16
TORSDOF 2
ENDMDL
