MODEL 1
REMARK VINA RESULT:      -6.7      0.000      0.000
REMARK  Name = 
REMARK  10 active torsions:
REMARK  status: ('A' for Active; 'I' for Inactive)
REMARK    1  A    between atoms: C_1  and  O_2
REMARK    2  A    between atoms: O_2  and  C_3
REMARK    3  A    between atoms: C_6  and  C_7
REMARK    4  A    between atoms: N_11  and  C_12
REMARK    5  A    between atoms: C_12  and  C_13
REMARK    6  A    between atoms: C_13  and  C_14
REMARK    7  A    between atoms: C_14  and  N_15
REMARK    8  A    between atoms: N_15  and  C_16
REMARK    9  A    between atoms: N_15  and  C_17
REMARK   10  A    between atoms: C_18  and  C_20
REMARK                            x       y       z     vdW  Elec       q    Type
REMARK                         _______ _______ _______ _____ _____    ______ ____
ROOT
ATOM      1  C   UNL     1       2.620   7.065  18.882  0.00  0.00    +0.000 A 
ATOM      2  C   UNL     1       2.520   6.792  20.229  0.00  0.00    +0.000 A 
ATOM      3  S   UNL     1       1.415   7.859  20.953  0.00  0.00    +0.000 S 
ATOM      4  C   UNL     1       1.314   8.780  19.495  0.00  0.00    +0.000 A 
ATOM      5  N   UNL     1       0.536   9.963  19.440  0.00  0.00    +0.000 N 
ATOM      6  C   UNL     1       0.381  10.729  20.649  0.00  0.00    +0.000 C 
ATOM      7  O   UNL     1       1.013  10.451  21.672  0.00  0.00    +0.000 OA
ATOM      8  N   UNL     1       1.921   8.200  18.472  0.00  0.00    +0.000 NA
ENDROOT
BRANCH   1  12
ATOM      9  C   UNL     1       4.889   4.647  16.169  0.00  0.00    +0.000 A 
ATOM     10  C   UNL     1       5.116   6.019  16.251  0.00  0.00    +0.000 A 
ATOM     11  C   UNL     1       4.394   6.799  17.157  0.00  0.00    +0.000 A 
ATOM     12  C   UNL     1       3.408   6.228  17.977  0.00  0.00    +0.000 A 
ATOM     13  C   UNL     1       3.181   4.850  17.885  0.00  0.00    +0.000 A 
ATOM     14  C   UNL     1       3.916   4.063  16.981  0.00  0.00    +0.000 A 
BRANCH   9  16
ATOM     15  C   UNL     1       6.652   4.780  14.605  0.00  0.00    +0.000 C 
ATOM     16  O   UNL     1       5.648   3.996  15.237  0.00  0.00    +0.000 OA
ENDBRANCH   9  16
ENDBRANCH   1  12
BRANCH   6  17
ATOM     17  C   UNL     1      -0.495  11.925  20.696  0.00  0.00    +0.000 A 
ATOM     18  C   UNL     1      -1.842  12.139  20.941  0.00  0.00    +0.000 A 
ATOM     19  C   UNL     1      -2.224  13.516  20.873  0.00  0.00    +0.000 A 
ATOM     20  C   UNL     1      -1.148  14.339  20.650  0.00  0.00    +0.000 A 
ATOM     21  S   UNL     1       0.297  13.459  20.475  0.00  0.00    +0.000 S 
ENDBRANCH   6  17
BRANCH   5  22
ATOM     22  C   UNL     1       0.077  10.535  18.165  0.00  0.00    +0.000 C 
BRANCH  22  23
ATOM     23  C   UNL     1      -1.279  10.152  17.564  0.00  0.00    +0.000 C 
BRANCH  23  24
ATOM     24  C   UNL     1      -2.166  11.388  17.309  0.00  0.00    +0.000 C 
BRANCH  24  25
ATOM     25  N   UNL     1      -3.078  11.273  16.155  0.00  0.00    +0.000 NA
ATOM     26  C   UNL     1      -2.847  10.042  15.393  0.00  0.00    +0.000 C 
ATOM     27  C   UNL     1      -4.474  11.307  16.607  0.00  0.00    +0.000 C 
ENDBRANCH  24  25
ENDBRANCH  23  24
ENDBRANCH  22  23
ENDBRANCH   5  22
TORSDOF 7
ENDMDL
MODEL 2
REMARK VINA RESULT:      -6.6      0.441      1.026
REMARK  Name = 
REMARK  10 active torsions:
REMARK  status: ('A' for Active; 'I' for Inactive)
REMARK    1  A    between atoms: C_1  and  O_2
REMARK    2  A    between atoms: O_2  and  C_3
REMARK    3  A    between atoms: C_6  and  C_7
REMARK    4  A    between atoms: N_11  and  C_12
REMARK    5  A    between atoms: C_12  and  C_13
REMARK    6  A    between atoms: C_13  and  C_14
REMARK    7  A    between atoms: C_14  and  N_15
REMARK    8  A    between atoms: N_15  and  C_16
REMARK    9  A    between atoms: N_15  and  C_17
REMARK   10  A    between atoms: C_18  and  C_20
REMARK                            x       y       z     vdW  Elec       q    Type
REMARK                         _______ _______ _______ _____ _____    ______ ____
ROOT
ATOM      1  C   UNL     1       2.440   7.258  19.097  0.00  0.00    +0.000 A 
ATOM      2  C   UNL     1       2.291   6.886  20.416  0.00  0.00    +0.000 A 
ATOM      3  S   UNL     1       1.193   7.927  21.186  0.00  0.00    +0.000 S 
ATOM      4  C   UNL     1       1.162   8.959  19.801  0.00  0.00    +0.000 A 
ATOM      5  N   UNL     1       0.418  10.165  19.814  0.00  0.00    +0.000 N 
ATOM      6  C   UNL     1       0.245  10.841  21.072  0.00  0.00    +0.000 C 
ATOM      7  O   UNL     1       0.837  10.469  22.089  0.00  0.00    +0.000 OA
ATOM      8  N   UNL     1       1.785   8.440  18.754  0.00  0.00    +0.000 NA
ENDROOT
BRANCH   1  12
ATOM      9  C   UNL     1       4.806   4.919  16.398  0.00  0.00    +0.000 A 
ATOM     10  C   UNL     1       3.868   4.306  17.227  0.00  0.00    +0.000 A 
ATOM     11  C   UNL     1       3.079   5.075  18.085  0.00  0.00    +0.000 A 
ATOM     12  C   UNL     1       3.234   6.469  18.154  0.00  0.00    +0.000 A 
ATOM     13  C   UNL     1       4.182   7.076  17.323  0.00  0.00    +0.000 A 
ATOM     14  C   UNL     1       4.969   6.303  16.452  0.00  0.00    +0.000 A 
BRANCH   9  16
ATOM     15  C   UNL     1       6.824   4.501  15.245  0.00  0.00    +0.000 C 
ATOM     16  O   UNL     1       5.524   4.058  15.614  0.00  0.00    +0.000 OA
ENDBRANCH   9  16
ENDBRANCH   1  12
BRANCH   6  17
ATOM     17  C   UNL     1      -0.599  12.055  21.185  0.00  0.00    +0.000 A 
ATOM     18  C   UNL     1      -1.961  12.289  21.299  0.00  0.00    +0.000 A 
ATOM     19  C   UNL     1      -2.296  13.677  21.381  0.00  0.00    +0.000 A 
ATOM     20  C   UNL     1      -1.181  14.478  21.403  0.00  0.00    +0.000 A 
ATOM     21  S   UNL     1       0.252  13.570  21.276  0.00  0.00    +0.000 S 
ENDBRANCH   6  17
BRANCH   5  22
ATOM     22  C   UNL     1       0.014  10.844  18.573  0.00  0.00    +0.000 C 
BRANCH  22  23
ATOM     23  C   UNL     1      -1.168  10.341  17.738  0.00  0.00    +0.000 C 
BRANCH  23  24
ATOM     24  C   UNL     1      -2.287  11.397  17.630  0.00  0.00    +0.000 C 
BRANCH  24  25
ATOM     25  N   UNL     1      -3.098  11.320  16.400  0.00  0.00    +0.000 NA
ATOM     26  C   UNL     1      -2.765  10.141  15.595  0.00  0.00    +0.000 C 
ATOM     27  C   UNL     1      -4.527  11.288  16.736  0.00  0.00    +0.000 C 
ENDBRANCH  24  25
ENDBRANCH  23  24
ENDBRANCH  22  23
ENDBRANCH   5  22
TORSDOF 7
ENDMDL
MODEL 3
REMARK VINA RESULT:      -6.6      1.443      1.860
REMARK  Name = 
REMARK  10 active torsions:
REMARK  status: ('A' for Active; 'I' for Inactive)
REMARK    1  A    between atoms: C_1  and  O_2
REMARK    2  A    between atoms: O_2  and  C_3
REMARK    3  A    between atoms: C_6  and  C_7
REMARK    4  A    between atoms: N_11  and  C_12
REMARK    5  A    between atoms: C_12  and  C_13
REMARK    6  A    between atoms: C_13  and  C_14
REMARK    7  A    between atoms: C_14  and  N_15
REMARK    8  A    between atoms: N_15  and  C_16
REMARK    9  A    between atoms: N_15  and  C_17
REMARK   10  A    between atoms: C_18  and  C_20
REMARK                            x       y       z     vdW  Elec       q    Type
REMARK                         _______ _______ _______ _____ _____    ______ ____
ROOT
ATOM      1  C   UNL     1       3.126   6.409  18.613  0.00  0.00    +0.000 A 
ATOM      2  C   UNL     1       2.882   5.712  19.776  0.00  0.00    +0.000 A 
ATOM      3  S   UNL     1       1.784   6.573  20.743  0.00  0.00    +0.000 S 
ATOM      4  C   UNL     1       1.880   7.934  19.683  0.00  0.00    +0.000 A 
ATOM      5  N   UNL     1       1.187   9.133  19.982  0.00  0.00    +0.000 N 
ATOM      6  C   UNL     1       0.967   9.462  21.365  0.00  0.00    +0.000 C 
ATOM      7  O   UNL     1       1.481   8.802  22.273  0.00  0.00    +0.000 OA
ATOM      8  N   UNL     1       2.543   7.675  18.567  0.00  0.00    +0.000 NA
ENDROOT
BRANCH   1  12
ATOM      9  C   UNL     1       5.571   4.763  15.503  0.00  0.00    +0.000 A 
ATOM     10  C   UNL     1       4.939   3.927  16.422  0.00  0.00    +0.000 A 
ATOM     11  C   UNL     1       4.120   4.466  17.417  0.00  0.00    +0.000 A 
ATOM     12  C   UNL     1       3.941   5.854  17.533  0.00  0.00    +0.000 A 
ATOM     13  C   UNL     1       4.584   6.686  16.610  0.00  0.00    +0.000 A 
ATOM     14  C   UNL     1       5.399   6.143  15.602  0.00  0.00    +0.000 A 
BRANCH   9  16
ATOM     15  C   UNL     1       5.726   3.804  13.351  0.00  0.00    +0.000 C 
ATOM     16  O   UNL     1       6.354   4.117  14.587  0.00  0.00    +0.000 OA
ENDBRANCH   9  16
ENDBRANCH   1  12
BRANCH   6  17
ATOM     17  C   UNL     1       0.169  10.649  21.757  0.00  0.00    +0.000 A 
ATOM     18  C   UNL     1       0.073  11.954  21.299  0.00  0.00    +0.000 A 
ATOM     19  C   UNL     1      -0.871  12.746  22.027  0.00  0.00    +0.000 A 
ATOM     20  C   UNL     1      -1.533  12.013  22.981  0.00  0.00    +0.000 A 
ATOM     21  S   UNL     1      -0.990  10.403  23.032  0.00  0.00    +0.000 S 
ENDBRANCH   6  17
BRANCH   5  22
ATOM     22  C   UNL     1       0.888  10.137  18.949  0.00  0.00    +0.000 C 
BRANCH  22  23
ATOM     23  C   UNL     1      -0.361  10.026  18.070  0.00  0.00    +0.000 C 
BRANCH  23  24
ATOM     24  C   UNL     1      -1.143  11.355  18.009  0.00  0.00    +0.000 C 
BRANCH  24  25
ATOM     25  N   UNL     1      -2.376  11.315  17.200  0.00  0.00    +0.000 NA
ATOM     26  C   UNL     1      -2.491  10.070  16.434  0.00  0.00    +0.000 C 
ATOM     27  C   UNL     1      -3.554  11.462  18.063  0.00  0.00    +0.000 C 
ENDBRANCH  24  25
ENDBRANCH  23  24
ENDBRANCH  22  23
ENDBRANCH   5  22
TORSDOF 7
ENDMDL
MODEL 4
REMARK VINA RESULT:      -6.6      2.946      9.176
REMARK  Name = 
REMARK  10 active torsions:
REMARK  status: ('A' for Active; 'I' for Inactive)
REMARK    1  A    between atoms: C_1  and  O_2
REMARK    2  A    between atoms: O_2  and  C_3
REMARK    3  A    between atoms: C_6  and  C_7
REMARK    4  A    between atoms: N_11  and  C_12
REMARK    5  A    between atoms: C_12  and  C_13
REMARK    6  A    between atoms: C_13  and  C_14
REMARK    7  A    between atoms: C_14  and  N_15
REMARK    8  A    between atoms: N_15  and  C_16
REMARK    9  A    between atoms: N_15  and  C_17
REMARK   10  A    between atoms: C_18  and  C_20
REMARK                            x       y       z     vdW  Elec       q    Type
REMARK                         _______ _______ _______ _____ _____    ______ ____
ROOT
ATOM      1  C   UNL     1       0.677   9.537  19.874  0.00  0.00    +0.000 A 
ATOM      2  C   UNL     1       0.750  10.068  18.604  0.00  0.00    +0.000 A 
ATOM      3  S   UNL     1       1.621   9.021  17.591  0.00  0.00    +0.000 S 
ATOM      4  C   UNL     1       2.064   8.042  18.944  0.00  0.00    +0.000 A 
ATOM      5  N   UNL     1       2.929   6.931  18.781  0.00  0.00    +0.000 N 
ATOM      6  C   UNL     1       3.911   6.986  17.730  0.00  0.00    +0.000 C 
ATOM      7  O   UNL     1       4.096   8.016  17.076  0.00  0.00    +0.000 OA
ATOM      8  N   UNL     1       1.427   8.375  20.056  0.00  0.00    +0.000 NA
ENDROOT
BRANCH   1  12
ATOM      9  C   UNL     1      -1.593  11.429  22.975  0.00  0.00    +0.000 A 
ATOM     10  C   UNL     1      -1.584  11.956  21.686  0.00  0.00    +0.000 A 
ATOM     11  C   UNL     1      -0.865  11.321  20.671  0.00  0.00    +0.000 A 
ATOM     12  C   UNL     1      -0.116  10.162  20.932  0.00  0.00    +0.000 A 
ATOM     13  C   UNL     1      -0.126   9.643  22.232  0.00  0.00    +0.000 A 
ATOM     14  C   UNL     1      -0.858  10.276  23.250  0.00  0.00    +0.000 A 
BRANCH   9  16
ATOM     15  C   UNL     1      -3.325  12.994  23.333  0.00  0.00    +0.000 C 
ATOM     16  O   UNL     1      -2.322  12.148  23.881  0.00  0.00    +0.000 OA
ENDBRANCH   9  16
ENDBRANCH   1  12
BRANCH   6  17
ATOM     17  C   UNL     1       4.788   5.828  17.434  0.00  0.00    +0.000 A 
ATOM     18  C   UNL     1       4.629   4.634  16.747  0.00  0.00    +0.000 A 
ATOM     19  C   UNL     1       5.805   3.820  16.738  0.00  0.00    +0.000 A 
ATOM     20  C   UNL     1       6.865   4.436  17.355  0.00  0.00    +0.000 A 
ATOM     21  S   UNL     1       6.435   5.958  17.980  0.00  0.00    +0.000 S 
ENDBRANCH   6  17
BRANCH   5  22
ATOM     22  C   UNL     1       2.997   5.845  19.770  0.00  0.00    +0.000 C 
BRANCH  22  23
ATOM     23  C   UNL     1       1.837   4.863  19.955  0.00  0.00    +0.000 C 
BRANCH  23  24
ATOM     24  C   UNL     1       2.101   3.519  19.246  0.00  0.00    +0.000 C 
BRANCH  24  25
ATOM     25  N   UNL     1       2.703   2.474  20.096  0.00  0.00    +0.000 NA
ATOM     26  C   UNL     1       4.162   2.429  19.961  0.00  0.00    +0.000 C 
ATOM     27  C   UNL     1       2.355   2.704  21.504  0.00  0.00    +0.000 C 
ENDBRANCH  24  25
ENDBRANCH  23  24
ENDBRANCH  22  23
ENDBRANCH   5  22
TORSDOF 7
ENDMDL
MODEL 5
REMARK VINA RESULT:      -6.4      1.609      2.485
REMARK  Name = 
REMARK  10 active torsions:
REMARK  status: ('A' for Active; 'I' for Inactive)
REMARK    1  A    between atoms: C_1  and  O_2
REMARK    2  A    between atoms: O_2  and  C_3
REMARK    3  A    between atoms: C_6  and  C_7
REMARK    4  A    between atoms: N_11  and  C_12
REMARK    5  A    between atoms: C_12  and  C_13
REMARK    6  A    between atoms: C_13  and  C_14
REMARK    7  A    between atoms: C_14  and  N_15
REMARK    8  A    between atoms: N_15  and  C_16
REMARK    9  A    between atoms: N_15  and  C_17
REMARK   10  A    between atoms: C_18  and  C_20
REMARK                            x       y       z     vdW  Elec       q    Type
REMARK                         _______ _______ _______ _____ _____    ______ ____
ROOT
ATOM      1  C   UNL     1       1.386   8.459  20.092  0.00  0.00    +0.000 A 
ATOM      2  C   UNL     1       1.201   8.154  21.423  0.00  0.00    +0.000 A 
ATOM      3  S   UNL     1       0.025   9.180  22.092  0.00  0.00    +0.000 S 
ATOM      4  C   UNL     1       0.002  10.132  20.650  0.00  0.00    +0.000 A 
ATOM      5  N   UNL     1      -0.798  11.299  20.567  0.00  0.00    +0.000 N 
ATOM      6  C   UNL     1      -1.053  12.033  21.778  0.00  0.00    +0.000 C 
ATOM      7  O   UNL     1      -0.485  11.746  22.836  0.00  0.00    +0.000 OA
ATOM      8  N   UNL     1       0.690   9.588  19.659  0.00  0.00    +0.000 NA
ENDROOT
BRANCH   1  12
ATOM      9  C   UNL     1       3.984   6.127  17.609  0.00  0.00    +0.000 A 
ATOM     10  C   UNL     1       3.474   5.596  18.792  0.00  0.00    +0.000 A 
ATOM     11  C   UNL     1       2.605   6.350  19.585  0.00  0.00    +0.000 A 
ATOM     12  C   UNL     1       2.252   7.661  19.226  0.00  0.00    +0.000 A 
ATOM     13  C   UNL     1       2.774   8.188  18.039  0.00  0.00    +0.000 A 
ATOM     14  C   UNL     1       3.640   7.426  17.237  0.00  0.00    +0.000 A 
BRANCH   9  16
ATOM     15  C   UNL     1       5.332   5.802  15.699  0.00  0.00    +0.000 C 
ATOM     16  O   UNL     1       4.833   5.298  16.930  0.00  0.00    +0.000 OA
ENDBRANCH   9  16
ENDBRANCH   1  12
BRANCH   6  17
ATOM     17  C   UNL     1      -1.957  13.209  21.790  0.00  0.00    +0.000 A 
ATOM     18  C   UNL     1      -1.791  14.568  21.577  0.00  0.00    +0.000 A 
ATOM     19  C   UNL     1      -3.004  15.318  21.703  0.00  0.00    +0.000 A 
ATOM     20  C   UNL     1      -4.089  14.509  21.937  0.00  0.00    +0.000 A 
ATOM     21  S   UNL     1      -3.644  12.872  22.052  0.00  0.00    +0.000 S 
ENDBRANCH   6  17
BRANCH   5  22
ATOM     22  C   UNL     1      -1.183  11.888  19.276  0.00  0.00    +0.000 C 
BRANCH  22  23
ATOM     23  C   UNL     1      -2.467  11.462  18.557  0.00  0.00    +0.000 C 
BRANCH  23  24
ATOM     24  C   UNL     1      -2.170  10.629  17.293  0.00  0.00    +0.000 C 
BRANCH  24  25
ATOM     25  N   UNL     1      -3.336  10.380  16.424  0.00  0.00    +0.000 NA
ATOM     26  C   UNL     1      -4.395  11.373  16.626  0.00  0.00    +0.000 C 
ATOM     27  C   UNL     1      -2.928  10.388  15.014  0.00  0.00    +0.000 C 
ENDBRANCH  24  25
ENDBRANCH  23  24
ENDBRANCH  22  23
ENDBRANCH   5  22
TORSDOF 7
ENDMDL
MODEL 6
REMARK VINA RESULT:      -6.4      2.973      8.938
REMARK  Name = 
REMARK  10 active torsions:
REMARK  status: ('A' for Active; 'I' for Inactive)
REMARK    1  A    between atoms: C_1  and  O_2
REMARK    2  A    between atoms: O_2  and  C_3
REMARK    3  A    between atoms: C_6  and  C_7
REMARK    4  A    between atoms: N_11  and  C_12
REMARK    5  A    between atoms: C_12  and  C_13
REMARK    6  A    between atoms: C_13  and  C_14
REMARK    7  A    between atoms: C_14  and  N_15
REMARK    8  A    between atoms: N_15  and  C_16
REMARK    9  A    between atoms: N_15  and  C_17
REMARK   10  A    between atoms: C_18  and  C_20
REMARK                            x       y       z     vdW  Elec       q    Type
REMARK                         _______ _______ _______ _____ _____    ______ ____
ROOT
ATOM      1  C   UNL     1       0.858   9.319  19.763  0.00  0.00    +0.000 A 
ATOM      2  C   UNL     1       0.815   9.786  18.467  0.00  0.00    +0.000 A 
ATOM      3  S   UNL     1       1.703   8.755  17.453  0.00  0.00    +0.000 S 
ATOM      4  C   UNL     1       2.298   7.882  18.821  0.00  0.00    +0.000 A 
ATOM      5  N   UNL     1       3.234   6.831  18.657  0.00  0.00    +0.000 N 
ATOM      6  C   UNL     1       4.145   6.902  17.546  0.00  0.00    +0.000 C 
ATOM      7  O   UNL     1       4.213   7.908  16.833  0.00  0.00    +0.000 OA
ATOM      8  N   UNL     1       1.703   8.226  19.953  0.00  0.00    +0.000 NA
ENDROOT
BRANCH   1  12
ATOM      9  C   UNL     1      -1.359  11.194  22.913  0.00  0.00    +0.000 A 
ATOM     10  C   UNL     1      -1.335  11.753  21.638  0.00  0.00    +0.000 A 
ATOM     11  C   UNL     1      -0.634  11.123  20.606  0.00  0.00    +0.000 A 
ATOM     12  C   UNL     1       0.082   9.938  20.837  0.00  0.00    +0.000 A 
ATOM     13  C   UNL     1       0.058   9.387  22.123  0.00  0.00    +0.000 A 
ATOM     14  C   UNL     1      -0.656  10.014  23.158  0.00  0.00    +0.000 A 
BRANCH   9  16
ATOM     15  C   UNL     1      -2.520  13.188  23.412  0.00  0.00    +0.000 C 
ATOM     16  O   UNL     1      -2.067  11.910  23.838  0.00  0.00    +0.000 OA
ENDBRANCH   9  16
ENDBRANCH   1  12
BRANCH   6  17
ATOM     17  C   UNL     1       5.089   5.797  17.251  0.00  0.00    +0.000 A 
ATOM     18  C   UNL     1       5.022   4.629  16.507  0.00  0.00    +0.000 A 
ATOM     19  C   UNL     1       6.233   3.868  16.530  0.00  0.00    +0.000 A 
ATOM     20  C   UNL     1       7.229   4.502  17.230  0.00  0.00    +0.000 A 
ATOM     21  S   UNL     1       6.696   5.975  17.894  0.00  0.00    +0.000 S 
ENDBRANCH   6  17
BRANCH   5  22
ATOM     22  C   UNL     1       3.441   5.806  19.690  0.00  0.00    +0.000 C 
BRANCH  22  23
ATOM     23  C   UNL     1       2.767   4.434  19.598  0.00  0.00    +0.000 C 
BRANCH  23  24
ATOM     24  C   UNL     1       1.782   4.355  18.413  0.00  0.00    +0.000 C 
BRANCH  24  25
ATOM     25  N   UNL     1       1.492   2.989  17.935  0.00  0.00    +0.000 NA
ATOM     26  C   UNL     1       2.715   2.211  17.719  0.00  0.00    +0.000 C 
ATOM     27  C   UNL     1       0.635   2.286  18.898  0.00  0.00    +0.000 C 
ENDBRANCH  24  25
ENDBRANCH  23  24
ENDBRANCH  22  23
ENDBRANCH   5  22
TORSDOF 7
ENDMDL
MODEL 7
REMARK VINA RESULT:      -6.4      1.190      1.399
REMARK  Name = 
REMARK  10 active torsions:
REMARK  status: ('A' for Active; 'I' for Inactive)
REMARK    1  A    between atoms: C_1  and  O_2
REMARK    2  A    between atoms: O_2  and  C_3
REMARK    3  A    between atoms: C_6  and  C_7
REMARK    4  A    between atoms: N_11  and  C_12
REMARK    5  A    between atoms: C_12  and  C_13
REMARK    6  A    between atoms: C_13  and  C_14
REMARK    7  A    between atoms: C_14  and  N_15
REMARK    8  A    between atoms: N_15  and  C_16
REMARK    9  A    between atoms: N_15  and  C_17
REMARK   10  A    between atoms: C_18  and  C_20
REMARK                            x       y       z     vdW  Elec       q    Type
REMARK                         _______ _______ _______ _____ _____    ______ ____
ROOT
ATOM      1  C   UNL     1       3.093   6.309  18.668  0.00  0.00    +0.000 A 
ATOM      2  C   UNL     1       2.838   5.697  19.876  0.00  0.00    +0.000 A 
ATOM      3  S   UNL     1       1.754   6.639  20.781  0.00  0.00    +0.000 S 
ATOM      4  C   UNL     1       1.872   7.923  19.631  0.00  0.00    +0.000 A 
ATOM      5  N   UNL     1       1.198   9.151  19.846  0.00  0.00    +0.000 N 
ATOM      6  C   UNL     1       0.984   9.577  21.204  0.00  0.00    +0.000 C 
ATOM      7  O   UNL     1       1.487   8.972  22.155  0.00  0.00    +0.000 OA
ATOM      8  N   UNL     1       2.530   7.578  18.535  0.00  0.00    +0.000 NA
ENDROOT
BRANCH   1  12
ATOM      9  C   UNL     1       5.401   4.458  15.569  0.00  0.00    +0.000 A 
ATOM     10  C   UNL     1       5.364   5.845  15.689  0.00  0.00    +0.000 A 
ATOM     11  C   UNL     1       4.633   6.444  16.718  0.00  0.00    +0.000 A 
ATOM     12  C   UNL     1       3.899   5.668  17.629  0.00  0.00    +0.000 A 
ATOM     13  C   UNL     1       3.936   4.275  17.498  0.00  0.00    +0.000 A 
ATOM     14  C   UNL     1       4.680   3.673  16.469  0.00  0.00    +0.000 A 
BRANCH   9  16
ATOM     15  C   UNL     1       7.187   4.848  14.075  0.00  0.00    +0.000 C 
ATOM     16  O   UNL     1       6.139   3.994  14.516  0.00  0.00    +0.000 OA
ENDBRANCH   9  16
ENDBRANCH   1  12
BRANCH   6  17
ATOM     17  C   UNL     1       0.205  10.800  21.513  0.00  0.00    +0.000 A 
ATOM     18  C   UNL     1      -0.996  11.055  22.158  0.00  0.00    +0.000 A 
ATOM     19  C   UNL     1      -1.334  12.444  22.206  0.00  0.00    +0.000 A 
ATOM     20  C   UNL     1      -0.351  13.234  21.664  0.00  0.00    +0.000 A 
ATOM     21  S   UNL     1       0.942  12.310  21.059  0.00  0.00    +0.000 S 
ENDBRANCH   6  17
BRANCH   5  22
ATOM     22  C   UNL     1       0.914  10.086  18.747  0.00  0.00    +0.000 C 
BRANCH  22  23
ATOM     23  C   UNL     1      -0.301   9.898  17.835  0.00  0.00    +0.000 C 
BRANCH  23  24
ATOM     24  C   UNL     1      -1.450  10.861  18.200  0.00  0.00    +0.000 C 
BRANCH  24  25
ATOM     25  N   UNL     1      -2.781  10.457  17.707  0.00  0.00    +0.000 NA
ATOM     26  C   UNL     1      -3.835  11.369  18.161  0.00  0.00    +0.000 C 
ATOM     27  C   UNL     1      -2.784  10.407  16.239  0.00  0.00    +0.000 C 
ENDBRANCH  24  25
ENDBRANCH  23  24
ENDBRANCH  22  23
ENDBRANCH   5  22
TORSDOF 7
ENDMDL
MODEL 8
REMARK VINA RESULT:      -6.4      1.079      1.666
REMARK  Name = 
REMARK  10 active torsions:
REMARK  status: ('A' for Active; 'I' for Inactive)
REMARK    1  A    between atoms: C_1  and  O_2
REMARK    2  A    between atoms: O_2  and  C_3
REMARK    3  A    between atoms: C_6  and  C_7
REMARK    4  A    between atoms: N_11  and  C_12
REMARK    5  A    between atoms: C_12  and  C_13
REMARK    6  A    between atoms: C_13  and  C_14
REMARK    7  A    between atoms: C_14  and  N_15
REMARK    8  A    between atoms: N_15  and  C_16
REMARK    9  A    between atoms: N_15  and  C_17
REMARK   10  A    between atoms: C_18  and  C_20
REMARK                            x       y       z     vdW  Elec       q    Type
REMARK                         _______ _______ _______ _____ _____    ______ ____
ROOT
ATOM      1  C   UNL     1       2.082   7.641  19.336  0.00  0.00    +0.000 A 
ATOM      2  C   UNL     1       2.071   7.483  20.705  0.00  0.00    +0.000 A 
ATOM      3  S   UNL     1       1.007   8.605  21.405  0.00  0.00    +0.000 S 
ATOM      4  C   UNL     1       0.804   9.398  19.884  0.00  0.00    +0.000 A 
ATOM      5  N   UNL     1       0.014  10.570  19.779  0.00  0.00    +0.000 N 
ATOM      6  C   UNL     1      -0.070  11.436  20.925  0.00  0.00    +0.000 C 
ATOM      7  O   UNL     1       0.630  11.248  21.925  0.00  0.00    +0.000 OA
ATOM      8  N   UNL     1       1.349   8.734  18.876  0.00  0.00    +0.000 NA
ENDROOT
BRANCH   1  12
ATOM      9  C   UNL     1       4.270   4.946  16.825  0.00  0.00    +0.000 A 
ATOM     10  C   UNL     1       3.216   4.482  17.609  0.00  0.00    +0.000 A 
ATOM     11  C   UNL     1       2.487   5.368  18.405  0.00  0.00    +0.000 A 
ATOM     12  C   UNL     1       2.817   6.732  18.456  0.00  0.00    +0.000 A 
ATOM     13  C   UNL     1       3.882   7.189  17.670  0.00  0.00    +0.000 A 
ATOM     14  C   UNL     1       4.608   6.298  16.861  0.00  0.00    +0.000 A 
BRANCH   9  16
ATOM     15  C   UNL     1       6.197   4.334  15.604  0.00  0.00    +0.000 C 
ATOM     16  O   UNL     1       4.913   3.980  16.101  0.00  0.00    +0.000 OA
ENDBRANCH   9  16
ENDBRANCH   1  12
BRANCH   6  17
ATOM     17  C   UNL     1      -0.950  12.629  20.927  0.00  0.00    +0.000 A 
ATOM     18  C   UNL     1      -0.879  13.894  20.366  0.00  0.00    +0.000 A 
ATOM     19  C   UNL     1      -2.013  14.715  20.661  0.00  0.00    +0.000 A 
ATOM     20  C   UNL     1      -2.966  14.038  21.382  0.00  0.00    +0.000 A 
ATOM     21  S   UNL     1      -2.478  12.449  21.740  0.00  0.00    +0.000 S 
ENDBRANCH   6  17
BRANCH   5  22
ATOM     22  C   UNL     1      -0.531  11.029  18.492  0.00  0.00    +0.000 C 
BRANCH  22  23
ATOM     23  C   UNL     1      -1.985  10.751  18.099  0.00  0.00    +0.000 C 
BRANCH  23  24
ATOM     24  C   UNL     1      -2.092  10.132  16.690  0.00  0.00    +0.000 C 
BRANCH  24  25
ATOM     25  N   UNL     1      -3.445  10.151  16.103  0.00  0.00    +0.000 NA
ATOM     26  C   UNL     1      -4.239  11.284  16.588  0.00  0.00    +0.000 C 
ATOM     27  C   UNL     1      -3.362  10.212  14.638  0.00  0.00    +0.000 C 
ENDBRANCH  24  25
ENDBRANCH  23  24
ENDBRANCH  22  23
ENDBRANCH   5  22
TORSDOF 7
ENDMDL
MODEL 9
REMARK VINA RESULT:      -6.4      1.609      2.396
REMARK  Name = 
REMARK  10 active torsions:
REMARK  status: ('A' for Active; 'I' for Inactive)
REMARK    1  A    between atoms: C_1  and  O_2
REMARK    2  A    between atoms: O_2  and  C_3
REMARK    3  A    between atoms: C_6  and  C_7
REMARK    4  A    between atoms: N_11  and  C_12
REMARK    5  A    between atoms: C_12  and  C_13
REMARK    6  A    between atoms: C_13  and  C_14
REMARK    7  A    between atoms: C_14  and  N_15
REMARK    8  A    between atoms: N_15  and  C_16
REMARK    9  A    between atoms: N_15  and  C_17
REMARK   10  A    between atoms: C_18  and  C_20
REMARK                            x       y       z     vdW  Elec       q    Type
REMARK                         _______ _______ _______ _____ _____    ______ ____
ROOT
ATOM      1  C   UNL     1       1.363   8.578  20.167  0.00  0.00    +0.000 A 
ATOM      2  C   UNL     1       1.302   8.519  21.543  0.00  0.00    +0.000 A 
ATOM      3  S   UNL     1       0.179   9.654  22.118  0.00  0.00    +0.000 S 
ATOM      4  C   UNL     1       0.013  10.329  20.536  0.00  0.00    +0.000 A 
ATOM      5  N   UNL     1      -0.806  11.464  20.317  0.00  0.00    +0.000 N 
ATOM      6  C   UNL     1      -0.960  12.407  21.392  0.00  0.00    +0.000 C 
ATOM      7  O   UNL     1      -0.296  12.315  22.429  0.00  0.00    +0.000 OA
ATOM      8  N   UNL     1       0.617   9.611  19.601  0.00  0.00    +0.000 NA
ENDROOT
BRANCH   1  12
ATOM      9  C   UNL     1       3.753   5.814  17.929  0.00  0.00    +0.000 A 
ATOM     10  C   UNL     1       3.202   5.441  19.153  0.00  0.00    +0.000 A 
ATOM     11  C   UNL     1       2.400   6.335  19.867  0.00  0.00    +0.000 A 
ATOM     12  C   UNL     1       2.158   7.632  19.385  0.00  0.00    +0.000 A 
ATOM     13  C   UNL     1       2.721   8.001  18.158  0.00  0.00    +0.000 A 
ATOM     14  C   UNL     1       3.518   7.097  17.435  0.00  0.00    +0.000 A 
BRANCH   9  16
ATOM     15  C   UNL     1       4.179   3.511  17.632  0.00  0.00    +0.000 C 
ATOM     16  O   UNL     1       4.528   4.857  17.336  0.00  0.00    +0.000 OA
ENDBRANCH   9  16
ENDBRANCH   1  12
BRANCH   6  17
ATOM     17  C   UNL     1      -1.874  13.569  21.274  0.00  0.00    +0.000 A 
ATOM     18  C   UNL     1      -3.230  13.769  21.485  0.00  0.00    +0.000 A 
ATOM     19  C   UNL     1      -3.656  15.110  21.228  0.00  0.00    +0.000 A 
ATOM     20  C   UNL     1      -2.606  15.931  20.896  0.00  0.00    +0.000 A 
ATOM     21  S   UNL     1      -1.132  15.084  20.847  0.00  0.00    +0.000 S 
ENDBRANCH   6  17
BRANCH   5  22
ATOM     22  C   UNL     1      -1.313  11.811  18.980  0.00  0.00    +0.000 C 
BRANCH  22  23
ATOM     23  C   UNL     1      -2.497  11.065  18.360  0.00  0.00    +0.000 C 
BRANCH  23  24
ATOM     24  C   UNL     1      -2.147  10.476  16.978  0.00  0.00    +0.000 C 
BRANCH  24  25
ATOM     25  N   UNL     1      -2.940  11.010  15.854  0.00  0.00    +0.000 NA
ATOM     26  C   UNL     1      -2.962  10.092  14.711  0.00  0.00    +0.000 C 
ATOM     27  C   UNL     1      -4.318  11.274  16.287  0.00  0.00    +0.000 C 
ENDBRANCH  24  25
ENDBRANCH  23  24
ENDBRANCH  22  23
ENDBRANCH   5  22
TORSDOF 7
ENDMDL
