MODEL 1
REMARK VINA RESULT:      -8.7      0.000      0.000
REMARK  Name = 
REMARK  4 active torsions:
REMARK  status: ('A' for Active; 'I' for Inactive)
REMARK    1  A    between atoms: S_2  and  N_4
REMARK    2  A    between atoms: S_2  and  C_21
REMARK    3  A    between atoms: N_4  and  C_5
REMARK    4  A    between atoms: C_9  and  C_10
REMARK                            x       y       z     vdW  Elec       q    Type
REMARK                         _______ _______ _______ _____ _____    ______ ____
ROOT
ATOM      1  C   UNL     1       3.173   4.665  17.613  0.00  0.00    +0.000 A 
ATOM      2  C   UNL     1       4.336   4.876  16.870  0.00  0.00    +0.000 A 
ATOM      3  C   UNL     1       4.833   6.158  16.731  0.00  0.00    +0.000 A 
ATOM      4  C   UNL     1       4.149   7.220  17.319  0.00  0.00    +0.000 A 
ATOM      5  C   UNL     1       2.948   7.047  18.051  0.00  0.00    +0.000 A 
ATOM      6  C   UNL     1       2.488   5.735  18.227  0.00  0.00    +0.000 A 
ENDROOT
BRANCH   5   7
ATOM      7  C   UNL     1       2.203   8.274  18.430  0.00  0.00    +0.000 A 
ATOM      8  N   UNL     1       2.049   9.199  17.458  0.00  0.00    +0.000 NA
ATOM      9  N   UNL     1       1.196  10.091  17.940  0.00  0.00    +0.000 N 
ATOM     10  C   UNL     1       0.795   9.849  19.214  0.00  0.00    +0.000 A 
ATOM     11  C   UNL     1      -0.118  10.547  20.003  0.00  0.00    +0.000 A 
ATOM     12  C   UNL     1      -0.293  10.095  21.306  0.00  0.00    +0.000 A 
ATOM     13  F   UNL     1      -1.161  10.734  22.101  0.00  0.00    +0.000 F 
ATOM     14  C   UNL     1       0.420   9.007  21.791  0.00  0.00    +0.000 A 
ATOM     15  C   UNL     1       1.307   8.292  20.962  0.00  0.00    +0.000 A 
ATOM     16  C   UNL     1       1.498   8.703  19.620  0.00  0.00    +0.000 A 
ATOM     17  H   UNL     1       0.915  10.854  17.335  0.00  0.00    +0.000 HD
ENDBRANCH   5   7
BRANCH   1  18
ATOM     18  N   UNL     1       2.676   3.327  17.729  0.00  0.00    +0.000 N 
ATOM     19  H   UNL     1       2.853   2.767  16.892  0.00  0.00    +0.000 HD
BRANCH  18  21
ATOM     20  O   UNL     1       3.594   1.120  18.510  0.00  0.00    +0.000 OA
ATOM     21  S   UNL     1       3.270   2.425  19.046  0.00  0.00    +0.000 S 
ATOM     22  O   UNL     1       4.274   3.211  19.725  0.00  0.00    +0.000 OA
BRANCH  21  23
ATOM     23  C   UNL     1       1.851   2.190  20.143  0.00  0.00    +0.000 C 
ATOM     24  C   UNL     1       1.942   2.926  21.451  0.00  0.00    +0.000 C 
ATOM     25  C   UNL     1       0.999   3.405  20.380  0.00  0.00    +0.000 C 
ENDBRANCH  21  23
ENDBRANCH  18  21
ENDBRANCH   1  18
TORSDOF 4
ENDMDL
MODEL 2
REMARK VINA RESULT:      -8.5      2.429      3.684
REMARK  Name = 
REMARK  4 active torsions:
REMARK  status: ('A' for Active; 'I' for Inactive)
REMARK    1  A    between atoms: S_2  and  N_4
REMARK    2  A    between atoms: S_2  and  C_21
REMARK    3  A    between atoms: N_4  and  C_5
REMARK    4  A    between atoms: C_9  and  C_10
REMARK                            x       y       z     vdW  Elec       q    Type
REMARK                         _______ _______ _______ _____ _____    ______ ____
ROOT
ATOM      1  C   UNL     1       4.661   4.674  18.263  0.00  0.00    +0.000 A 
ATOM      2  C   UNL     1       3.724   3.662  18.043  0.00  0.00    +0.000 A 
ATOM      3  C   UNL     1       2.393   3.992  17.866  0.00  0.00    +0.000 A 
ATOM      4  C   UNL     1       2.009   5.330  17.932  0.00  0.00    +0.000 A 
ATOM      5  C   UNL     1       2.928   6.379  18.187  0.00  0.00    +0.000 A 
ATOM      6  C   UNL     1       4.279   6.032  18.311  0.00  0.00    +0.000 A 
ENDROOT
BRANCH   5   7
ATOM      7  C   UNL     1       2.360   7.724  18.456  0.00  0.00    +0.000 A 
ATOM      8  N   UNL     1       2.408   8.604  17.433  0.00  0.00    +0.000 NA
ATOM      9  N   UNL     1       1.676   9.641  17.814  0.00  0.00    +0.000 N 
ATOM     10  C   UNL     1       1.168   9.536  19.068  0.00  0.00    +0.000 A 
ATOM     11  C   UNL     1       0.328  10.407  19.760  0.00  0.00    +0.000 A 
ATOM     12  C   UNL     1       0.009  10.063  21.068  0.00  0.00    +0.000 A 
ATOM     13  F   UNL     1      -0.795  10.870  21.771  0.00  0.00    +0.000 F 
ATOM     14  C   UNL     1       0.516   8.909  21.651  0.00  0.00    +0.000 A 
ATOM     15  C   UNL     1       1.330   8.022  20.918  0.00  0.00    +0.000 A 
ATOM     16  C   UNL     1       1.661   8.321  19.574  0.00  0.00    +0.000 A 
ATOM     17  H   UNL     1       1.553  10.402  17.156  0.00  0.00    +0.000 HD
ENDBRANCH   5   7
BRANCH   1  18
ATOM     18  N   UNL     1       6.030   4.300  18.454  0.00  0.00    +0.000 N 
ATOM     19  H   UNL     1       6.174   3.289  18.398  0.00  0.00    +0.000 HD
BRANCH  18  21
ATOM     20  O   UNL     1       7.369   6.349  17.876  0.00  0.00    +0.000 OA
ATOM     21  S   UNL     1       7.150   5.006  17.383  0.00  0.00    +0.000 S 
ATOM     22  O   UNL     1       8.259   4.096  17.213  0.00  0.00    +0.000 OA
BRANCH  21  23
ATOM     23  C   UNL     1       6.267   5.175  15.813  0.00  0.00    +0.000 C 
ATOM     24  C   UNL     1       7.080   4.822  14.597  0.00  0.00    +0.000 C 
ATOM     25  C   UNL     1       5.995   3.894  15.075  0.00  0.00    +0.000 C 
ENDBRANCH  21  23
ENDBRANCH  18  21
ENDBRANCH   1  18
TORSDOF 4
ENDMDL
MODEL 3
REMARK VINA RESULT:      -8.2      2.893      4.170
REMARK  Name = 
REMARK  4 active torsions:
REMARK  status: ('A' for Active; 'I' for Inactive)
REMARK    1  A    between atoms: S_2  and  N_4
REMARK    2  A    between atoms: S_2  and  C_21
REMARK    3  A    between atoms: N_4  and  C_5
REMARK    4  A    between atoms: C_9  and  C_10
REMARK                            x       y       z     vdW  Elec       q    Type
REMARK                         _______ _______ _______ _____ _____    ______ ____
ROOT
ATOM      1  C   UNL     1       4.770   4.299  18.512  0.00  0.00    +0.000 A 
ATOM      2  C   UNL     1       3.969   3.291  17.971  0.00  0.00    +0.000 A 
ATOM      3  C   UNL     1       2.605   3.487  17.866  0.00  0.00    +0.000 A 
ATOM      4  C   UNL     1       2.052   4.681  18.322  0.00  0.00    +0.000 A 
ATOM      5  C   UNL     1       2.829   5.712  18.907  0.00  0.00    +0.000 A 
ATOM      6  C   UNL     1       4.216   5.519  18.957  0.00  0.00    +0.000 A 
ENDROOT
BRANCH   5   7
ATOM      7  C   UNL     1       2.096   6.828  19.554  0.00  0.00    +0.000 A 
ATOM      8  N   UNL     1       1.659   6.602  20.812  0.00  0.00    +0.000 NA
ATOM      9  N   UNL     1       1.229   7.773  21.261  0.00  0.00    +0.000 N 
ATOM     10  C   UNL     1       1.306   8.780  20.356  0.00  0.00    +0.000 A 
ATOM     11  C   UNL     1       0.990  10.130  20.504  0.00  0.00    +0.000 A 
ATOM     12  C   UNL     1       1.118  10.931  19.375  0.00  0.00    +0.000 A 
ATOM     13  F   UNL     1       0.825  12.234  19.471  0.00  0.00    +0.000 F 
ATOM     14  C   UNL     1       1.532  10.400  18.161  0.00  0.00    +0.000 A 
ATOM     15  C   UNL     1       1.886   9.041  18.046  0.00  0.00    +0.000 A 
ATOM     16  C   UNL     1       1.794   8.193  19.177  0.00  0.00    +0.000 A 
ATOM     17  H   UNL     1       0.896   7.820  22.217  0.00  0.00    +0.000 HD
ENDBRANCH   5   7
BRANCH   1  18
ATOM     18  N   UNL     1       6.178   4.063  18.619  0.00  0.00    +0.000 N 
ATOM     19  H   UNL     1       6.419   3.073  18.534  0.00  0.00    +0.000 HD
BRANCH  18  21
ATOM     20  O   UNL     1       7.294   6.237  18.024  0.00  0.00    +0.000 OA
ATOM     21  S   UNL     1       7.158   4.894  17.501  0.00  0.00    +0.000 S 
ATOM     22  O   UNL     1       8.327   4.090  17.228  0.00  0.00    +0.000 OA
BRANCH  21  23
ATOM     23  C   UNL     1       6.160   5.029  15.998  0.00  0.00    +0.000 C 
ATOM     24  C   UNL     1       6.949   4.993  14.718  0.00  0.00    +0.000 C 
ATOM     25  C   UNL     1       6.121   3.805  15.128  0.00  0.00    +0.000 C 
ENDBRANCH  21  23
ENDBRANCH  18  21
ENDBRANCH   1  18
TORSDOF 4
ENDMDL
MODEL 4
REMARK VINA RESULT:      -8.2      2.468      3.702
REMARK  Name = 
REMARK  4 active torsions:
REMARK  status: ('A' for Active; 'I' for Inactive)
REMARK    1  A    between atoms: S_2  and  N_4
REMARK    2  A    between atoms: S_2  and  C_21
REMARK    3  A    between atoms: N_4  and  C_5
REMARK    4  A    between atoms: C_9  and  C_10
REMARK                            x       y       z     vdW  Elec       q    Type
REMARK                         _______ _______ _______ _____ _____    ______ ____
ROOT
ATOM      1  C   UNL     1       4.470   4.787  17.689  0.00  0.00    +0.000 A 
ATOM      2  C   UNL     1       4.334   4.018  18.846  0.00  0.00    +0.000 A 
ATOM      3  C   UNL     1       3.487   4.444  19.851  0.00  0.00    +0.000 A 
ATOM      4  C   UNL     1       2.799   5.646  19.698  0.00  0.00    +0.000 A 
ATOM      5  C   UNL     1       2.938   6.468  18.551  0.00  0.00    +0.000 A 
ATOM      6  C   UNL     1       3.760   5.995  17.520  0.00  0.00    +0.000 A 
ENDROOT
BRANCH   5   7
ATOM      7  C   UNL     1       2.331   7.821  18.611  0.00  0.00    +0.000 A 
ATOM      8  N   UNL     1       2.437   8.569  17.491  0.00  0.00    +0.000 NA
ATOM      9  N   UNL     1       1.662   9.627  17.689  0.00  0.00    +0.000 N 
ATOM     10  C   UNL     1       1.069   9.664  18.908  0.00  0.00    +0.000 A 
ATOM     11  C   UNL     1       0.167  10.592  19.427  0.00  0.00    +0.000 A 
ATOM     12  C   UNL     1      -0.238  10.404  20.743  0.00  0.00    +0.000 A 
ATOM     13  F   UNL     1      -1.104  11.271  21.283  0.00  0.00    +0.000 F 
ATOM     14  C   UNL     1       0.245   9.344  21.499  0.00  0.00    +0.000 A 
ATOM     15  C   UNL     1       1.123   8.395  20.940  0.00  0.00    +0.000 A 
ATOM     16  C   UNL     1       1.544   8.534  19.595  0.00  0.00    +0.000 A 
ATOM     17  H   UNL     1       1.574  10.297  16.934  0.00  0.00    +0.000 HD
ENDBRANCH   5   7
BRANCH   1  18
ATOM     18  N   UNL     1       5.365   4.326  16.669  0.00  0.00    +0.000 N 
ATOM     19  H   UNL     1       4.913   4.247  15.755  0.00  0.00    +0.000 HD
BRANCH  18  21
ATOM     20  O   UNL     1       7.877   4.391  16.767  0.00  0.00    +0.000 OA
ATOM     21  S   UNL     1       6.768   5.260  16.434  0.00  0.00    +0.000 S 
ATOM     22  O   UNL     1       6.691   5.887  15.134  0.00  0.00    +0.000 OA
BRANCH  21  23
ATOM     23  C   UNL     1       6.715   6.535  17.717  0.00  0.00    +0.000 C 
ATOM     24  C   UNL     1       7.884   6.521  18.663  0.00  0.00    +0.000 C 
ATOM     25  C   UNL     1       7.769   7.602  17.622  0.00  0.00    +0.000 C 
ENDBRANCH  21  23
ENDBRANCH  18  21
ENDBRANCH   1  18
TORSDOF 4
ENDMDL
MODEL 5
REMARK VINA RESULT:      -8.2      2.384      3.660
REMARK  Name = 
REMARK  4 active torsions:
REMARK  status: ('A' for Active; 'I' for Inactive)
REMARK    1  A    between atoms: S_2  and  N_4
REMARK    2  A    between atoms: S_2  and  C_21
REMARK    3  A    between atoms: N_4  and  C_5
REMARK    4  A    between atoms: C_9  and  C_10
REMARK                            x       y       z     vdW  Elec       q    Type
REMARK                         _______ _______ _______ _____ _____    ______ ____
ROOT
ATOM      1  C   UNL     1       4.523   4.260  18.063  0.00  0.00    +0.000 A 
ATOM      2  C   UNL     1       3.520   3.312  17.852  0.00  0.00    +0.000 A 
ATOM      3  C   UNL     1       2.207   3.726  17.726  0.00  0.00    +0.000 A 
ATOM      4  C   UNL     1       1.908   5.083  17.833  0.00  0.00    +0.000 A 
ATOM      5  C   UNL     1       2.896   6.068  18.080  0.00  0.00    +0.000 A 
ATOM      6  C   UNL     1       4.227   5.637  18.152  0.00  0.00    +0.000 A 
ENDROOT
BRANCH   5   7
ATOM      7  C   UNL     1       2.421   7.439  18.396  0.00  0.00    +0.000 A 
ATOM      8  N   UNL     1       2.514   8.344  17.399  0.00  0.00    +0.000 NA
ATOM      9  N   UNL     1       1.856   9.415  17.820  0.00  0.00    +0.000 N 
ATOM     10  C   UNL     1       1.357   9.305  19.077  0.00  0.00    +0.000 A 
ATOM     11  C   UNL     1       0.584  10.208  19.806  0.00  0.00    +0.000 A 
ATOM     12  C   UNL     1       0.259   9.845  21.108  0.00  0.00    +0.000 A 
ATOM     13  F   UNL     1      -0.483  10.682  21.846  0.00  0.00    +0.000 F 
ATOM     14  C   UNL     1       0.697   8.644  21.650  0.00  0.00    +0.000 A 
ATOM     15  C   UNL     1       1.442   7.729  20.880  0.00  0.00    +0.000 A 
ATOM     16  C   UNL     1       1.776   8.047  19.541  0.00  0.00    +0.000 A 
ATOM     17  H   UNL     1       1.775  10.201  17.186  0.00  0.00    +0.000 HD
ENDBRANCH   5   7
BRANCH   1  18
ATOM     18  N   UNL     1       5.872   3.800  18.201  0.00  0.00    +0.000 N 
ATOM     19  H   UNL     1       5.997   2.841  17.870  0.00  0.00    +0.000 HD
BRANCH  18  21
ATOM     20  O   UNL     1       8.331   4.175  17.828  0.00  0.00    +0.000 OA
ATOM     21  S   UNL     1       7.061   4.737  17.420  0.00  0.00    +0.000 S 
ATOM     22  O   UNL     1       6.718   4.839  16.020  0.00  0.00    +0.000 OA
BRANCH  21  23
ATOM     23  C   UNL     1       6.957   6.374  18.183  0.00  0.00    +0.000 C 
ATOM     24  C   UNL     1       8.275   6.938  18.636  0.00  0.00    +0.000 C 
ATOM     25  C   UNL     1       7.596   7.495  17.414  0.00  0.00    +0.000 C 
ENDBRANCH  21  23
ENDBRANCH  18  21
ENDBRANCH   1  18
TORSDOF 4
ENDMDL
MODEL 6
REMARK VINA RESULT:      -8.1      2.885      4.118
REMARK  Name = 
REMARK  4 active torsions:
REMARK  status: ('A' for Active; 'I' for Inactive)
REMARK    1  A    between atoms: S_2  and  N_4
REMARK    2  A    between atoms: S_2  and  C_21
REMARK    3  A    between atoms: N_4  and  C_5
REMARK    4  A    between atoms: C_9  and  C_10
REMARK                            x       y       z     vdW  Elec       q    Type
REMARK                         _______ _______ _______ _____ _____    ______ ____
ROOT
ATOM      1  C   UNL     1       4.588   4.099  18.198  0.00  0.00    +0.000 A 
ATOM      2  C   UNL     1       3.737   3.236  17.505  0.00  0.00    +0.000 A 
ATOM      3  C   UNL     1       2.402   3.565  17.360  0.00  0.00    +0.000 A 
ATOM      4  C   UNL     1       1.927   4.746  17.927  0.00  0.00    +0.000 A 
ATOM      5  C   UNL     1       2.755   5.628  18.665  0.00  0.00    +0.000 A 
ATOM      6  C   UNL     1       4.115   5.306  18.757  0.00  0.00    +0.000 A 
ENDROOT
BRANCH   5   7
ATOM      7  C   UNL     1       2.083   6.727  19.403  0.00  0.00    +0.000 A 
ATOM      8  N   UNL     1       1.766   6.470  20.691  0.00  0.00    +0.000 NA
ATOM      9  N   UNL     1       1.379   7.628  21.206  0.00  0.00    +0.000 N 
ATOM     10  C   UNL     1       1.369   8.657  20.321  0.00  0.00    +0.000 A 
ATOM     11  C   UNL     1       1.065  10.002  20.530  0.00  0.00    +0.000 A 
ATOM     12  C   UNL     1       1.085  10.828  19.413  0.00  0.00    +0.000 A 
ATOM     13  F   UNL     1       0.801  12.128  19.565  0.00  0.00    +0.000 F 
ATOM     14  C   UNL     1       1.385  10.327  18.153  0.00  0.00    +0.000 A 
ATOM     15  C   UNL     1       1.729   8.973  17.974  0.00  0.00    +0.000 A 
ATOM     16  C   UNL     1       1.745   8.099  19.088  0.00  0.00    +0.000 A 
ATOM     17  H   UNL     1       1.136   7.652  22.190  0.00  0.00    +0.000 HD
ENDBRANCH   5   7
BRANCH   1  18
ATOM     18  N   UNL     1       5.963   3.725  18.342  0.00  0.00    +0.000 N 
ATOM     19  H   UNL     1       6.138   2.757  18.064  0.00  0.00    +0.000 HD
BRANCH  18  21
ATOM     20  O   UNL     1       8.391   4.192  17.882  0.00  0.00    +0.000 OA
ATOM     21  S   UNL     1       7.086   4.681  17.491  0.00  0.00    +0.000 S 
ATOM     22  O   UNL     1       6.700   4.714  16.099  0.00  0.00    +0.000 OA
BRANCH  21  23
ATOM     23  C   UNL     1       6.931   6.341  18.194  0.00  0.00    +0.000 C 
ATOM     24  C   UNL     1       8.234   6.978  18.589  0.00  0.00    +0.000 C 
ATOM     25  C   UNL     1       7.501   7.458  17.365  0.00  0.00    +0.000 C 
ENDBRANCH  21  23
ENDBRANCH  18  21
ENDBRANCH   1  18
TORSDOF 4
ENDMDL
MODEL 7
REMARK VINA RESULT:      -7.9      4.765      7.475
REMARK  Name = 
REMARK  4 active torsions:
REMARK  status: ('A' for Active; 'I' for Inactive)
REMARK    1  A    between atoms: S_2  and  N_4
REMARK    2  A    between atoms: S_2  and  C_21
REMARK    3  A    between atoms: N_4  and  C_5
REMARK    4  A    between atoms: C_9  and  C_10
REMARK                            x       y       z     vdW  Elec       q    Type
REMARK                         _______ _______ _______ _____ _____    ______ ____
ROOT
ATOM      1  C   UNL     1       3.423   4.762  17.855  0.00  0.00    +0.000 A 
ATOM      2  C   UNL     1       3.404   6.075  18.327  0.00  0.00    +0.000 A 
ATOM      3  C   UNL     1       4.092   7.057  17.639  0.00  0.00    +0.000 A 
ATOM      4  C   UNL     1       4.810   6.711  16.497  0.00  0.00    +0.000 A 
ATOM      5  C   UNL     1       4.878   5.382  16.008  0.00  0.00    +0.000 A 
ATOM      6  C   UNL     1       4.132   4.410  16.687  0.00  0.00    +0.000 A 
ENDROOT
BRANCH   5   7
ATOM      7  C   UNL     1       5.853   5.110  14.922  0.00  0.00    +0.000 A 
ATOM      8  N   UNL     1       7.071   5.677  15.061  0.00  0.00    +0.000 NA
ATOM      9  N   UNL     1       7.828   5.144  14.113  0.00  0.00    +0.000 N 
ATOM     10  C   UNL     1       7.177   4.275  13.301  0.00  0.00    +0.000 A 
ATOM     11  C   UNL     1       7.670   3.508  12.246  0.00  0.00    +0.000 A 
ATOM     12  C   UNL     1       6.748   2.738  11.547  0.00  0.00    +0.000 A 
ATOM     13  F   UNL     1       7.176   1.984  10.526  0.00  0.00    +0.000 F 
ATOM     14  C   UNL     1       5.401   2.746  11.885  0.00  0.00    +0.000 A 
ATOM     15  C   UNL     1       4.933   3.497  12.982  0.00  0.00    +0.000 A 
ATOM     16  C   UNL     1       5.842   4.278  13.737  0.00  0.00    +0.000 A 
ATOM     17  H   UNL     1       8.805   5.415  14.078  0.00  0.00    +0.000 HD
ENDBRANCH   5   7
BRANCH   1  18
ATOM     18  N   UNL     1       2.709   3.765  18.595  0.00  0.00    +0.000 N 
ATOM     19  H   UNL     1       2.101   3.195  18.003  0.00  0.00    +0.000 HD
BRANCH  18  21
ATOM     20  O   UNL     1       3.512   1.394  18.838  0.00  0.00    +0.000 OA
ATOM     21  S   UNL     1       3.666   2.677  19.490  0.00  0.00    +0.000 S 
ATOM     22  O   UNL     1       4.977   3.258  19.668  0.00  0.00    +0.000 OA
BRANCH  21  23
ATOM     23  C   UNL     1       2.851   2.534  21.099  0.00  0.00    +0.000 C 
ATOM     24  C   UNL     1       2.253   3.814  21.613  0.00  0.00    +0.000 C 
ATOM     25  C   UNL     1       1.360   2.720  21.094  0.00  0.00    +0.000 C 
ENDBRANCH  21  23
ENDBRANCH  18  21
ENDBRANCH   1  18
TORSDOF 4
ENDMDL
MODEL 8
REMARK VINA RESULT:      -7.9      1.029      1.215
REMARK  Name = 
REMARK  4 active torsions:
REMARK  status: ('A' for Active; 'I' for Inactive)
REMARK    1  A    between atoms: S_2  and  N_4
REMARK    2  A    between atoms: S_2  and  C_21
REMARK    3  A    between atoms: N_4  and  C_5
REMARK    4  A    between atoms: C_9  and  C_10
REMARK                            x       y       z     vdW  Elec       q    Type
REMARK                         _______ _______ _______ _____ _____    ______ ____
ROOT
ATOM      1  C   UNL     1       4.520   4.664  17.814  0.00  0.00    +0.000 A 
ATOM      2  C   UNL     1       5.155   4.827  16.582  0.00  0.00    +0.000 A 
ATOM      3  C   UNL     1       5.089   6.049  15.937  0.00  0.00    +0.000 A 
ATOM      4  C   UNL     1       4.371   7.089  16.523  0.00  0.00    +0.000 A 
ATOM      5  C   UNL     1       3.687   6.949  17.756  0.00  0.00    +0.000 A 
ATOM      6  C   UNL     1       3.808   5.721  18.421  0.00  0.00    +0.000 A 
ENDROOT
BRANCH   5   7
ATOM      7  C   UNL     1       2.779   8.054  18.156  0.00  0.00    +0.000 A 
ATOM      8  N   UNL     1       2.558   9.006  17.224  0.00  0.00    +0.000 NA
ATOM      9  N   UNL     1       1.580   9.760  17.705  0.00  0.00    +0.000 N 
ATOM     10  C   UNL     1       1.152   9.400  18.941  0.00  0.00    +0.000 A 
ATOM     11  C   UNL     1       0.123   9.936  19.714  0.00  0.00    +0.000 A 
ATOM     12  C   UNL     1      -0.056   9.394  20.981  0.00  0.00    +0.000 A 
ATOM     13  F   UNL     1      -1.033   9.877  21.759  0.00  0.00    +0.000 F 
ATOM     14  C   UNL     1       0.762   8.374  21.448  0.00  0.00    +0.000 A 
ATOM     15  C   UNL     1       1.769   7.820  20.633  0.00  0.00    +0.000 A 
ATOM     16  C   UNL     1       1.971   8.326  19.326  0.00  0.00    +0.000 A 
ATOM     17  H   UNL     1       1.236  10.517  17.125  0.00  0.00    +0.000 HD
ENDBRANCH   5   7
BRANCH   1  18
ATOM     18  N   UNL     1       4.595   3.384  18.452  0.00  0.00    +0.000 N 
ATOM     19  H   UNL     1       5.098   3.417  19.342  0.00  0.00    +0.000 HD
BRANCH  18  21
ATOM     20  O   UNL     1       2.179   3.155  17.793  0.00  0.00    +0.000 OA
ATOM     21  S   UNL     1       3.106   2.622  18.769  0.00  0.00    +0.000 S 
ATOM     22  O   UNL     1       3.330   1.198  18.869  0.00  0.00    +0.000 OA
BRANCH  21  23
ATOM     23  C   UNL     1       2.576   3.259  20.378  0.00  0.00    +0.000 C 
ATOM     24  C   UNL     1       1.235   3.939  20.371  0.00  0.00    +0.000 C 
ATOM     25  C   UNL     1       1.386   2.576  20.991  0.00  0.00    +0.000 C 
ENDBRANCH  21  23
ENDBRANCH  18  21
ENDBRANCH   1  18
TORSDOF 4
ENDMDL
MODEL 9
REMARK VINA RESULT:      -7.9      4.865      7.527
REMARK  Name = 
REMARK  4 active torsions:
REMARK  status: ('A' for Active; 'I' for Inactive)
REMARK    1  A    between atoms: S_2  and  N_4
REMARK    2  A    between atoms: S_2  and  C_21
REMARK    3  A    between atoms: N_4  and  C_5
REMARK    4  A    between atoms: C_9  and  C_10
REMARK                            x       y       z     vdW  Elec       q    Type
REMARK                         _______ _______ _______ _____ _____    ______ ____
ROOT
ATOM      1  C   UNL     1       0.489   9.963  18.663  0.00  0.00    +0.000 A 
ATOM      2  C   UNL     1       0.291   9.863  20.041  0.00  0.00    +0.000 A 
ATOM      3  C   UNL     1       0.966   8.893  20.759  0.00  0.00    +0.000 A 
ATOM      4  C   UNL     1       1.817   8.019  20.086  0.00  0.00    +0.000 A 
ATOM      5  C   UNL     1       2.017   8.071  18.684  0.00  0.00    +0.000 A 
ATOM      6  C   UNL     1       1.366   9.093  17.981  0.00  0.00    +0.000 A 
ENDROOT
BRANCH   5   7
ATOM      7  C   UNL     1       2.767   6.948  18.066  0.00  0.00    +0.000 A 
ATOM      8  N   UNL     1       3.930   7.273  17.462  0.00  0.00    +0.000 NA
ATOM      9  N   UNL     1       4.520   6.122  17.173  0.00  0.00    +0.000 N 
ATOM     10  C   UNL     1       3.796   5.024  17.506  0.00  0.00    +0.000 A 
ATOM     11  C   UNL     1       4.128   3.675  17.389  0.00  0.00    +0.000 A 
ATOM     12  C   UNL     1       3.155   2.756  17.765  0.00  0.00    +0.000 A 
ATOM     13  F   UNL     1       3.430   1.448  17.670  0.00  0.00    +0.000 F 
ATOM     14  C   UNL     1       1.913   3.172  18.224  0.00  0.00    +0.000 A 
ATOM     15  C   UNL     1       1.615   4.541  18.373  0.00  0.00    +0.000 A 
ATOM     16  C   UNL     1       2.586   5.513  18.024  0.00  0.00    +0.000 A 
ATOM     17  H   UNL     1       5.439   6.154  16.746  0.00  0.00    +0.000 HD
ENDBRANCH   5   7
BRANCH   1  18
ATOM     18  N   UNL     1      -0.233  10.970  17.945  0.00  0.00    +0.000 N 
ATOM     19  H   UNL     1       0.030  11.014  16.958  0.00  0.00    +0.000 HD
BRANCH  18  21
ATOM     20  O   UNL     1      -2.210   9.430  18.152  0.00  0.00    +0.000 OA
ATOM     21  S   UNL     1      -1.930  10.840  17.987  0.00  0.00    +0.000 S 
ATOM     22  O   UNL     1      -2.442  11.807  18.931  0.00  0.00    +0.000 OA
BRANCH  21  23
ATOM     23  C   UNL     1      -2.484  11.280  16.321  0.00  0.00    +0.000 C 
ATOM     24  C   UNL     1      -2.803  10.105  15.438  0.00  0.00    +0.000 C 
ATOM     25  C   UNL     1      -3.915  10.950  16.001  0.00  0.00    +0.000 C 
ENDBRANCH  21  23
ENDBRANCH  18  21
ENDBRANCH   1  18
TORSDOF 4
ENDMDL
