MODEL 1
REMARK VINA RESULT:      -5.8      0.000      0.000
REMARK  Name = 
REMARK  14 active torsions:
REMARK  status: ('A' for Active; 'I' for Inactive)
REMARK    1  A    between atoms: C_1  and  C_2
REMARK    2  A    between atoms: C_2  and  C_3
REMARK    3  A    between atoms: C_3  and  C_4
REMARK    4  A    between atoms: C_3  and  C_6
REMARK    5  A    between atoms: C_3  and  N_8
REMARK    6  A    between atoms: C_4  and  O_5
REMARK    7  A    between atoms: C_6  and  O_7
REMARK    8  A    between atoms: N_8  and  C_9
REMARK    9  A    between atoms: C_9  and  C_10
REMARK   10  A    between atoms: C_10  and  O_11
REMARK   11  A    between atoms: C_10  and  C_12
REMARK   12  A    between atoms: C_12  and  O_13
REMARK   13  A    between atoms: O_13  and  C_14
REMARK   14  A    between atoms: C_14  and  C_15
REMARK                            x       y       z     vdW  Elec       q    Type
REMARK                         _______ _______ _______ _____ _____    ______ ____
ROOT
ATOM      1  C   UNL     1       3.487   5.007  17.841  0.00  0.00    +0.000 C 
ENDROOT
BRANCH   1   2
ATOM      2  N   UNL     1       3.559   4.851  19.298  0.00  0.00    +0.000 NA
ATOM      3  H   UNL     1       4.488   5.107  19.627  0.00  0.00    +0.000 HD
BRANCH   2   4
ATOM      4  C   UNL     1       3.075   3.546  19.815  0.00  0.00    +0.000 C 
BRANCH   4   6
ATOM      5  C   UNL     1       1.234   2.729  21.521  0.00  0.00    +0.000 C 
ATOM      6  C   UNL     1       2.184   3.834  21.065  0.00  0.00    +0.000 C 
ENDBRANCH   4   6
BRANCH   4   7
ATOM      7  C   UNL     1       4.241   2.572  20.183  0.00  0.00    +0.000 C 
BRANCH   7   8
ATOM      8  O   UNL     1       5.397   2.734  19.367  0.00  0.00    +0.000 OA
ATOM      9  H   UNL     1       5.174   3.387  18.683  0.00  0.00    +0.000 HD
ENDBRANCH   7   8
ENDBRANCH   4   7
BRANCH   4  10
ATOM     10  C   UNL     1       2.198   2.800  18.741  0.00  0.00    +0.000 C 
BRANCH  10  11
ATOM     11  O   UNL     1       2.720   1.542  18.320  0.00  0.00    +0.000 OA
ATOM     12  H   UNL     1       3.676   1.537  18.484  0.00  0.00    +0.000 HD
ENDBRANCH  10  11
ENDBRANCH   4  10
ENDBRANCH   2   4
ENDBRANCH   1   2
BRANCH   1  13
ATOM     13  C   UNL     1       4.048   6.362  17.365  0.00  0.00    +0.000 C 
BRANCH  13  14
ATOM     14  O   UNL     1       3.367   7.435  18.034  0.00  0.00    +0.000 OA
ATOM     15  H   UNL     1       3.139   8.112  17.375  0.00  0.00    +0.000 HD
ENDBRANCH  13  14
BRANCH  13  16
ATOM     16  C   UNL     1       5.559   6.425  17.648  0.00  0.00    +0.000 C 
BRANCH  16  17
ATOM     17  O   UNL     1       6.053   5.126  17.954  0.00  0.00    +0.000 OA
BRANCH  17  18
ATOM     18  C   UNL     1       7.269   4.838  17.267  0.00  0.00    +0.000 C 
BRANCH  18  19
ATOM     19  C   UNL     1       6.931   4.559  15.850  0.00  0.00    +0.000 A 
ATOM     20  C   UNL     1       6.038   3.717  15.217  0.00  0.00    +0.000 A 
ATOM     21  C   UNL     1       6.194   3.935  13.825  0.00  0.00    +0.000 A 
ATOM     22  C   UNL     1       7.178   4.894  13.697  0.00  0.00    +0.000 A 
ATOM     23  O   UNL     1       7.633   5.277  14.920  0.00  0.00    +0.000 OA
ENDBRANCH  18  19
ENDBRANCH  17  18
ENDBRANCH  16  17
ENDBRANCH  13  16
ENDBRANCH   1  13
TORSDOF 13
ENDMDL
MODEL 2
REMARK VINA RESULT:      -5.8      1.873      6.213
REMARK  Name = 
REMARK  14 active torsions:
REMARK  status: ('A' for Active; 'I' for Inactive)
REMARK    1  A    between atoms: C_1  and  C_2
REMARK    2  A    between atoms: C_2  and  C_3
REMARK    3  A    between atoms: C_3  and  C_4
REMARK    4  A    between atoms: C_3  and  C_6
REMARK    5  A    between atoms: C_3  and  N_8
REMARK    6  A    between atoms: C_4  and  O_5
REMARK    7  A    between atoms: C_6  and  O_7
REMARK    8  A    between atoms: N_8  and  C_9
REMARK    9  A    between atoms: C_9  and  C_10
REMARK   10  A    between atoms: C_10  and  O_11
REMARK   11  A    between atoms: C_10  and  C_12
REMARK   12  A    between atoms: C_12  and  O_13
REMARK   13  A    between atoms: O_13  and  C_14
REMARK   14  A    between atoms: C_14  and  C_15
REMARK                            x       y       z     vdW  Elec       q    Type
REMARK                         _______ _______ _______ _____ _____    ______ ____
ROOT
ATOM      1  C   UNL     1       4.615   3.998  18.733  0.00  0.00    +0.000 C 
ENDROOT
BRANCH   1   2
ATOM      2  N   UNL     1       6.081   3.990  18.813  0.00  0.00    +0.000 NA
ATOM      3  H   UNL     1       6.372   3.896  19.784  0.00  0.00    +0.000 HD
BRANCH   2   4
ATOM      4  C   UNL     1       6.755   5.095  18.086  0.00  0.00    +0.000 C 
BRANCH   4   6
ATOM      5  C   UNL     1       6.677   4.412  15.537  0.00  0.00    +0.000 C 
ATOM      6  C   UNL     1       7.468   4.476  16.842  0.00  0.00    +0.000 C 
ENDBRANCH   4   6
BRANCH   4   7
ATOM      7  C   UNL     1       7.778   5.870  18.978  0.00  0.00    +0.000 C 
BRANCH   7   8
ATOM      8  O   UNL     1       7.780   5.449  20.339  0.00  0.00    +0.000 OA
ATOM      9  H   UNL     1       6.965   4.939  20.480  0.00  0.00    +0.000 HD
ENDBRANCH   7   8
ENDBRANCH   4   7
BRANCH   4  10
ATOM     10  C   UNL     1       5.712   6.162  17.582  0.00  0.00    +0.000 C 
BRANCH  10  11
ATOM     11  O   UNL     1       6.276   7.424  17.234  0.00  0.00    +0.000 OA
ATOM     12  H   UNL     1       5.656   7.884  16.647  0.00  0.00    +0.000 HD
ENDBRANCH  10  11
ENDBRANCH   4  10
ENDBRANCH   2   4
ENDBRANCH   1   2
BRANCH   1  13
ATOM     13  C   UNL     1       4.077   3.002  17.687  0.00  0.00    +0.000 C 
BRANCH  13  14
ATOM     14  O   UNL     1       4.126   1.666  18.212  0.00  0.00    +0.000 OA
ATOM     15  H   UNL     1       3.354   1.533  18.786  0.00  0.00    +0.000 HD
ENDBRANCH  13  14
BRANCH  13  16
ATOM     16  C   UNL     1       2.633   3.378  17.310  0.00  0.00    +0.000 C 
BRANCH  16  17
ATOM     17  O   UNL     1       1.752   2.305  17.622  0.00  0.00    +0.000 OA
BRANCH  17  18
ATOM     18  C   UNL     1       0.711   2.706  18.510  0.00  0.00    +0.000 C 
BRANCH  18  19
ATOM     19  C   UNL     1       1.339   3.078  19.802  0.00  0.00    +0.000 A 
ATOM     20  C   UNL     1       1.356   4.222  20.575  0.00  0.00    +0.000 A 
ATOM     21  C   UNL     1       2.138   3.924  21.720  0.00  0.00    +0.000 A 
ATOM     22  C   UNL     1       2.553   2.617  21.568  0.00  0.00    +0.000 A 
ATOM     23  O   UNL     1       2.075   2.095  20.407  0.00  0.00    +0.000 OA
ENDBRANCH  18  19
ENDBRANCH  17  18
ENDBRANCH  16  17
ENDBRANCH  13  16
ENDBRANCH   1  13
TORSDOF 13
ENDMDL
MODEL 3
REMARK VINA RESULT:      -5.6      1.711      6.054
REMARK  Name = 
REMARK  14 active torsions:
REMARK  status: ('A' for Active; 'I' for Inactive)
REMARK    1  A    between atoms: C_1  and  C_2
REMARK    2  A    between atoms: C_2  and  C_3
REMARK    3  A    between atoms: C_3  and  C_4
REMARK    4  A    between atoms: C_3  and  C_6
REMARK    5  A    between atoms: C_3  and  N_8
REMARK    6  A    between atoms: C_4  and  O_5
REMARK    7  A    between atoms: C_6  and  O_7
REMARK    8  A    between atoms: N_8  and  C_9
REMARK    9  A    between atoms: C_9  and  C_10
REMARK   10  A    between atoms: C_10  and  O_11
REMARK   11  A    between atoms: C_10  and  C_12
REMARK   12  A    between atoms: C_12  and  O_13
REMARK   13  A    between atoms: O_13  and  C_14
REMARK   14  A    between atoms: C_14  and  C_15
REMARK                            x       y       z     vdW  Elec       q    Type
REMARK                         _______ _______ _______ _____ _____    ______ ____
ROOT
ATOM      1  C   UNL     1       4.197   3.355  17.178  0.00  0.00    +0.000 C 
ENDROOT
BRANCH   1   2
ATOM      2  N   UNL     1       4.681   3.921  15.914  0.00  0.00    +0.000 NA
ATOM      3  H   UNL     1       4.748   3.186  15.212  0.00  0.00    +0.000 HD
BRANCH   2   4
ATOM      4  C   UNL     1       5.902   4.759  16.027  0.00  0.00    +0.000 C 
BRANCH   4   6
ATOM      5  C   UNL     1       5.883   7.111  17.225  0.00  0.00    +0.000 C 
ATOM      6  C   UNL     1       5.448   6.253  16.038  0.00  0.00    +0.000 C 
ENDBRANCH   4   6
BRANCH   4   7
ATOM      7  C   UNL     1       6.921   4.502  14.871  0.00  0.00    +0.000 C 
BRANCH   7   8
ATOM      8  O   UNL     1       7.815   5.589  14.648  0.00  0.00    +0.000 OA
ATOM      9  H   UNL     1       7.898   5.696  13.686  0.00  0.00    +0.000 HD
ENDBRANCH   7   8
ENDBRANCH   4   7
BRANCH   4  10
ATOM     10  C   UNL     1       6.671   4.462  17.369  0.00  0.00    +0.000 C 
BRANCH  10  11
ATOM     11  O   UNL     1       8.051   4.144  17.203  0.00  0.00    +0.000 OA
ATOM     12  H   UNL     1       8.501   4.920  16.836  0.00  0.00    +0.000 HD
ENDBRANCH  10  11
ENDBRANCH   4  10
ENDBRANCH   2   4
ENDBRANCH   1   2
BRANCH   1  13
ATOM     13  C   UNL     1       2.685   3.054  17.149  0.00  0.00    +0.000 C 
BRANCH  13  14
ATOM     14  O   UNL     1       2.399   1.905  17.962  0.00  0.00    +0.000 OA
ATOM     15  H   UNL     1       3.241   1.491  18.215  0.00  0.00    +0.000 HD
ENDBRANCH  13  14
BRANCH  13  16
ATOM     16  C   UNL     1       1.903   4.278  17.655  0.00  0.00    +0.000 C 
BRANCH  16  17
ATOM     17  O   UNL     1       2.804   5.262  18.150  0.00  0.00    +0.000 OA
BRANCH  17  18
ATOM     18  C   UNL     1       2.459   5.694  19.465  0.00  0.00    +0.000 C 
BRANCH  18  19
ATOM     19  C   UNL     1       2.188   4.483  20.279  0.00  0.00    +0.000 A 
ATOM     20  C   UNL     1       1.054   3.924  20.832  0.00  0.00    +0.000 A 
ATOM     21  C   UNL     1       1.467   2.739  21.491  0.00  0.00    +0.000 A 
ATOM     22  C   UNL     1       2.831   2.655  21.304  0.00  0.00    +0.000 A 
ATOM     23  O   UNL     1       3.279   3.709  20.571  0.00  0.00    +0.000 OA
ENDBRANCH  18  19
ENDBRANCH  17  18
ENDBRANCH  16  17
ENDBRANCH  13  16
ENDBRANCH   1  13
TORSDOF 13
ENDMDL
MODEL 4
REMARK VINA RESULT:      -5.6      1.219      1.438
REMARK  Name = 
REMARK  14 active torsions:
REMARK  status: ('A' for Active; 'I' for Inactive)
REMARK    1  A    between atoms: C_1  and  C_2
REMARK    2  A    between atoms: C_2  and  C_3
REMARK    3  A    between atoms: C_3  and  C_4
REMARK    4  A    between atoms: C_3  and  C_6
REMARK    5  A    between atoms: C_3  and  N_8
REMARK    6  A    between atoms: C_4  and  O_5
REMARK    7  A    between atoms: C_6  and  O_7
REMARK    8  A    between atoms: N_8  and  C_9
REMARK    9  A    between atoms: C_9  and  C_10
REMARK   10  A    between atoms: C_10  and  O_11
REMARK   11  A    between atoms: C_10  and  C_12
REMARK   12  A    between atoms: C_12  and  O_13
REMARK   13  A    between atoms: O_13  and  C_14
REMARK   14  A    between atoms: C_14  and  C_15
REMARK                            x       y       z     vdW  Elec       q    Type
REMARK                         _______ _______ _______ _____ _____    ______ ____
ROOT
ATOM      1  C   UNL     1       2.367   5.250  18.077  0.00  0.00    +0.000 C 
ENDROOT
BRANCH   1   2
ATOM      2  N   UNL     1       3.418   4.351  18.567  0.00  0.00    +0.000 NA
ATOM      3  H   UNL     1       4.143   4.251  17.860  0.00  0.00    +0.000 HD
BRANCH   2   4
ATOM      4  C   UNL     1       2.933   3.061  19.120  0.00  0.00    +0.000 C 
BRANCH   4   6
ATOM      5  C   UNL     1       1.258   2.972  21.158  0.00  0.00    +0.000 C 
ATOM      6  C   UNL     1       1.497   3.299  19.685  0.00  0.00    +0.000 C 
ENDBRANCH   4   6
BRANCH   4   7
ATOM      7  C   UNL     1       3.873   2.487  20.229  0.00  0.00    +0.000 C 
BRANCH   7   8
ATOM      8  O   UNL     1       5.248   2.466  19.855  0.00  0.00    +0.000 OA
ATOM      9  H   UNL     1       5.761   2.713  20.643  0.00  0.00    +0.000 HD
ENDBRANCH   7   8
ENDBRANCH   4   7
BRANCH   4  10
ATOM     10  C   UNL     1       2.850   1.959  17.998  0.00  0.00    +0.000 C 
BRANCH  10  11
ATOM     11  O   UNL     1       3.761   0.875  18.162  0.00  0.00    +0.000 OA
ATOM     12  H   UNL     1       4.299   1.045  18.951  0.00  0.00    +0.000 HD
ENDBRANCH  10  11
ENDBRANCH   4  10
ENDBRANCH   2   4
ENDBRANCH   1   2
BRANCH   1  13
ATOM     13  C   UNL     1       2.536   6.692  18.595  0.00  0.00    +0.000 C 
BRANCH  13  14
ATOM     14  O   UNL     1       2.736   6.680  20.018  0.00  0.00    +0.000 OA
ATOM     15  H   UNL     1       3.195   5.858  20.256  0.00  0.00    +0.000 HD
ENDBRANCH  13  14
BRANCH  13  16
ATOM     16  C   UNL     1       3.729   7.359  17.890  0.00  0.00    +0.000 C 
BRANCH  16  17
ATOM     17  O   UNL     1       4.179   6.543  16.815  0.00  0.00    +0.000 OA
BRANCH  17  18
ATOM     18  C   UNL     1       5.600   6.560  16.686  0.00  0.00    +0.000 C 
BRANCH  18  19
ATOM     19  C   UNL     1       5.969   5.566  15.648  0.00  0.00    +0.000 A 
ATOM     20  C   UNL     1       5.346   4.463  15.101  0.00  0.00    +0.000 A 
ATOM     21  C   UNL     1       6.233   3.940  14.126  0.00  0.00    +0.000 A 
ATOM     22  C   UNL     1       7.346   4.755  14.147  0.00  0.00    +0.000 A 
ATOM     23  O   UNL     1       7.196   5.745  15.068  0.00  0.00    +0.000 OA
ENDBRANCH  18  19
ENDBRANCH  17  18
ENDBRANCH  16  17
ENDBRANCH  13  16
ENDBRANCH   1  13
TORSDOF 13
ENDMDL
MODEL 5
REMARK VINA RESULT:      -5.6      2.011      5.978
REMARK  Name = 
REMARK  14 active torsions:
REMARK  status: ('A' for Active; 'I' for Inactive)
REMARK    1  A    between atoms: C_1  and  C_2
REMARK    2  A    between atoms: C_2  and  C_3
REMARK    3  A    between atoms: C_3  and  C_4
REMARK    4  A    between atoms: C_3  and  C_6
REMARK    5  A    between atoms: C_3  and  N_8
REMARK    6  A    between atoms: C_4  and  O_5
REMARK    7  A    between atoms: C_6  and  O_7
REMARK    8  A    between atoms: N_8  and  C_9
REMARK    9  A    between atoms: C_9  and  C_10
REMARK   10  A    between atoms: C_10  and  O_11
REMARK   11  A    between atoms: C_10  and  C_12
REMARK   12  A    between atoms: C_12  and  O_13
REMARK   13  A    between atoms: O_13  and  C_14
REMARK   14  A    between atoms: C_14  and  C_15
REMARK                            x       y       z     vdW  Elec       q    Type
REMARK                         _______ _______ _______ _____ _____    ______ ____
ROOT
ATOM      1  C   UNL     1       4.498   6.078  17.837  0.00  0.00    +0.000 C 
ENDROOT
BRANCH   1   2
ATOM      2  N   UNL     1       5.636   5.852  18.734  0.00  0.00    +0.000 NA
ATOM      3  H   UNL     1       5.524   6.407  19.581  0.00  0.00    +0.000 HD
BRANCH   2   4
ATOM      4  C   UNL     1       6.972   5.985  18.100  0.00  0.00    +0.000 C 
BRANCH   4   6
ATOM      5  C   UNL     1       7.924   8.419  17.730  0.00  0.00    +0.000 C 
ATOM      6  C   UNL     1       6.974   7.313  17.277  0.00  0.00    +0.000 C 
ENDBRANCH   4   6
BRANCH   4   7
ATOM      7  C   UNL     1       7.332   4.770  17.185  0.00  0.00    +0.000 C 
BRANCH   7   8
ATOM      8  O   UNL     1       8.369   3.948  17.712  0.00  0.00    +0.000 OA
ATOM      9  H   UNL     1       8.039   3.573  18.545  0.00  0.00    +0.000 HD
ENDBRANCH   7   8
ENDBRANCH   4   7
BRANCH   4  10
ATOM     10  C   UNL     1       8.109   6.072  19.186  0.00  0.00    +0.000 C 
BRANCH  10  11
ATOM     11  O   UNL     1       7.812   5.405  20.411  0.00  0.00    +0.000 OA
ATOM     12  H   UNL     1       7.962   4.455  20.285  0.00  0.00    +0.000 HD
ENDBRANCH  10  11
ENDBRANCH   4  10
ENDBRANCH   2   4
ENDBRANCH   1   2
BRANCH   1  13
ATOM     13  C   UNL     1       3.397   5.011  18.001  0.00  0.00    +0.000 C 
BRANCH  13  14
ATOM     14  O   UNL     1       2.104   5.609  17.814  0.00  0.00    +0.000 OA
ATOM     15  H   UNL     1       1.468   5.148  18.385  0.00  0.00    +0.000 HD
ENDBRANCH  13  14
BRANCH  13  16
ATOM     16  C   UNL     1       3.617   3.879  16.983  0.00  0.00    +0.000 C 
BRANCH  16  17
ATOM     17  O   UNL     1       3.940   2.669  17.659  0.00  0.00    +0.000 OA
BRANCH  17  18
ATOM     18  C   UNL     1       2.774   1.961  18.076  0.00  0.00    +0.000 C 
BRANCH  18  19
ATOM     19  C   UNL     1       2.495   2.340  19.483  0.00  0.00    +0.000 A 
ATOM     20  C   UNL     1       3.277   2.537  20.604  0.00  0.00    +0.000 A 
ATOM     21  C   UNL     1       2.396   2.907  21.651  0.00  0.00    +0.000 A 
ATOM     22  C   UNL     1       1.130   2.905  21.103  0.00  0.00    +0.000 A 
ATOM     23  O   UNL     1       1.179   2.561  19.788  0.00  0.00    +0.000 OA
ENDBRANCH  18  19
ENDBRANCH  17  18
ENDBRANCH  16  17
ENDBRANCH  13  16
ENDBRANCH   1  13
TORSDOF 13
ENDMDL
MODEL 6
REMARK VINA RESULT:      -5.5      2.222      6.021
REMARK  Name = 
REMARK  14 active torsions:
REMARK  status: ('A' for Active; 'I' for Inactive)
REMARK    1  A    between atoms: C_1  and  C_2
REMARK    2  A    between atoms: C_2  and  C_3
REMARK    3  A    between atoms: C_3  and  C_4
REMARK    4  A    between atoms: C_3  and  C_6
REMARK    5  A    between atoms: C_3  and  N_8
REMARK    6  A    between atoms: C_4  and  O_5
REMARK    7  A    between atoms: C_6  and  O_7
REMARK    8  A    between atoms: N_8  and  C_9
REMARK    9  A    between atoms: C_9  and  C_10
REMARK   10  A    between atoms: C_10  and  O_11
REMARK   11  A    between atoms: C_10  and  C_12
REMARK   12  A    between atoms: C_12  and  O_13
REMARK   13  A    between atoms: O_13  and  C_14
REMARK   14  A    between atoms: C_14  and  C_15
REMARK                            x       y       z     vdW  Elec       q    Type
REMARK                         _______ _______ _______ _____ _____    ______ ____
ROOT
ATOM      1  C   UNL     1       4.652   5.852  17.829  0.00  0.00    +0.000 C 
ENDROOT
BRANCH   1   2
ATOM      2  N   UNL     1       5.922   6.513  17.510  0.00  0.00    +0.000 NA
ATOM      3  H   UNL     1       6.030   6.583  16.500  0.00  0.00    +0.000 HD
BRANCH   2   4
ATOM      4  C   UNL     1       7.111   5.958  18.205  0.00  0.00    +0.000 C 
BRANCH   4   6
ATOM      5  C   UNL     1       7.849   8.427  17.636  0.00  0.00    +0.000 C 
ATOM      6  C   UNL     1       8.159   7.108  18.340  0.00  0.00    +0.000 C 
ENDBRANCH   4   6
BRANCH   4   7
ATOM      7  C   UNL     1       7.731   4.733  17.458  0.00  0.00    +0.000 C 
BRANCH   7   8
ATOM      8  O   UNL     1       7.693   4.852  16.039  0.00  0.00    +0.000 OA
ATOM      9  H   UNL     1       7.388   3.998  15.690  0.00  0.00    +0.000 HD
ENDBRANCH   7   8
ENDBRANCH   4   7
BRANCH   4  10
ATOM     10  C   UNL     1       6.739   5.452  19.649  0.00  0.00    +0.000 C 
BRANCH  10  11
ATOM     11  O   UNL     1       7.836   5.391  20.557  0.00  0.00    +0.000 OA
ATOM     12  H   UNL     1       8.634   5.159  20.057  0.00  0.00    +0.000 HD
ENDBRANCH  10  11
ENDBRANCH   4  10
ENDBRANCH   2   4
ENDBRANCH   1   2
BRANCH   1  13
ATOM     13  C   UNL     1       4.161   4.938  16.688  0.00  0.00    +0.000 C 
BRANCH  13  14
ATOM     14  O   UNL     1       4.973   5.134  15.520  0.00  0.00    +0.000 OA
ATOM     15  H   UNL     1       5.788   5.592  15.786  0.00  0.00    +0.000 HD
ENDBRANCH  13  14
BRANCH  13  16
ATOM     16  C   UNL     1       4.217   3.469  17.141  0.00  0.00    +0.000 C 
BRANCH  16  17
ATOM     17  O   UNL     1       2.899   2.944  17.261  0.00  0.00    +0.000 OA
BRANCH  17  18
ATOM     18  C   UNL     1       2.842   1.835  18.156  0.00  0.00    +0.000 C 
BRANCH  18  19
ATOM     19  C   UNL     1       2.310   2.328  19.450  0.00  0.00    +0.000 A 
ATOM     20  C   UNL     1       1.068   2.744  19.889  0.00  0.00    +0.000 A 
ATOM     21  C   UNL     1       1.216   3.082  21.258  0.00  0.00    +0.000 A 
ATOM     22  C   UNL     1       2.542   2.857  21.565  0.00  0.00    +0.000 A 
ATOM     23  O   UNL     1       3.214   2.401  20.474  0.00  0.00    +0.000 OA
ENDBRANCH  18  19
ENDBRANCH  17  18
ENDBRANCH  16  17
ENDBRANCH  13  16
ENDBRANCH   1  13
TORSDOF 13
ENDMDL
MODEL 7
REMARK VINA RESULT:      -5.4      1.154      1.598
REMARK  Name = 
REMARK  14 active torsions:
REMARK  status: ('A' for Active; 'I' for Inactive)
REMARK    1  A    between atoms: C_1  and  C_2
REMARK    2  A    between atoms: C_2  and  C_3
REMARK    3  A    between atoms: C_3  and  C_4
REMARK    4  A    between atoms: C_3  and  C_6
REMARK    5  A    between atoms: C_3  and  N_8
REMARK    6  A    between atoms: C_4  and  O_5
REMARK    7  A    between atoms: C_6  and  O_7
REMARK    8  A    between atoms: N_8  and  C_9
REMARK    9  A    between atoms: C_9  and  C_10
REMARK   10  A    between atoms: C_10  and  O_11
REMARK   11  A    between atoms: C_10  and  C_12
REMARK   12  A    between atoms: C_12  and  O_13
REMARK   13  A    between atoms: O_13  and  C_14
REMARK   14  A    between atoms: C_14  and  C_15
REMARK                            x       y       z     vdW  Elec       q    Type
REMARK                         _______ _______ _______ _____ _____    ______ ____
ROOT
ATOM      1  C   UNL     1       2.970   5.492  18.272  0.00  0.00    +0.000 C 
ENDROOT
BRANCH   1   2
ATOM      2  N   UNL     1       3.211   4.976  19.625  0.00  0.00    +0.000 NA
ATOM      3  H   UNL     1       4.175   5.160  19.897  0.00  0.00    +0.000 HD
BRANCH   2   4
ATOM      4  C   UNL     1       2.779   3.573  19.848  0.00  0.00    +0.000 C 
BRANCH   4   6
ATOM      5  C   UNL     1       0.657   2.315  18.908  0.00  0.00    +0.000 C 
ATOM      6  C   UNL     1       1.906   3.148  18.625  0.00  0.00    +0.000 C 
ENDBRANCH   4   6
BRANCH   4   7
ATOM      7  C   UNL     1       1.984   3.390  21.182  0.00  0.00    +0.000 C 
BRANCH   7   8
ATOM      8  O   UNL     1       2.626   2.523  22.113  0.00  0.00    +0.000 OA
ATOM      9  H   UNL     1       2.680   3.002  22.957  0.00  0.00    +0.000 HD
ENDBRANCH   7   8
ENDBRANCH   4   7
BRANCH   4  10
ATOM     10  C   UNL     1       4.018   2.605  19.936  0.00  0.00    +0.000 C 
BRANCH  10  11
ATOM     11  O   UNL     1       4.380   1.992  18.700  0.00  0.00    +0.000 OA
ATOM     12  H   UNL     1       3.593   1.562  18.331  0.00  0.00    +0.000 HD
ENDBRANCH  10  11
ENDBRANCH   4  10
ENDBRANCH   2   4
ENDBRANCH   1   2
BRANCH   1  13
ATOM     13  C   UNL     1       4.258   6.010  17.602  0.00  0.00    +0.000 C 
BRANCH  13  14
ATOM     14  O   UNL     1       4.168   7.429  17.399  0.00  0.00    +0.000 OA
ATOM     15  H   UNL     1       4.632   7.651  16.575  0.00  0.00    +0.000 HD
ENDBRANCH  13  14
BRANCH  13  16
ATOM     16  C   UNL     1       5.473   5.670  18.482  0.00  0.00    +0.000 C 
BRANCH  16  17
ATOM     17  O   UNL     1       6.678   5.979  17.792  0.00  0.00    +0.000 OA
BRANCH  17  18
ATOM     18  C   UNL     1       7.368   4.806  17.362  0.00  0.00    +0.000 C 
BRANCH  18  19
ATOM     19  C   UNL     1       6.973   4.541  15.957  0.00  0.00    +0.000 A 
ATOM     20  C   UNL     1       6.056   3.704  15.352  0.00  0.00    +0.000 A 
ATOM     21  C   UNL     1       6.154   3.937  13.958  0.00  0.00    +0.000 A 
ATOM     22  C   UNL     1       7.131   4.898  13.800  0.00  0.00    +0.000 A 
ATOM     23  O   UNL     1       7.635   5.270  15.007  0.00  0.00    +0.000 OA
ENDBRANCH  18  19
ENDBRANCH  17  18
ENDBRANCH  16  17
ENDBRANCH  13  16
ENDBRANCH   1  13
TORSDOF 13
ENDMDL
MODEL 8
REMARK VINA RESULT:      -5.4      1.772      5.477
REMARK  Name = 
REMARK  14 active torsions:
REMARK  status: ('A' for Active; 'I' for Inactive)
REMARK    1  A    between atoms: C_1  and  C_2
REMARK    2  A    between atoms: C_2  and  C_3
REMARK    3  A    between atoms: C_3  and  C_4
REMARK    4  A    between atoms: C_3  and  C_6
REMARK    5  A    between atoms: C_3  and  N_8
REMARK    6  A    between atoms: C_4  and  O_5
REMARK    7  A    between atoms: C_6  and  O_7
REMARK    8  A    between atoms: N_8  and  C_9
REMARK    9  A    between atoms: C_9  and  C_10
REMARK   10  A    between atoms: C_10  and  O_11
REMARK   11  A    between atoms: C_10  and  C_12
REMARK   12  A    between atoms: C_12  and  O_13
REMARK   13  A    between atoms: O_13  and  C_14
REMARK   14  A    between atoms: C_14  and  C_15
REMARK                            x       y       z     vdW  Elec       q    Type
REMARK                         _______ _______ _______ _____ _____    ______ ____
ROOT
ATOM      1  C   UNL     1       4.501   5.787  18.957  0.00  0.00    +0.000 C 
ENDROOT
BRANCH   1   2
ATOM      2  N   UNL     1       4.879   5.126  17.702  0.00  0.00    +0.000 NA
ATOM      3  H   UNL     1       4.691   4.127  17.768  0.00  0.00    +0.000 HD
BRANCH   2   4
ATOM      4  C   UNL     1       6.240   5.452  17.206  0.00  0.00    +0.000 C 
BRANCH   4   6
ATOM      5  C   UNL     1       7.625   7.646  17.689  0.00  0.00    +0.000 C 
ATOM      6  C   UNL     1       6.355   7.007  17.130  0.00  0.00    +0.000 C 
ENDBRANCH   4   6
BRANCH   4   7
ATOM      7  C   UNL     1       6.545   4.809  15.814  0.00  0.00    +0.000 C 
BRANCH   7   8
ATOM      8  O   UNL     1       7.625   5.432  15.124  0.00  0.00    +0.000 OA
ATOM      9  H   UNL     1       7.366   6.354  14.963  0.00  0.00    +0.000 HD
ENDBRANCH   7   8
ENDBRANCH   4   7
BRANCH   4  10
ATOM     10  C   UNL     1       7.345   4.918  18.191  0.00  0.00    +0.000 C 
BRANCH  10  11
ATOM     11  O   UNL     1       8.281   4.017  17.602  0.00  0.00    +0.000 OA
ATOM     12  H   UNL     1       9.047   3.944  18.192  0.00  0.00    +0.000 HD
ENDBRANCH  10  11
ENDBRANCH   4  10
ENDBRANCH   2   4
ENDBRANCH   1   2
BRANCH   1  13
ATOM     13  C   UNL     1       3.071   6.362  18.914  0.00  0.00    +0.000 C 
BRANCH  13  14
ATOM     14  O   UNL     1       2.323   5.733  17.861  0.00  0.00    +0.000 OA
ATOM     15  H   UNL     1       2.731   5.968  17.011  0.00  0.00    +0.000 HD
ENDBRANCH  13  14
BRANCH  13  16
ATOM     16  C   UNL     1       2.382   6.137  20.270  0.00  0.00    +0.000 C 
BRANCH  16  17
ATOM     17  O   UNL     1       1.477   5.042  20.183  0.00  0.00    +0.000 OA
BRANCH  17  18
ATOM     18  C   UNL     1       1.980   3.877  20.833  0.00  0.00    +0.000 C 
BRANCH  18  19
ATOM     19  C   UNL     1       2.536   2.983  19.788  0.00  0.00    +0.000 A 
ATOM     20  C   UNL     1       3.635   2.151  19.713  0.00  0.00    +0.000 A 
ATOM     21  C   UNL     1       3.601   1.551  18.429  0.00  0.00    +0.000 A 
ATOM     22  C   UNL     1       2.484   2.061  17.800  0.00  0.00    +0.000 A 
ATOM     23  O   UNL     1       1.832   2.932  18.616  0.00  0.00    +0.000 OA
ENDBRANCH  18  19
ENDBRANCH  17  18
ENDBRANCH  16  17
ENDBRANCH  13  16
ENDBRANCH   1  13
TORSDOF 13
ENDMDL
MODEL 9
REMARK VINA RESULT:      -5.4      1.747      5.827
REMARK  Name = 
REMARK  14 active torsions:
REMARK  status: ('A' for Active; 'I' for Inactive)
REMARK    1  A    between atoms: C_1  and  C_2
REMARK    2  A    between atoms: C_2  and  C_3
REMARK    3  A    between atoms: C_3  and  C_4
REMARK    4  A    between atoms: C_3  and  C_6
REMARK    5  A    between atoms: C_3  and  N_8
REMARK    6  A    between atoms: C_4  and  O_5
REMARK    7  A    between atoms: C_6  and  O_7
REMARK    8  A    between atoms: N_8  and  C_9
REMARK    9  A    between atoms: C_9  and  C_10
REMARK   10  A    between atoms: C_10  and  O_11
REMARK   11  A    between atoms: C_10  and  C_12
REMARK   12  A    between atoms: C_12  and  O_13
REMARK   13  A    between atoms: O_13  and  C_14
REMARK   14  A    between atoms: C_14  and  C_15
REMARK                            x       y       z     vdW  Elec       q    Type
REMARK                         _______ _______ _______ _____ _____    ______ ____
ROOT
ATOM      1  C   UNL     1       5.011   3.836  19.140  0.00  0.00    +0.000 C 
ENDROOT
BRANCH   1   2
ATOM      2  N   UNL     1       4.855   4.461  17.822  0.00  0.00    +0.000 NA
ATOM      3  H   UNL     1       4.374   3.822  17.192  0.00  0.00    +0.000 HD
BRANCH   2   4
ATOM      4  C   UNL     1       6.095   5.047  17.254  0.00  0.00    +0.000 C 
BRANCH   4   6
ATOM      5  C   UNL     1       4.445   7.046  16.757  0.00  0.00    +0.000 C 
ATOM      6  C   UNL     1       5.861   6.583  17.092  0.00  0.00    +0.000 C 
ENDBRANCH   4   6
BRANCH   4   7
ATOM      7  C   UNL     1       6.497   4.405  15.887  0.00  0.00    +0.000 C 
BRANCH   7   8
ATOM      8  O   UNL     1       6.118   3.036  15.768  0.00  0.00    +0.000 OA
ATOM      9  H   UNL     1       5.353   3.004  15.171  0.00  0.00    +0.000 HD
ENDBRANCH   7   8
ENDBRANCH   4   7
BRANCH   4  10
ATOM     10  C   UNL     1       7.319   4.830  18.221  0.00  0.00    +0.000 C 
BRANCH  10  11
ATOM     11  O   UNL     1       8.347   3.991  17.698  0.00  0.00    +0.000 OA
ATOM     12  H   UNL     1       9.096   4.551  17.441  0.00  0.00    +0.000 HD
ENDBRANCH  10  11
ENDBRANCH   4  10
ENDBRANCH   2   4
ENDBRANCH   1   2
BRANCH   1  13
ATOM     13  C   UNL     1       4.613   2.346  19.136  0.00  0.00    +0.000 C 
BRANCH  13  14
ATOM     14  O   UNL     1       5.305   1.652  20.187  0.00  0.00    +0.000 OA
ATOM     15  H   UNL     1       6.208   2.004  20.244  0.00  0.00    +0.000 HD
ENDBRANCH  13  14
BRANCH  13  16
ATOM     16  C   UNL     1       3.091   2.215  19.317  0.00  0.00    +0.000 C 
BRANCH  16  17
ATOM     17  O   UNL     1       2.425   2.550  18.104  0.00  0.00    +0.000 OA
BRANCH  17  18
ATOM     18  C   UNL     1       1.186   3.216  18.339  0.00  0.00    +0.000 C 
BRANCH  18  19
ATOM     19  C   UNL     1       1.460   4.380  19.217  0.00  0.00    +0.000 A 
ATOM     20  C   UNL     1       1.224   4.664  20.548  0.00  0.00    +0.000 A 
ATOM     21  C   UNL     1       1.747   5.960  20.784  0.00  0.00    +0.000 A 
ATOM     22  C   UNL     1       2.264   6.387  19.578  0.00  0.00    +0.000 A 
ATOM     23  O   UNL     1       2.093   5.437  18.621  0.00  0.00    +0.000 OA
ENDBRANCH  18  19
ENDBRANCH  17  18
ENDBRANCH  16  17
ENDBRANCH  13  16
ENDBRANCH   1  13
TORSDOF 13
ENDMDL
