MODEL 1
REMARK VINA RESULT:      -5.5      0.000      0.000
REMARK  Name = 
REMARK  7 active torsions:
REMARK  status: ('A' for Active; 'I' for Inactive)
REMARK    1  A    between atoms: O_1  and  C_2
REMARK    2  A    between atoms: C_2  and  C_3
REMARK    3  A    between atoms: C_5  and  O_6
REMARK    4  A    between atoms: C_7  and  O_8
REMARK    5  A    between atoms: C_9  and  O_10
REMARK    6  A    between atoms: C_11  and  C_12
REMARK    7  A    between atoms: C_12  and  O_13
REMARK                            x       y       z     vdW  Elec       q    Type
REMARK                         _______ _______ _______ _____ _____    ______ ____
ROOT
ATOM      1  C   UNL     1       4.727   5.027  18.288  0.00  0.00    +0.000 C 
ATOM      2  C   UNL     1       4.549   6.119  17.226  0.00  0.00    +0.000 C 
ATOM      3  C   UNL     1       5.332   5.848  15.953  0.00  0.00    +0.000 C 
ATOM      4  C   UNL     1       6.812   5.545  16.226  0.00  0.00    +0.000 C 
ATOM      5  C   UNL     1       6.945   4.410  17.251  0.00  0.00    +0.000 C 
ATOM      6  C   UNL     1       6.223   4.735  18.583  0.00  0.00    +0.000 C 
ENDROOT
BRANCH   3   7
ATOM      7  O   UNL     1       5.211   7.010  15.127  0.00  0.00    +0.000 OA
ATOM      8  H   UNL     1       5.940   7.609  15.383  0.00  0.00    +0.000 HD
ENDBRANCH   3   7
BRANCH   4   9
ATOM      9  O   UNL     1       7.421   5.216  14.967  0.00  0.00    +0.000 OA
ATOM     10  H   UNL     1       6.730   5.268  14.282  0.00  0.00    +0.000 HD
ENDBRANCH   4   9
BRANCH   5  11
ATOM     11  O   UNL     1       8.322   4.088  17.447  0.00  0.00    +0.000 OA
ATOM     12  H   UNL     1       8.846   4.735  16.929  0.00  0.00    +0.000 HD
ENDBRANCH   5  11
BRANCH   1  13
ATOM     13  C   UNL     1       3.900   5.390  19.525  0.00  0.00    +0.000 C 
BRANCH  13  14
ATOM     14  O   UNL     1       3.153   4.262  19.949  0.00  0.00    +0.000 OA
ATOM     15  H   UNL     1       3.266   3.574  19.270  0.00  0.00    +0.000 HD
ENDBRANCH  13  14
ENDBRANCH   1  13
BRANCH   6  16
ATOM     16  C   UNL     1       6.911   5.855  19.386  0.00  0.00    +0.000 C 
BRANCH  16  17
ATOM     17  O   UNL     1       7.889   5.305  20.266  0.00  0.00    +0.000 OA
ATOM     18  H   UNL     1       8.750   5.684  20.000  0.00  0.00    +0.000 HD
ENDBRANCH  16  17
ENDBRANCH   6  16
TORSDOF 7
ENDMDL
MODEL 2
REMARK VINA RESULT:      -5.4      3.032      4.916
REMARK  Name = 
REMARK  7 active torsions:
REMARK  status: ('A' for Active; 'I' for Inactive)
REMARK    1  A    between atoms: O_1  and  C_2
REMARK    2  A    between atoms: C_2  and  C_3
REMARK    3  A    between atoms: C_5  and  O_6
REMARK    4  A    between atoms: C_7  and  O_8
REMARK    5  A    between atoms: C_9  and  O_10
REMARK    6  A    between atoms: C_11  and  C_12
REMARK    7  A    between atoms: C_12  and  O_13
REMARK                            x       y       z     vdW  Elec       q    Type
REMARK                         _______ _______ _______ _____ _____    ______ ____
ROOT
ATOM      1  C   UNL     1       2.600   5.331  19.117  0.00  0.00    +0.000 C 
ATOM      2  C   UNL     1       4.108   5.067  19.201  0.00  0.00    +0.000 C 
ATOM      3  C   UNL     1       4.546   3.846  18.410  0.00  0.00    +0.000 C 
ATOM      4  C   UNL     1       3.722   2.597  18.752  0.00  0.00    +0.000 C 
ATOM      5  C   UNL     1       2.221   2.889  18.602  0.00  0.00    +0.000 C 
ATOM      6  C   UNL     1       1.763   4.077  19.485  0.00  0.00    +0.000 C 
ENDROOT
BRANCH   3   7
ATOM      7  O   UNL     1       5.927   3.622  18.709  0.00  0.00    +0.000 OA
ATOM      8  H   UNL     1       6.175   4.283  19.385  0.00  0.00    +0.000 HD
ENDBRANCH   3   7
BRANCH   4   9
ATOM      9  O   UNL     1       4.161   1.542  17.882  0.00  0.00    +0.000 OA
ATOM     10  H   UNL     1       4.187   1.899  16.975  0.00  0.00    +0.000 HD
ENDBRANCH   4   9
BRANCH   5  11
ATOM     11  O   UNL     1       1.466   1.704  18.855  0.00  0.00    +0.000 OA
ATOM     12  H   UNL     1       0.755   1.665  18.182  0.00  0.00    +0.000 HD
ENDBRANCH   5  11
BRANCH   1  13
ATOM     13  C   UNL     1       2.261   6.578  19.941  0.00  0.00    +0.000 C 
BRANCH  13  14
ATOM     14  O   UNL     1       2.322   7.728  19.115  0.00  0.00    +0.000 OA
ATOM     15  H   UNL     1       3.262   7.963  19.023  0.00  0.00    +0.000 HD
ENDBRANCH  13  14
ENDBRANCH   1  13
BRANCH   6  16
ATOM     16  C   UNL     1       1.788   3.754  20.991  0.00  0.00    +0.000 C 
BRANCH  16  17
ATOM     17  O   UNL     1       0.793   2.782  21.306  0.00  0.00    +0.000 OA
ATOM     18  H   UNL     1       1.247   2.060  21.784  0.00  0.00    +0.000 HD
ENDBRANCH  16  17
ENDBRANCH   6  16
TORSDOF 7
ENDMDL
MODEL 3
REMARK VINA RESULT:      -5.4      2.913      4.127
REMARK  Name = 
REMARK  7 active torsions:
REMARK  status: ('A' for Active; 'I' for Inactive)
REMARK    1  A    between atoms: O_1  and  C_2
REMARK    2  A    between atoms: C_2  and  C_3
REMARK    3  A    between atoms: C_5  and  O_6
REMARK    4  A    between atoms: C_7  and  O_8
REMARK    5  A    between atoms: C_9  and  O_10
REMARK    6  A    between atoms: C_11  and  C_12
REMARK    7  A    between atoms: C_12  and  O_13
REMARK                            x       y       z     vdW  Elec       q    Type
REMARK                         _______ _______ _______ _____ _____    ______ ____
ROOT
ATOM      1  C   UNL     1       1.672   3.458  18.223  0.00  0.00    +0.000 C 
ATOM      2  C   UNL     1       1.934   4.585  19.229  0.00  0.00    +0.000 C 
ATOM      3  C   UNL     1       2.970   5.586  18.749  0.00  0.00    +0.000 C 
ATOM      4  C   UNL     1       4.269   4.912  18.288  0.00  0.00    +0.000 C 
ATOM      5  C   UNL     1       3.968   3.830  17.241  0.00  0.00    +0.000 C 
ATOM      6  C   UNL     1       2.982   2.759  17.771  0.00  0.00    +0.000 C 
ENDROOT
BRANCH   3   7
ATOM      7  O   UNL     1       3.236   6.474  19.838  0.00  0.00    +0.000 OA
ATOM      8  H   UNL     1       2.427   7.009  19.964  0.00  0.00    +0.000 HD
ENDBRANCH   3   7
BRANCH   4   9
ATOM      9  O   UNL     1       5.128   5.943  17.773  0.00  0.00    +0.000 OA
ATOM     10  H   UNL     1       4.889   6.776  18.220  0.00  0.00    +0.000 HD
ENDBRANCH   4   9
BRANCH   5  11
ATOM     11  O   UNL     1       5.187   3.256  16.767  0.00  0.00    +0.000 OA
ATOM     12  H   UNL     1       5.529   3.846  16.063  0.00  0.00    +0.000 HD
ENDBRANCH   5  11
BRANCH   1  13
ATOM     13  C   UNL     1       0.616   2.508  18.795  0.00  0.00    +0.000 C 
BRANCH  13  14
ATOM     14  O   UNL     1       0.292   2.894  20.121  0.00  0.00    +0.000 OA
ATOM     15  H   UNL     1       1.132   2.976  20.605  0.00  0.00    +0.000 HD
ENDBRANCH  13  14
ENDBRANCH   1  13
BRANCH   6  16
ATOM     16  C   UNL     1       3.596   1.862  18.863  0.00  0.00    +0.000 C 
BRANCH  16  17
ATOM     17  O   UNL     1       4.121   0.668  18.286  0.00  0.00    +0.000 OA
ATOM     18  H   UNL     1       4.819   0.348  18.891  0.00  0.00    +0.000 HD
ENDBRANCH  16  17
ENDBRANCH   6  16
TORSDOF 7
ENDMDL
MODEL 4
REMARK VINA RESULT:      -5.3      2.645      3.606
REMARK  Name = 
REMARK  7 active torsions:
REMARK  status: ('A' for Active; 'I' for Inactive)
REMARK    1  A    between atoms: O_1  and  C_2
REMARK    2  A    between atoms: C_2  and  C_3
REMARK    3  A    between atoms: C_5  and  O_6
REMARK    4  A    between atoms: C_7  and  O_8
REMARK    5  A    between atoms: C_9  and  O_10
REMARK    6  A    between atoms: C_11  and  C_12
REMARK    7  A    between atoms: C_12  and  O_13
REMARK                            x       y       z     vdW  Elec       q    Type
REMARK                         _______ _______ _______ _____ _____    ______ ____
ROOT
ATOM      1  C   UNL     1       2.230   3.304  18.295  0.00  0.00    +0.000 C 
ATOM      2  C   UNL     1       1.906   4.706  18.825  0.00  0.00    +0.000 C 
ATOM      3  C   UNL     1       2.867   5.772  18.326  0.00  0.00    +0.000 C 
ATOM      4  C   UNL     1       4.336   5.394  18.558  0.00  0.00    +0.000 C 
ATOM      5  C   UNL     1       4.632   4.008  17.964  0.00  0.00    +0.000 C 
ATOM      6  C   UNL     1       3.710   2.910  18.549  0.00  0.00    +0.000 C 
ENDROOT
BRANCH   3   7
ATOM      7  O   UNL     1       2.555   6.982  19.021  0.00  0.00    +0.000 OA
ATOM      8  H   UNL     1       2.404   6.735  19.955  0.00  0.00    +0.000 HD
ENDBRANCH   3   7
BRANCH   4   9
ATOM      9  O   UNL     1       5.143   6.423  17.966  0.00  0.00    +0.000 OA
ATOM     10  H   UNL     1       4.837   7.279  18.320  0.00  0.00    +0.000 HD
ENDBRANCH   4   9
BRANCH   5  11
ATOM     11  O   UNL     1       6.016   3.695  18.124  0.00  0.00    +0.000 OA
ATOM     12  H   UNL     1       6.526   4.394  17.662  0.00  0.00    +0.000 HD
ENDBRANCH   5  11
BRANCH   1  13
ATOM     13  C   UNL     1       1.208   2.308  18.851  0.00  0.00    +0.000 C 
BRANCH  13  14
ATOM     14  O   UNL     1       0.447   2.925  19.875  0.00  0.00    +0.000 OA
ATOM     15  H   UNL     1       0.986   2.899  20.685  0.00  0.00    +0.000 HD
ENDBRANCH  13  14
ENDBRANCH   1  13
BRANCH   6  16
ATOM     16  C   UNL     1       4.007   2.597  20.028  0.00  0.00    +0.000 C 
BRANCH  16  17
ATOM     17  O   UNL     1       5.173   1.782  20.137  0.00  0.00    +0.000 OA
ATOM     18  H   UNL     1       4.929   0.897  19.804  0.00  0.00    +0.000 HD
ENDBRANCH  16  17
ENDBRANCH   6  16
TORSDOF 7
ENDMDL
MODEL 5
REMARK VINA RESULT:      -5.3      2.759      3.975
REMARK  Name = 
REMARK  7 active torsions:
REMARK  status: ('A' for Active; 'I' for Inactive)
REMARK    1  A    between atoms: O_1  and  C_2
REMARK    2  A    between atoms: C_2  and  C_3
REMARK    3  A    between atoms: C_5  and  O_6
REMARK    4  A    between atoms: C_7  and  O_8
REMARK    5  A    between atoms: C_9  and  O_10
REMARK    6  A    between atoms: C_11  and  C_12
REMARK    7  A    between atoms: C_12  and  O_13
REMARK                            x       y       z     vdW  Elec       q    Type
REMARK                         _______ _______ _______ _____ _____    ______ ____
ROOT
ATOM      1  C   UNL     1       2.237   3.251  18.323  0.00  0.00    +0.000 C 
ATOM      2  C   UNL     1       2.806   4.625  17.950  0.00  0.00    +0.000 C 
ATOM      3  C   UNL     1       4.315   4.622  17.779  0.00  0.00    +0.000 C 
ATOM      4  C   UNL     1       5.042   4.005  18.982  0.00  0.00    +0.000 C 
ATOM      5  C   UNL     1       4.481   2.608  19.286  0.00  0.00    +0.000 C 
ATOM      6  C   UNL     1       2.955   2.634  19.554  0.00  0.00    +0.000 C 
ENDROOT
BRANCH   3   7
ATOM      7  O   UNL     1       4.724   5.981  17.601  0.00  0.00    +0.000 OA
ATOM      8  H   UNL     1       4.476   6.454  18.420  0.00  0.00    +0.000 HD
ENDBRANCH   3   7
BRANCH   4   9
ATOM      9  O   UNL     1       6.443   3.971  18.665  0.00  0.00    +0.000 OA
ATOM     10  H   UNL     1       6.734   3.042  18.712  0.00  0.00    +0.000 HD
ENDBRANCH   4   9
BRANCH   5  11
ATOM     11  O   UNL     1       5.209   2.014  20.362  0.00  0.00    +0.000 OA
ATOM     12  H   UNL     1       6.147   2.273  20.253  0.00  0.00    +0.000 HD
ENDBRANCH   5  11
BRANCH   1  13
ATOM     13  C   UNL     1       0.717   3.359  18.470  0.00  0.00    +0.000 C 
BRANCH  13  14
ATOM     14  O   UNL     1       0.145   2.061  18.500  0.00  0.00    +0.000 OA
ATOM     15  H   UNL     1      -0.518   2.060  19.213  0.00  0.00    +0.000 HD
ENDBRANCH  13  14
ENDBRANCH   1  13
BRANCH   6  16
ATOM     16  C   UNL     1       2.586   3.327  20.879  0.00  0.00    +0.000 C 
BRANCH  16  17
ATOM     17  O   UNL     1       2.805   2.444  21.978  0.00  0.00    +0.000 OA
ATOM     18  H   UNL     1       3.298   2.952  22.652  0.00  0.00    +0.000 HD
ENDBRANCH  16  17
ENDBRANCH   6  16
TORSDOF 7
ENDMDL
MODEL 6
REMARK VINA RESULT:      -5.2      2.801      5.170
REMARK  Name = 
REMARK  7 active torsions:
REMARK  status: ('A' for Active; 'I' for Inactive)
REMARK    1  A    between atoms: O_1  and  C_2
REMARK    2  A    between atoms: C_2  and  C_3
REMARK    3  A    between atoms: C_5  and  O_6
REMARK    4  A    between atoms: C_7  and  O_8
REMARK    5  A    between atoms: C_9  and  O_10
REMARK    6  A    between atoms: C_11  and  C_12
REMARK    7  A    between atoms: C_12  and  O_13
REMARK                            x       y       z     vdW  Elec       q    Type
REMARK                         _______ _______ _______ _____ _____    ______ ____
ROOT
ATOM      1  C   UNL     1       4.196   4.588  19.269  0.00  0.00    +0.000 C 
ATOM      2  C   UNL     1       3.227   4.345  18.106  0.00  0.00    +0.000 C 
ATOM      3  C   UNL     1       1.778   4.232  18.548  0.00  0.00    +0.000 C 
ATOM      4  C   UNL     1       1.586   3.213  19.679  0.00  0.00    +0.000 C 
ATOM      5  C   UNL     1       2.534   3.525  20.846  0.00  0.00    +0.000 C 
ATOM      6  C   UNL     1       4.020   3.545  20.405  0.00  0.00    +0.000 C 
ENDROOT
BRANCH   3   7
ATOM      7  O   UNL     1       1.015   3.845  17.401  0.00  0.00    +0.000 OA
ATOM      8  H   UNL     1       0.189   4.366  17.429  0.00  0.00    +0.000 HD
ENDBRANCH   3   7
BRANCH   4   9
ATOM      9  O   UNL     1       0.205   3.264  20.072  0.00  0.00    +0.000 OA
ATOM     10  H   UNL     1       0.039   4.146  20.453  0.00  0.00    +0.000 HD
ENDBRANCH   4   9
BRANCH   5  11
ATOM     11  O   UNL     1       2.301   2.615  21.921  0.00  0.00    +0.000 OA
ATOM     12  H   UNL     1       1.449   2.869  22.335  0.00  0.00    +0.000 HD
ENDBRANCH   5  11
BRANCH   1  13
ATOM     13  C   UNL     1       5.623   4.689  18.723  0.00  0.00    +0.000 C 
BRANCH  13  14
ATOM     14  O   UNL     1       6.495   5.150  19.742  0.00  0.00    +0.000 OA
ATOM     15  H   UNL     1       6.220   4.716  20.568  0.00  0.00    +0.000 HD
ENDBRANCH  13  14
ENDBRANCH   1  13
BRANCH   6  16
ATOM     16  C   UNL     1       4.558   2.150  20.035  0.00  0.00    +0.000 C 
BRANCH  16  17
ATOM     17  O   UNL     1       5.218   1.560  21.153  0.00  0.00    +0.000 OA
ATOM     18  H   UNL     1       5.203   0.594  21.009  0.00  0.00    +0.000 HD
ENDBRANCH  16  17
ENDBRANCH   6  16
TORSDOF 7
ENDMDL
MODEL 7
REMARK VINA RESULT:      -5.1      3.145      4.107
REMARK  Name = 
REMARK  7 active torsions:
REMARK  status: ('A' for Active; 'I' for Inactive)
REMARK    1  A    between atoms: O_1  and  C_2
REMARK    2  A    between atoms: C_2  and  C_3
REMARK    3  A    between atoms: C_5  and  O_6
REMARK    4  A    between atoms: C_7  and  O_8
REMARK    5  A    between atoms: C_9  and  O_10
REMARK    6  A    between atoms: C_11  and  C_12
REMARK    7  A    between atoms: C_12  and  O_13
REMARK                            x       y       z     vdW  Elec       q    Type
REMARK                         _______ _______ _______ _____ _____    ______ ____
ROOT
ATOM      1  C   UNL     1       1.901   3.311  19.952  0.00  0.00    +0.000 C 
ATOM      2  C   UNL     1       2.070   4.773  20.383  0.00  0.00    +0.000 C 
ATOM      3  C   UNL     1       2.527   5.680  19.252  0.00  0.00    +0.000 C 
ATOM      4  C   UNL     1       3.772   5.143  18.534  0.00  0.00    +0.000 C 
ATOM      5  C   UNL     1       3.540   3.697  18.071  0.00  0.00    +0.000 C 
ATOM      6  C   UNL     1       3.167   2.758  19.246  0.00  0.00    +0.000 C 
ENDROOT
BRANCH   3   7
ATOM      7  O   UNL     1       2.803   6.962  19.824  0.00  0.00    +0.000 OA
ATOM      8  H   UNL     1       2.693   6.864  20.791  0.00  0.00    +0.000 HD
ENDBRANCH   3   7
BRANCH   4   9
ATOM      9  O   UNL     1       4.049   6.027  17.437  0.00  0.00    +0.000 OA
ATOM     10  H   UNL     1       3.724   5.599  16.623  0.00  0.00    +0.000 HD
ENDBRANCH   4   9
BRANCH   5  11
ATOM     11  O   UNL     1       4.676   3.229  17.344  0.00  0.00    +0.000 OA
ATOM     12  H   UNL     1       4.569   3.528  16.417  0.00  0.00    +0.000 HD
ENDBRANCH   5  11
BRANCH   1  13
ATOM     13  C   UNL     1       1.438   2.484  21.155  0.00  0.00    +0.000 C 
BRANCH  13  14
ATOM     14  O   UNL     1       1.913   3.074  22.354  0.00  0.00    +0.000 OA
ATOM     15  H   UNL     1       1.396   3.887  22.494  0.00  0.00    +0.000 HD
ENDBRANCH  13  14
ENDBRANCH   1  13
BRANCH   6  16
ATOM     16  C   UNL     1       4.339   2.507  20.214  0.00  0.00    +0.000 C 
BRANCH  16  17
ATOM     17  O   UNL     1       5.117   1.396  19.772  0.00  0.00    +0.000 OA
ATOM     18  H   UNL     1       5.889   1.765  19.300  0.00  0.00    +0.000 HD
ENDBRANCH  16  17
ENDBRANCH   6  16
TORSDOF 7
ENDMDL
MODEL 8
REMARK VINA RESULT:      -5.1      2.264      3.710
REMARK  Name = 
REMARK  7 active torsions:
REMARK  status: ('A' for Active; 'I' for Inactive)
REMARK    1  A    between atoms: O_1  and  C_2
REMARK    2  A    between atoms: C_2  and  C_3
REMARK    3  A    between atoms: C_5  and  O_6
REMARK    4  A    between atoms: C_7  and  O_8
REMARK    5  A    between atoms: C_9  and  O_10
REMARK    6  A    between atoms: C_11  and  C_12
REMARK    7  A    between atoms: C_12  and  O_13
REMARK                            x       y       z     vdW  Elec       q    Type
REMARK                         _______ _______ _______ _____ _____    ______ ____
ROOT
ATOM      1  C   UNL     1       3.298   6.248  18.443  0.00  0.00    +0.000 C 
ATOM      2  C   UNL     1       2.286   5.215  17.933  0.00  0.00    +0.000 C 
ATOM      3  C   UNL     1       2.637   3.789  18.325  0.00  0.00    +0.000 C 
ATOM      4  C   UNL     1       4.078   3.416  17.953  0.00  0.00    +0.000 C 
ATOM      5  C   UNL     1       5.063   4.444  18.528  0.00  0.00    +0.000 C 
ATOM      6  C   UNL     1       4.755   5.885  18.048  0.00  0.00    +0.000 C 
ENDROOT
BRANCH   3   7
ATOM      7  O   UNL     1       1.716   2.927  17.652  0.00  0.00    +0.000 OA
ATOM      8  H   UNL     1       2.211   2.508  16.921  0.00  0.00    +0.000 HD
ENDBRANCH   3   7
BRANCH   4   9
ATOM      9  O   UNL     1       4.321   2.092  18.453  0.00  0.00    +0.000 OA
ATOM     10  H   UNL     1       3.647   1.904  19.132  0.00  0.00    +0.000 HD
ENDBRANCH   4   9
BRANCH   5  11
ATOM     11  O   UNL     1       6.405   4.052  18.236  0.00  0.00    +0.000 OA
ATOM     12  H   UNL     1       6.986   4.513  18.877  0.00  0.00    +0.000 HD
ENDBRANCH   5  11
BRANCH   1  13
ATOM     13  C   UNL     1       2.855   7.646  18.000  0.00  0.00    +0.000 C 
BRANCH  13  14
ATOM     14  O   UNL     1       2.028   8.223  18.996  0.00  0.00    +0.000 OA
ATOM     15  H   UNL     1       1.886   7.543  19.677  0.00  0.00    +0.000 HD
ENDBRANCH  13  14
ENDBRANCH   1  13
BRANCH   6  16
ATOM     16  C   UNL     1       5.046   6.097  16.550  0.00  0.00    +0.000 C 
BRANCH  16  17
ATOM     17  O   UNL     1       6.411   6.465  16.358  0.00  0.00    +0.000 OA
ATOM     18  H   UNL     1       6.900   5.640  16.171  0.00  0.00    +0.000 HD
ENDBRANCH  16  17
ENDBRANCH   6  16
TORSDOF 7
ENDMDL
MODEL 9
REMARK VINA RESULT:      -5.1      2.630      5.319
REMARK  Name = 
REMARK  7 active torsions:
REMARK  status: ('A' for Active; 'I' for Inactive)
REMARK    1  A    between atoms: O_1  and  C_2
REMARK    2  A    between atoms: C_2  and  C_3
REMARK    3  A    between atoms: C_5  and  O_6
REMARK    4  A    between atoms: C_7  and  O_8
REMARK    5  A    between atoms: C_9  and  O_10
REMARK    6  A    between atoms: C_11  and  C_12
REMARK    7  A    between atoms: C_12  and  O_13
REMARK                            x       y       z     vdW  Elec       q    Type
REMARK                         _______ _______ _______ _____ _____    ______ ____
ROOT
ATOM      1  C   UNL     1       3.231   4.778  17.547  0.00  0.00    +0.000 C 
ATOM      2  C   UNL     1       4.048   3.482  17.608  0.00  0.00    +0.000 C 
ATOM      3  C   UNL     1       3.193   2.245  17.828  0.00  0.00    +0.000 C 
ATOM      4  C   UNL     1       2.251   2.389  19.031  0.00  0.00    +0.000 C 
ATOM      5  C   UNL     1       1.412   3.670  18.904  0.00  0.00    +0.000 C 
ATOM      6  C   UNL     1       2.293   4.937  18.774  0.00  0.00    +0.000 C 
ENDROOT
BRANCH   3   7
ATOM      7  O   UNL     1       4.084   1.145  18.030  0.00  0.00    +0.000 OA
ATOM      8  H   UNL     1       3.566   0.446  18.474  0.00  0.00    +0.000 HD
ENDBRANCH   3   7
BRANCH   4   9
ATOM      9  O   UNL     1       1.435   1.208  19.080  0.00  0.00    +0.000 OA
ATOM     10  H   UNL     1       0.763   1.342  19.774  0.00  0.00    +0.000 HD
ENDBRANCH   4   9
BRANCH   5  11
ATOM     11  O   UNL     1       0.491   3.760  19.991  0.00  0.00    +0.000 OA
ATOM     12  H   UNL     1       1.019   3.768  20.816  0.00  0.00    +0.000 HD
ENDBRANCH   5  11
BRANCH   1  13
ATOM     13  C   UNL     1       4.178   5.960  17.321  0.00  0.00    +0.000 C 
BRANCH  13  14
ATOM     14  O   UNL     1       5.521   5.537  17.493  0.00  0.00    +0.000 OA
ATOM     15  H   UNL     1       5.531   4.926  18.250  0.00  0.00    +0.000 HD
ENDBRANCH  13  14
ENDBRANCH   1  13
BRANCH   6  16
ATOM     16  C   UNL     1       3.049   5.282  20.072  0.00  0.00    +0.000 C 
BRANCH  16  17
ATOM     17  O   UNL     1       2.192   5.981  20.973  0.00  0.00    +0.000 OA
ATOM     18  H   UNL     1       2.360   5.611  21.862  0.00  0.00    +0.000 HD
ENDBRANCH  16  17
ENDBRANCH   6  16
TORSDOF 7
ENDMDL
