MODEL 1
REMARK VINA RESULT:      -7.7      0.000      0.000
REMARK  Name = 
REMARK  7 active torsions:
REMARK  status: ('A' for Active; 'I' for Inactive)
REMARK    1  A    between atoms: C_1  and  O_2
REMARK    2  A    between atoms: O_2  and  C_3
REMARK    3  A    between atoms: C_3  and  C_5
REMARK    4  A    between atoms: C_6  and  C_7
REMARK    5  A    between atoms: C_11  and  C_12
REMARK    6  A    between atoms: C_12  and  C_13
REMARK    7  A    between atoms: C_16  and  C_17
REMARK                            x       y       z     vdW  Elec       q    Type
REMARK                         _______ _______ _______ _____ _____    ______ ____
ROOT
ATOM      1  C   UNL     1       3.998   4.248  16.817  0.00  0.00    +0.000 C 
ENDROOT
BRANCH   1   2
ATOM      2  C   UNL     1       5.460   4.680  16.677  0.00  0.00    +0.000 C 
ATOM      3  C   UNL     1       6.251   4.591  17.995  0.00  0.00    +0.000 C 
ATOM      4  C   UNL     1       7.017   5.866  18.084  0.00  0.00    +0.000 A 
ATOM      5  C   UNL     1       7.948   6.227  19.053  0.00  0.00    +0.000 A 
ATOM      6  C   UNL     1       8.338   5.312  20.175  0.00  0.00    +0.000 C 
ATOM      7  C   UNL     1       8.494   7.518  18.973  0.00  0.00    +0.000 A 
ATOM      8  C   UNL     1       8.118   8.408  17.952  0.00  0.00    +0.000 A 
ATOM      9  C   UNL     1       7.173   8.034  16.995  0.00  0.00    +0.000 A 
ATOM     10  C   UNL     1       6.634   6.765  17.094  0.00  0.00    +0.000 A 
ATOM     11  C   UNL     1       5.615   6.132  16.261  0.00  0.00    +0.000 C 
ATOM     12  O   UNL     1       5.051   6.686  15.333  0.00  0.00    +0.000 OA
ENDBRANCH   1   2
BRANCH   1  19
ATOM     13  C   UNL     1       3.109   3.831  19.234  0.00  0.00    +0.000 A 
ATOM     14  C   UNL     1       2.391   4.331  20.349  0.00  0.00    +0.000 A 
ATOM     15  C   UNL     1       1.896   3.512  21.512  0.00  0.00    +0.000 C 
ATOM     16  C   UNL     1       2.065   5.700  20.393  0.00  0.00    +0.000 A 
ATOM     17  C   UNL     1       2.431   6.564  19.369  0.00  0.00    +0.000 A 
ATOM     18  C   UNL     1       3.092   6.067  18.254  0.00  0.00    +0.000 A 
ATOM     19  C   UNL     1       3.428   4.701  18.154  0.00  0.00    +0.000 A 
BRANCH  13  20
ATOM     20  C   UNL     1       3.607   2.422  19.220  0.00  0.00    +0.000 C 
ATOM     21  O   UNL     1       2.988   1.493  18.731  0.00  0.00    +0.000 OA
BRANCH  20  23
ATOM     22  C   UNL     1       4.864   1.497  21.009  0.00  0.00    +0.000 C 
ATOM     23  O   UNL     1       4.803   2.345  19.853  0.00  0.00    +0.000 OA
ENDBRANCH  20  23
ENDBRANCH  13  20
ENDBRANCH   1  19
TORSDOF 4
ENDMDL
MODEL 2
REMARK VINA RESULT:      -7.7      2.461      3.860
REMARK  Name = 
REMARK  7 active torsions:
REMARK  status: ('A' for Active; 'I' for Inactive)
REMARK    1  A    between atoms: C_1  and  O_2
REMARK    2  A    between atoms: O_2  and  C_3
REMARK    3  A    between atoms: C_3  and  C_5
REMARK    4  A    between atoms: C_6  and  C_7
REMARK    5  A    between atoms: C_11  and  C_12
REMARK    6  A    between atoms: C_12  and  C_13
REMARK    7  A    between atoms: C_16  and  C_17
REMARK                            x       y       z     vdW  Elec       q    Type
REMARK                         _______ _______ _______ _____ _____    ______ ____
ROOT
ATOM      1  C   UNL     1       5.441   4.068  17.542  0.00  0.00    +0.000 C 
ENDROOT
BRANCH   1   2
ATOM      2  C   UNL     1       5.367   4.796  16.197  0.00  0.00    +0.000 C 
ATOM      3  C   UNL     1       5.042   3.863  15.016  0.00  0.00    +0.000 C 
ATOM      4  C   UNL     1       5.997   4.243  13.937  0.00  0.00    +0.000 A 
ATOM      5  C   UNL     1       6.047   3.747  12.638  0.00  0.00    +0.000 A 
ATOM      6  C   UNL     1       5.070   2.731  12.128  0.00  0.00    +0.000 C 
ATOM      7  C   UNL     1       7.086   4.204  11.812  0.00  0.00    +0.000 A 
ATOM      8  C   UNL     1       8.036   5.129  12.279  0.00  0.00    +0.000 A 
ATOM      9  C   UNL     1       7.980   5.608  13.589  0.00  0.00    +0.000 A 
ATOM     10  C   UNL     1       6.959   5.140  14.394  0.00  0.00    +0.000 A 
ATOM     11  C   UNL     1       6.683   5.440  15.797  0.00  0.00    +0.000 C 
ATOM     12  O   UNL     1       7.378   6.164  16.489  0.00  0.00    +0.000 OA
ENDBRANCH   1   2
BRANCH   1  19
ATOM     13  C   UNL     1       3.595   3.748  19.357  0.00  0.00    +0.000 A 
ATOM     14  C   UNL     1       2.479   4.294  20.039  0.00  0.00    +0.000 A 
ATOM     15  C   UNL     1       1.517   3.522  20.905  0.00  0.00    +0.000 C 
ATOM     16  C   UNL     1       2.192   5.664  19.892  0.00  0.00    +0.000 A 
ATOM     17  C   UNL     1       2.978   6.486  19.096  0.00  0.00    +0.000 A 
ATOM     18  C   UNL     1       4.043   5.944  18.390  0.00  0.00    +0.000 A 
ATOM     19  C   UNL     1       4.363   4.574  18.489  0.00  0.00    +0.000 A 
BRANCH  13  20
ATOM     20  C   UNL     1       4.023   2.338  19.606  0.00  0.00    +0.000 C 
ATOM     21  O   UNL     1       4.905   2.030  20.390  0.00  0.00    +0.000 OA
BRANCH  20  23
ATOM     22  C   UNL     1       2.620   2.075  17.710  0.00  0.00    +0.000 C 
ATOM     23  O   UNL     1       3.319   1.490  18.818  0.00  0.00    +0.000 OA
ENDBRANCH  20  23
ENDBRANCH  13  20
ENDBRANCH   1  19
TORSDOF 4
ENDMDL
MODEL 3
REMARK VINA RESULT:      -7.7      0.466      1.074
REMARK  Name = 
REMARK  7 active torsions:
REMARK  status: ('A' for Active; 'I' for Inactive)
REMARK    1  A    between atoms: C_1  and  O_2
REMARK    2  A    between atoms: O_2  and  C_3
REMARK    3  A    between atoms: C_3  and  C_5
REMARK    4  A    between atoms: C_6  and  C_7
REMARK    5  A    between atoms: C_11  and  C_12
REMARK    6  A    between atoms: C_12  and  C_13
REMARK    7  A    between atoms: C_16  and  C_17
REMARK                            x       y       z     vdW  Elec       q    Type
REMARK                         _______ _______ _______ _____ _____    ______ ____
ROOT
ATOM      1  C   UNL     1       4.104   4.127  16.879  0.00  0.00    +0.000 C 
ENDROOT
BRANCH   1   2
ATOM      2  C   UNL     1       5.552   4.600  16.726  0.00  0.00    +0.000 C 
ATOM      3  C   UNL     1       6.349   4.558  18.043  0.00  0.00    +0.000 C 
ATOM      4  C   UNL     1       7.076   5.857  18.107  0.00  0.00    +0.000 A 
ATOM      5  C   UNL     1       7.999   6.263  19.066  0.00  0.00    +0.000 A 
ATOM      6  C   UNL     1       8.420   5.379  20.202  0.00  0.00    +0.000 C 
ATOM      7  C   UNL     1       8.505   7.569  18.962  0.00  0.00    +0.000 A 
ATOM      8  C   UNL     1       8.098   8.429  17.927  0.00  0.00    +0.000 A 
ATOM      9  C   UNL     1       7.162   8.010  16.980  0.00  0.00    +0.000 A 
ATOM     10  C   UNL     1       6.663   6.727  17.103  0.00  0.00    +0.000 A 
ATOM     11  C   UNL     1       5.661   6.049  16.285  0.00  0.00    +0.000 C 
ATOM     12  O   UNL     1       5.078   6.570  15.349  0.00  0.00    +0.000 OA
ENDBRANCH   1   2
BRANCH   1  19
ATOM     13  C   UNL     1       3.238   3.827  19.321  0.00  0.00    +0.000 A 
ATOM     14  C   UNL     1       2.489   4.360  20.400  0.00  0.00    +0.000 A 
ATOM     15  C   UNL     1       2.043   3.596  21.620  0.00  0.00    +0.000 C 
ATOM     16  C   UNL     1       2.078   5.705  20.348  0.00  0.00    +0.000 A 
ATOM     17  C   UNL     1       2.392   6.515  19.264  0.00  0.00    +0.000 A 
ATOM     18  C   UNL     1       3.085   5.982  18.186  0.00  0.00    +0.000 A 
ATOM     19  C   UNL     1       3.504   4.636  18.181  0.00  0.00    +0.000 A 
BRANCH  13  20
ATOM     20  C   UNL     1       3.823   2.454  19.406  0.00  0.00    +0.000 C 
ATOM     21  O   UNL     1       4.802   2.180  20.079  0.00  0.00    +0.000 OA
BRANCH  20  23
ATOM     22  C   UNL     1       1.704   1.732  18.620  0.00  0.00    +0.000 C 
ATOM     23  O   UNL     1       3.133   1.603  18.611  0.00  0.00    +0.000 OA
ENDBRANCH  20  23
ENDBRANCH  13  20
ENDBRANCH   1  19
TORSDOF 4
ENDMDL
MODEL 4
REMARK VINA RESULT:      -7.6      2.884      5.547
REMARK  Name = 
REMARK  7 active torsions:
REMARK  status: ('A' for Active; 'I' for Inactive)
REMARK    1  A    between atoms: C_1  and  O_2
REMARK    2  A    between atoms: O_2  and  C_3
REMARK    3  A    between atoms: C_3  and  C_5
REMARK    4  A    between atoms: C_6  and  C_7
REMARK    5  A    between atoms: C_11  and  C_12
REMARK    6  A    between atoms: C_12  and  C_13
REMARK    7  A    between atoms: C_16  and  C_17
REMARK                            x       y       z     vdW  Elec       q    Type
REMARK                         _______ _______ _______ _____ _____    ______ ____
ROOT
ATOM      1  C   UNL     1       2.066   6.031  18.568  0.00  0.00    +0.000 C 
ENDROOT
BRANCH   1   2
ATOM      2  C   UNL     1       2.361   7.366  19.257  0.00  0.00    +0.000 C 
ATOM      3  C   UNL     1       1.514   7.598  20.522  0.00  0.00    +0.000 C 
ATOM      4  C   UNL     1       1.024   9.002  20.418  0.00  0.00    +0.000 A 
ATOM      5  C   UNL     1       0.288   9.713  21.361  0.00  0.00    +0.000 A 
ATOM      6  C   UNL     1      -0.099   9.128  22.686  0.00  0.00    +0.000 C 
ATOM      7  C   UNL     1      -0.127  11.008  21.013  0.00  0.00    +0.000 A 
ATOM      8  C   UNL     1       0.193  11.565  19.762  0.00  0.00    +0.000 A 
ATOM      9  C   UNL     1       0.921  10.834  18.822  0.00  0.00    +0.000 A 
ATOM     10  C   UNL     1       1.312   9.556  19.174  0.00  0.00    +0.000 A 
ATOM     11  C   UNL     1       2.044   8.568  18.385  0.00  0.00    +0.000 C 
ATOM     12  O   UNL     1       2.399   8.744  17.232  0.00  0.00    +0.000 OA
ENDBRANCH   1   2
BRANCH   1  19
ATOM     13  C   UNL     1       3.496   4.090  19.566  0.00  0.00    +0.000 A 
ATOM     14  C   UNL     1       3.531   2.906  20.342  0.00  0.00    +0.000 A 
ATOM     15  C   UNL     1       4.679   1.932  20.406  0.00  0.00    +0.000 C 
ATOM     16  C   UNL     1       2.401   2.556  21.107  0.00  0.00    +0.000 A 
ATOM     17  C   UNL     1       1.260   3.348  21.114  0.00  0.00    +0.000 A 
ATOM     18  C   UNL     1       1.207   4.484  20.318  0.00  0.00    +0.000 A 
ATOM     19  C   UNL     1       2.305   4.868  19.520  0.00  0.00    +0.000 A 
BRANCH  13  20
ATOM     20  C   UNL     1       4.723   4.576  18.864  0.00  0.00    +0.000 C 
ATOM     21  O   UNL     1       5.513   5.364  19.355  0.00  0.00    +0.000 OA
BRANCH  20  23
ATOM     22  C   UNL     1       5.047   4.955  16.544  0.00  0.00    +0.000 C 
ATOM     23  O   UNL     1       4.791   4.042  17.621  0.00  0.00    +0.000 OA
ENDBRANCH  20  23
ENDBRANCH  13  20
ENDBRANCH   1  19
TORSDOF 4
ENDMDL
MODEL 5
REMARK VINA RESULT:      -7.5      3.202      5.708
REMARK  Name = 
REMARK  7 active torsions:
REMARK  status: ('A' for Active; 'I' for Inactive)
REMARK    1  A    between atoms: C_1  and  O_2
REMARK    2  A    between atoms: O_2  and  C_3
REMARK    3  A    between atoms: C_3  and  C_5
REMARK    4  A    between atoms: C_6  and  C_7
REMARK    5  A    between atoms: C_11  and  C_12
REMARK    6  A    between atoms: C_12  and  C_13
REMARK    7  A    between atoms: C_16  and  C_17
REMARK                            x       y       z     vdW  Elec       q    Type
REMARK                         _______ _______ _______ _____ _____    ______ ____
ROOT
ATOM      1  C   UNL     1       1.955   6.781  18.209  0.00  0.00    +0.000 C 
ENDROOT
BRANCH   1   2
ATOM      2  C   UNL     1       2.206   8.024  19.066  0.00  0.00    +0.000 C 
ATOM      3  C   UNL     1       1.420   8.020  20.390  0.00  0.00    +0.000 C 
ATOM      4  C   UNL     1       0.840   9.388  20.510  0.00  0.00    +0.000 A 
ATOM      5  C   UNL     1       0.117   9.909  21.579  0.00  0.00    +0.000 A 
ATOM      6  C   UNL     1      -0.158   9.121  22.824  0.00  0.00    +0.000 C 
ATOM      7  C   UNL     1      -0.396  11.209  21.438  0.00  0.00    +0.000 A 
ATOM      8  C   UNL     1      -0.182  11.955  20.266  0.00  0.00    +0.000 A 
ATOM      9  C   UNL     1       0.535  11.412  19.198  0.00  0.00    +0.000 A 
ATOM     10  C   UNL     1       1.023  10.127  19.346  0.00  0.00    +0.000 A 
ATOM     11  C   UNL     1       1.767   9.311  18.391  0.00  0.00    +0.000 C 
ATOM     12  O   UNL     1       2.046   9.669  17.258  0.00  0.00    +0.000 OA
ENDBRANCH   1   2
BRANCH   1  19
ATOM     13  C   UNL     1       3.069   4.498  18.802  0.00  0.00    +0.000 A 
ATOM     14  C   UNL     1       4.266   3.771  19.022  0.00  0.00    +0.000 A 
ATOM     15  C   UNL     1       4.359   2.405  19.652  0.00  0.00    +0.000 C 
ATOM     16  C   UNL     1       5.496   4.356  18.666  0.00  0.00    +0.000 A 
ATOM     17  C   UNL     1       5.558   5.625  18.106  0.00  0.00    +0.000 A 
ATOM     18  C   UNL     1       4.391   6.357  17.933  0.00  0.00    +0.000 A 
ATOM     19  C   UNL     1       3.135   5.824  18.289  0.00  0.00    +0.000 A 
BRANCH  13  20
ATOM     20  C   UNL     1       1.738   3.855  19.021  0.00  0.00    +0.000 C 
ATOM     21  O   UNL     1       1.127   3.257  18.152  0.00  0.00    +0.000 OA
BRANCH  20  23
ATOM     22  C   UNL     1       1.208   2.917  21.136  0.00  0.00    +0.000 C 
ATOM     23  O   UNL     1       1.319   4.072  20.291  0.00  0.00    +0.000 OA
ENDBRANCH  20  23
ENDBRANCH  13  20
ENDBRANCH   1  19
TORSDOF 4
ENDMDL
MODEL 6
REMARK VINA RESULT:      -7.5      2.447      3.714
REMARK  Name = 
REMARK  7 active torsions:
REMARK  status: ('A' for Active; 'I' for Inactive)
REMARK    1  A    between atoms: C_1  and  O_2
REMARK    2  A    between atoms: O_2  and  C_3
REMARK    3  A    between atoms: C_3  and  C_5
REMARK    4  A    between atoms: C_6  and  C_7
REMARK    5  A    between atoms: C_11  and  C_12
REMARK    6  A    between atoms: C_12  and  C_13
REMARK    7  A    between atoms: C_16  and  C_17
REMARK                            x       y       z     vdW  Elec       q    Type
REMARK                         _______ _______ _______ _____ _____    ______ ____
ROOT
ATOM      1  C   UNL     1       5.489   4.097  17.551  0.00  0.00    +0.000 C 
ENDROOT
BRANCH   1   2
ATOM      2  C   UNL     1       5.410   4.817  16.203  0.00  0.00    +0.000 C 
ATOM      3  C   UNL     1       5.079   3.878  15.029  0.00  0.00    +0.000 C 
ATOM      4  C   UNL     1       6.029   4.251  13.943  0.00  0.00    +0.000 A 
ATOM      5  C   UNL     1       6.072   3.747  12.647  0.00  0.00    +0.000 A 
ATOM      6  C   UNL     1       5.092   2.729  12.147  0.00  0.00    +0.000 C 
ATOM      7  C   UNL     1       7.108   4.199  11.813  0.00  0.00    +0.000 A 
ATOM      8  C   UNL     1       8.061   5.126  12.270  0.00  0.00    +0.000 A 
ATOM      9  C   UNL     1       8.011   5.612  13.578  0.00  0.00    +0.000 A 
ATOM     10  C   UNL     1       6.993   5.150  14.391  0.00  0.00    +0.000 A 
ATOM     11  C   UNL     1       6.724   5.459  15.792  0.00  0.00    +0.000 C 
ATOM     12  O   UNL     1       7.423   6.186  16.477  0.00  0.00    +0.000 OA
ENDBRANCH   1   2
BRANCH   1  19
ATOM     13  C   UNL     1       3.585   3.694  19.288  0.00  0.00    +0.000 A 
ATOM     14  C   UNL     1       2.439   4.203  19.948  0.00  0.00    +0.000 A 
ATOM     15  C   UNL     1       1.458   3.391  20.754  0.00  0.00    +0.000 C 
ATOM     16  C   UNL     1       2.137   5.573  19.835  0.00  0.00    +0.000 A 
ATOM     17  C   UNL     1       2.939   6.431  19.094  0.00  0.00    +0.000 A 
ATOM     18  C   UNL     1       4.036   5.926  18.409  0.00  0.00    +0.000 A 
ATOM     19  C   UNL     1       4.371   4.558  18.475  0.00  0.00    +0.000 A 
BRANCH  13  20
ATOM     20  C   UNL     1       4.025   2.282  19.508  0.00  0.00    +0.000 C 
ATOM     21  O   UNL     1       3.662   1.348  18.813  0.00  0.00    +0.000 OA
BRANCH  20  23
ATOM     22  C   UNL     1       5.318   0.905  20.944  0.00  0.00    +0.000 C 
ATOM     23  O   UNL     1       4.835   2.209  20.591  0.00  0.00    +0.000 OA
ENDBRANCH  20  23
ENDBRANCH  13  20
ENDBRANCH   1  19
TORSDOF 4
ENDMDL
MODEL 7
REMARK VINA RESULT:      -7.4      1.236      6.055
REMARK  Name = 
REMARK  7 active torsions:
REMARK  status: ('A' for Active; 'I' for Inactive)
REMARK    1  A    between atoms: C_1  and  O_2
REMARK    2  A    between atoms: O_2  and  C_3
REMARK    3  A    between atoms: C_3  and  C_5
REMARK    4  A    between atoms: C_6  and  C_7
REMARK    5  A    between atoms: C_11  and  C_12
REMARK    6  A    between atoms: C_12  and  C_13
REMARK    7  A    between atoms: C_16  and  C_17
REMARK                            x       y       z     vdW  Elec       q    Type
REMARK                         _______ _______ _______ _____ _____    ______ ____
ROOT
ATOM      1  C   UNL     1       5.434   3.526  16.861  0.00  0.00    +0.000 C 
ENDROOT
BRANCH   1   2
ATOM      2  C   UNL     1       3.931   3.563  17.154  0.00  0.00    +0.000 C 
ATOM      3  C   UNL     1       3.489   4.830  17.909  0.00  0.00    +0.000 C 
ATOM      4  C   UNL     1       2.584   4.350  18.992  0.00  0.00    +0.000 A 
ATOM      5  C   UNL     1       1.859   5.124  19.893  0.00  0.00    +0.000 A 
ATOM      6  C   UNL     1       1.878   6.622  19.863  0.00  0.00    +0.000 C 
ATOM      7  C   UNL     1       1.124   4.446  20.879  0.00  0.00    +0.000 A 
ATOM      8  C   UNL     1       1.119   3.042  20.950  0.00  0.00    +0.000 A 
ATOM      9  C   UNL     1       1.863   2.281  20.046  0.00  0.00    +0.000 A 
ATOM     10  C   UNL     1       2.591   2.962  19.089  0.00  0.00    +0.000 A 
ATOM     11  C   UNL     1       3.472   2.429  18.053  0.00  0.00    +0.000 C 
ATOM     12  O   UNL     1       3.718   1.243  17.910  0.00  0.00    +0.000 OA
ENDBRANCH   1   2
BRANCH   1  19
ATOM     13  C   UNL     1       6.614   5.851  16.938  0.00  0.00    +0.000 A 
ATOM     14  C   UNL     1       7.449   6.747  17.652  0.00  0.00    +0.000 A 
ATOM     15  C   UNL     1       8.097   7.983  17.083  0.00  0.00    +0.000 C 
ATOM     16  C   UNL     1       7.750   6.474  19.000  0.00  0.00    +0.000 A 
ATOM     17  C   UNL     1       7.245   5.350  19.640  0.00  0.00    +0.000 A 
ATOM     18  C   UNL     1       6.466   4.447  18.930  0.00  0.00    +0.000 A 
ATOM     19  C   UNL     1       6.150   4.665  17.573  0.00  0.00    +0.000 A 
BRANCH  13  20
ATOM     20  C   UNL     1       6.147   6.182  15.558  0.00  0.00    +0.000 C 
ATOM     21  O   UNL     1       5.120   6.795  15.323  0.00  0.00    +0.000 OA
BRANCH  20  23
ATOM     22  C   UNL     1       6.535   4.560  13.870  0.00  0.00    +0.000 C 
ATOM     23  O   UNL     1       7.006   5.674  14.641  0.00  0.00    +0.000 OA
ENDBRANCH  20  23
ENDBRANCH  13  20
ENDBRANCH   1  19
TORSDOF 4
ENDMDL
MODEL 8
REMARK VINA RESULT:      -7.3      2.778      4.498
REMARK  Name = 
REMARK  7 active torsions:
REMARK  status: ('A' for Active; 'I' for Inactive)
REMARK    1  A    between atoms: C_1  and  O_2
REMARK    2  A    between atoms: O_2  and  C_3
REMARK    3  A    between atoms: C_3  and  C_5
REMARK    4  A    between atoms: C_6  and  C_7
REMARK    5  A    between atoms: C_11  and  C_12
REMARK    6  A    between atoms: C_12  and  C_13
REMARK    7  A    between atoms: C_16  and  C_17
REMARK                            x       y       z     vdW  Elec       q    Type
REMARK                         _______ _______ _______ _____ _____    ______ ____
ROOT
ATOM      1  C   UNL     1       4.930   3.420  17.354  0.00  0.00    +0.000 C 
ENDROOT
BRANCH   1   2
ATOM      2  C   UNL     1       4.944   4.272  16.081  0.00  0.00    +0.000 C 
ATOM      3  C   UNL     1       4.852   3.438  14.790  0.00  0.00    +0.000 C 
ATOM      4  C   UNL     1       5.886   4.006  13.878  0.00  0.00    +0.000 A 
ATOM      5  C   UNL     1       6.135   3.649  12.557  0.00  0.00    +0.000 A 
ATOM      6  C   UNL     1       5.328   2.610  11.838  0.00  0.00    +0.000 C 
ATOM      7  C   UNL     1       7.215   4.274  11.913  0.00  0.00    +0.000 A 
ATOM      8  C   UNL     1       8.009   5.226  12.577  0.00  0.00    +0.000 A 
ATOM      9  C   UNL     1       7.753   5.563  13.907  0.00  0.00    +0.000 A 
ATOM     10  C   UNL     1       6.695   4.930  14.532  0.00  0.00    +0.000 A 
ATOM     11  C   UNL     1       6.229   5.063  15.909  0.00  0.00    +0.000 C 
ATOM     12  O   UNL     1       6.764   5.770  16.746  0.00  0.00    +0.000 OA
ENDBRANCH   1   2
BRANCH   1  19
ATOM     13  C   UNL     1       3.127   4.412  18.957  0.00  0.00    +0.000 A 
ATOM     14  C   UNL     1       1.906   4.221  19.651  0.00  0.00    +0.000 A 
ATOM     15  C   UNL     1       1.378   5.100  20.755  0.00  0.00    +0.000 C 
ATOM     16  C   UNL     1       1.108   3.105  19.335  0.00  0.00    +0.000 A 
ATOM     17  C   UNL     1       1.493   2.195  18.359  0.00  0.00    +0.000 A 
ATOM     18  C   UNL     1       2.710   2.355  17.711  0.00  0.00    +0.000 A 
ATOM     19  C   UNL     1       3.554   3.446  18.004  0.00  0.00    +0.000 A 
BRANCH  13  20
ATOM     20  C   UNL     1       3.925   5.660  19.153  0.00  0.00    +0.000 C 
ATOM     21  O   UNL     1       5.020   5.683  19.691  0.00  0.00    +0.000 OA
BRANCH  20  23
ATOM     22  C   UNL     1       3.811   7.417  17.561  0.00  0.00    +0.000 C 
ATOM     23  O   UNL     1       3.240   6.731  18.685  0.00  0.00    +0.000 OA
ENDBRANCH  20  23
ENDBRANCH  13  20
ENDBRANCH   1  19
TORSDOF 4
ENDMDL
MODEL 9
REMARK VINA RESULT:      -7.2      3.293      6.499
REMARK  Name = 
REMARK  7 active torsions:
REMARK  status: ('A' for Active; 'I' for Inactive)
REMARK    1  A    between atoms: C_1  and  O_2
REMARK    2  A    between atoms: O_2  and  C_3
REMARK    3  A    between atoms: C_3  and  C_5
REMARK    4  A    between atoms: C_6  and  C_7
REMARK    5  A    between atoms: C_11  and  C_12
REMARK    6  A    between atoms: C_12  and  C_13
REMARK    7  A    between atoms: C_16  and  C_17
REMARK                            x       y       z     vdW  Elec       q    Type
REMARK                         _______ _______ _______ _____ _____    ______ ____
ROOT
ATOM      1  C   UNL     1       3.178   7.661  18.253  0.00  0.00    +0.000 C 
ENDROOT
BRANCH   1   2
ATOM      2  C   UNL     1       1.757   7.971  18.730  0.00  0.00    +0.000 C 
ATOM      3  C   UNL     1       1.296   9.399  18.384  0.00  0.00    +0.000 C 
ATOM      4  C   UNL     1       0.661   9.921  19.627  0.00  0.00    +0.000 A 
ATOM      5  C   UNL     1       0.011  11.140  19.797  0.00  0.00    +0.000 A 
ATOM      6  C   UNL     1      -0.164  12.121  18.677  0.00  0.00    +0.000 C 
ATOM      7  C   UNL     1      -0.451  11.451  21.087  0.00  0.00    +0.000 A 
ATOM      8  C   UNL     1      -0.268  10.563  22.161  0.00  0.00    +0.000 A 
ATOM      9  C   UNL     1       0.398   9.349  21.976  0.00  0.00    +0.000 A 
ATOM     10  C   UNL     1       0.858   9.063  20.705  0.00  0.00    +0.000 A 
ATOM     11  C   UNL     1       1.606   7.898  20.239  0.00  0.00    +0.000 C 
ATOM     12  O   UNL     1       1.970   6.987  20.962  0.00  0.00    +0.000 OA
ENDBRANCH   1   2
BRANCH   1  19
ATOM     13  C   UNL     1       4.468   5.613  17.281  0.00  0.00    +0.000 A 
ATOM     14  C   UNL     1       4.409   4.290  16.778  0.00  0.00    +0.000 A 
ATOM     15  C   UNL     1       5.514   3.583  16.037  0.00  0.00    +0.000 C 
ATOM     16  C   UNL     1       3.219   3.552  16.932  0.00  0.00    +0.000 A 
ATOM     17  C   UNL     1       2.110   4.096  17.567  0.00  0.00    +0.000 A 
ATOM     18  C   UNL     1       2.151   5.408  18.018  0.00  0.00    +0.000 A 
ATOM     19  C   UNL     1       3.312   6.194  17.872  0.00  0.00    +0.000 A 
BRANCH  13  20
ATOM     20  C   UNL     1       5.756   6.372  17.274  0.00  0.00    +0.000 C 
ATOM     21  O   UNL     1       6.147   7.027  16.323  0.00  0.00    +0.000 OA
BRANCH  20  23
ATOM     22  C   UNL     1       7.635   5.440  18.385  0.00  0.00    +0.000 C 
ATOM     23  O   UNL     1       6.412   6.188  18.445  0.00  0.00    +0.000 OA
ENDBRANCH  20  23
ENDBRANCH  13  20
ENDBRANCH   1  19
TORSDOF 4
ENDMDL
