MODEL 1
REMARK VINA RESULT:      -8.6      0.000      0.000
REMARK  Name = 
REMARK  9 active torsions:
REMARK  status: ('A' for Active; 'I' for Inactive)
REMARK    1  A    between atoms: C_2  and  C_3
REMARK    2  A    between atoms: C_4  and  C_5
REMARK    3  A    between atoms: C_8  and  C_9
REMARK    4  A    between atoms: C_9  and  N_10
REMARK    5  A    between atoms: N_10  and  C_11
REMARK    6  A    between atoms: C_11  and  C_12
REMARK    7  A    between atoms: C_12  and  C_13
REMARK    8  A    between atoms: C_14  and  C_15
REMARK    9  A    between atoms: N_30  and  O_31
REMARK                            x       y       z     vdW  Elec       q    Type
REMARK                         _______ _______ _______ _____ _____    ______ ____
ROOT
ATOM      1  C   UNL     1       2.588   8.531  17.727  0.00  0.00    +0.000 C 
ENDROOT
BRANCH   1   2
ATOM      2  N   UNL     1       1.501   9.476  17.532  0.00  0.00    +0.000 NA
ATOM      3  H   UNL     1       1.336   9.611  16.542  0.00  0.00    +0.000 HD
BRANCH   2   4
ATOM      4  C   UNL     1       1.730  10.765  18.204  0.00  0.00    +0.000 C 
BRANCH   4   8
ATOM      5  C   UNL     1      -0.790  11.737  21.636  0.00  0.00    +0.000 A 
ATOM      6  C   UNL     1       0.031  10.598  21.639  0.00  0.00    +0.000 A 
ATOM      7  C   UNL     1       0.838  10.279  20.532  0.00  0.00    +0.000 A 
ATOM      8  C   UNL     1       0.824  11.070  19.381  0.00  0.00    +0.000 A 
ATOM      9  C   UNL     1      -0.001  12.207  19.374  0.00  0.00    +0.000 A 
ATOM     10  C   UNL     1      -0.801  12.527  20.483  0.00  0.00    +0.000 A 
BRANCH   5  12
ATOM     11  C   UNL     1      -2.677  12.853  22.828  0.00  0.00    +0.000 C 
ATOM     12  C   UNL     1      -1.621  12.022  22.820  0.00  0.00    +0.000 C 
BRANCH  11  14
ATOM     13  O   UNL     1      -3.355  14.113  24.752  0.00  0.00    +0.000 OA
ATOM     14  C   UNL     1      -3.449  13.090  24.074  0.00  0.00    +0.000 C 
ATOM     15  N   UNL     1      -4.282  12.056  24.396  0.00  0.00    +0.000 N 
ATOM     16  H   UNL     1      -4.385  11.201  23.857  0.00  0.00    +0.000 HD
BRANCH  15  17
ATOM     17  O   UNL     1      -5.066  12.181  25.561  0.00  0.00    +0.000 OA
ATOM     18  H   UNL     1      -5.918  11.792  25.277  0.00  0.00    +0.000 HD
ENDBRANCH  15  17
ENDBRANCH  11  14
ENDBRANCH   5  12
ENDBRANCH   4   8
ENDBRANCH   2   4
ENDBRANCH   1   2
BRANCH   1  19
ATOM     19  C   UNL     1       2.414   7.588  18.915  0.00  0.00    +0.000 C 
BRANCH  19  20
ATOM     20  C   UNL     1       2.074   6.106  18.910  0.00  0.00    +0.000 A 
ATOM     21  C   UNL     1       2.607   5.394  17.797  0.00  0.00    +0.000 A 
ATOM     22  N   UNL     1       1.565   4.478  17.654  0.00  0.00    +0.000 N 
ATOM     23  C   UNL     1       1.433   3.928  18.919  0.00  0.00    +0.000 A 
ATOM     24  C   UNL     1       1.074   2.631  19.277  0.00  0.00    +0.000 A 
ATOM     25  C   UNL     1       1.579   2.189  20.494  0.00  0.00    +0.000 A 
ATOM     26  C   UNL     1       2.296   3.068  21.320  0.00  0.00    +0.000 A 
ATOM     27  C   UNL     1       2.430   4.450  21.018  0.00  0.00    +0.000 A 
ATOM     28  C   UNL     1       1.970   4.922  19.765  0.00  0.00    +0.000 A 
ATOM     29  H   UNL     1       0.747   4.658  17.093  0.00  0.00    +0.000 HD
BRANCH  21  30
ATOM     30  C   UNL     1       4.076   5.039  17.794  0.00  0.00    +0.000 A 
ATOM     31  C   UNL     1       5.046   5.686  18.544  0.00  0.00    +0.000 A 
ATOM     32  C   UNL     1       6.393   5.448  18.236  0.00  0.00    +0.000 A 
ATOM     33  C   UNL     1       6.732   4.618  17.173  0.00  0.00    +0.000 A 
ATOM     34  C   UNL     1       5.706   4.029  16.467  0.00  0.00    +0.000 A 
ATOM     35  N   UNL     1       4.407   4.199  16.780  0.00  0.00    +0.000 NA
ENDBRANCH  21  30
ENDBRANCH  19  20
ENDBRANCH   1  19
TORSDOF 9
ENDMDL
MODEL 2
REMARK VINA RESULT:      -8.5      1.527      3.545
REMARK  Name = 
REMARK  9 active torsions:
REMARK  status: ('A' for Active; 'I' for Inactive)
REMARK    1  A    between atoms: C_2  and  C_3
REMARK    2  A    between atoms: C_4  and  C_5
REMARK    3  A    between atoms: C_8  and  C_9
REMARK    4  A    between atoms: C_9  and  N_10
REMARK    5  A    between atoms: N_10  and  C_11
REMARK    6  A    between atoms: C_11  and  C_12
REMARK    7  A    between atoms: C_12  and  C_13
REMARK    8  A    between atoms: C_14  and  C_15
REMARK    9  A    between atoms: N_30  and  O_31
REMARK                            x       y       z     vdW  Elec       q    Type
REMARK                         _______ _______ _______ _____ _____    ______ ____
ROOT
ATOM      1  C   UNL     1       2.389   8.691  17.664  0.00  0.00    +0.000 C 
ENDROOT
BRANCH   1   2
ATOM      2  N   UNL     1       1.586   9.596  18.471  0.00  0.00    +0.000 NA
ATOM      3  H   UNL     1       2.055  10.490  18.554  0.00  0.00    +0.000 HD
BRANCH   2   4
ATOM      4  C   UNL     1       1.262   9.051  19.798  0.00  0.00    +0.000 C 
BRANCH   4   8
ATOM      5  C   UNL     1      -1.320  11.555  22.275  0.00  0.00    +0.000 A 
ATOM      6  C   UNL     1      -0.748  10.378  22.783  0.00  0.00    +0.000 A 
ATOM      7  C   UNL     1       0.078   9.566  21.986  0.00  0.00    +0.000 A 
ATOM      8  C   UNL     1       0.330   9.890  20.651  0.00  0.00    +0.000 A 
ATOM      9  C   UNL     1      -0.246  11.064  20.138  0.00  0.00    +0.000 A 
ATOM     10  C   UNL     1      -1.065  11.877  20.939  0.00  0.00    +0.000 A 
BRANCH   5  12
ATOM     11  C   UNL     1      -3.520  12.451  23.038  0.00  0.00    +0.000 C 
ATOM     12  C   UNL     1      -2.184  12.366  23.152  0.00  0.00    +0.000 C 
BRANCH  11  14
ATOM     13  O   UNL     1      -3.811  13.984  24.859  0.00  0.00    +0.000 OA
ATOM     14  C   UNL     1      -4.309  13.307  23.960  0.00  0.00    +0.000 C 
ATOM     15  N   UNL     1      -5.651  13.273  23.710  0.00  0.00    +0.000 N 
ATOM     16  H   UNL     1      -6.094  12.729  22.975  0.00  0.00    +0.000 HD
BRANCH  15  17
ATOM     17  O   UNL     1      -6.493  14.055  24.527  0.00  0.00    +0.000 OA
ATOM     18  H   UNL     1      -7.035  13.373  24.975  0.00  0.00    +0.000 HD
ENDBRANCH  15  17
ENDBRANCH  11  14
ENDBRANCH   5  12
ENDBRANCH   4   8
ENDBRANCH   2   4
ENDBRANCH   1   2
BRANCH   1  19
ATOM     19  C   UNL     1       2.741   7.369  18.341  0.00  0.00    +0.000 C 
BRANCH  19  20
ATOM     20  C   UNL     1       4.008   6.539  18.202  0.00  0.00    +0.000 A 
ATOM     21  C   UNL     1       4.044   5.390  19.044  0.00  0.00    +0.000 A 
ATOM     22  N   UNL     1       5.418   5.384  19.282  0.00  0.00    +0.000 N 
ATOM     23  C   UNL     1       5.972   5.417  18.013  0.00  0.00    +0.000 A 
ATOM     24  C   UNL     1       7.149   4.827  17.557  0.00  0.00    +0.000 A 
ATOM     25  C   UNL     1       7.167   4.507  16.204  0.00  0.00    +0.000 A 
ATOM     26  C   UNL     1       6.097   4.881  15.378  0.00  0.00    +0.000 A 
ATOM     27  C   UNL     1       5.028   5.692  15.844  0.00  0.00    +0.000 A 
ATOM     28  C   UNL     1       4.954   5.995  17.225  0.00  0.00    +0.000 A 
ATOM     29  H   UNL     1       5.848   5.898  20.035  0.00  0.00    +0.000 HD
BRANCH  21  30
ATOM     30  C   UNL     1       3.228   4.178  18.658  0.00  0.00    +0.000 A 
ATOM     31  C   UNL     1       1.858   4.184  18.441  0.00  0.00    +0.000 A 
ATOM     32  C   UNL     1       1.191   2.953  18.370  0.00  0.00    +0.000 A 
ATOM     33  C   UNL     1       1.891   1.766  18.560  0.00  0.00    +0.000 A 
ATOM     34  C   UNL     1       3.247   1.850  18.790  0.00  0.00    +0.000 A 
ATOM     35  N   UNL     1       3.917   3.017  18.807  0.00  0.00    +0.000 NA
ENDBRANCH  21  30
ENDBRANCH  19  20
ENDBRANCH   1  19
TORSDOF 9
ENDMDL
MODEL 3
REMARK VINA RESULT:      -8.3      0.778      1.115
REMARK  Name = 
REMARK  9 active torsions:
REMARK  status: ('A' for Active; 'I' for Inactive)
REMARK    1  A    between atoms: C_2  and  C_3
REMARK    2  A    between atoms: C_4  and  C_5
REMARK    3  A    between atoms: C_8  and  C_9
REMARK    4  A    between atoms: C_9  and  N_10
REMARK    5  A    between atoms: N_10  and  C_11
REMARK    6  A    between atoms: C_11  and  C_12
REMARK    7  A    between atoms: C_12  and  C_13
REMARK    8  A    between atoms: C_14  and  C_15
REMARK    9  A    between atoms: N_30  and  O_31
REMARK                            x       y       z     vdW  Elec       q    Type
REMARK                         _______ _______ _______ _____ _____    ______ ____
ROOT
ATOM      1  C   UNL     1       2.358   8.619  17.591  0.00  0.00    +0.000 C 
ENDROOT
BRANCH   1   2
ATOM      2  N   UNL     1       1.343   9.650  17.730  0.00  0.00    +0.000 NA
ATOM      3  H   UNL     1       1.187  10.103  16.838  0.00  0.00    +0.000 HD
BRANCH   2   4
ATOM      4  C   UNL     1       1.667  10.641  18.769  0.00  0.00    +0.000 C 
BRANCH   4   8
ATOM      5  C   UNL     1      -1.767  12.164  20.996  0.00  0.00    +0.000 A 
ATOM      6  C   UNL     1      -1.788  12.088  19.594  0.00  0.00    +0.000 A 
ATOM      7  C   UNL     1      -0.681  11.604  18.874  0.00  0.00    +0.000 A 
ATOM      8  C   UNL     1       0.488  11.213  19.531  0.00  0.00    +0.000 A 
ATOM      9  C   UNL     1       0.514  11.295  20.933  0.00  0.00    +0.000 A 
ATOM     10  C   UNL     1      -0.596  11.771  21.650  0.00  0.00    +0.000 A 
BRANCH   5  12
ATOM     11  C   UNL     1      -3.030  12.867  23.030  0.00  0.00    +0.000 C 
ATOM     12  C   UNL     1      -2.953  12.684  21.701  0.00  0.00    +0.000 C 
BRANCH  11  14
ATOM     13  O   UNL     1      -4.487  14.578  23.865  0.00  0.00    +0.000 OA
ATOM     14  C   UNL     1      -4.274  13.384  23.656  0.00  0.00    +0.000 C 
ATOM     15  N   UNL     1      -5.165  12.400  23.975  0.00  0.00    +0.000 N 
ATOM     16  H   UNL     1      -5.021  11.407  23.813  0.00  0.00    +0.000 HD
BRANCH  15  17
ATOM     17  O   UNL     1      -6.383  12.784  24.572  0.00  0.00    +0.000 OA
ATOM     18  H   UNL     1      -7.021  12.644  23.842  0.00  0.00    +0.000 HD
ENDBRANCH  15  17
ENDBRANCH  11  14
ENDBRANCH   5  12
ENDBRANCH   4   8
ENDBRANCH   2   4
ENDBRANCH   1   2
BRANCH   1  19
ATOM     19  C   UNL     1       2.477   7.670  18.782  0.00  0.00    +0.000 C 
BRANCH  19  20
ATOM     20  C   UNL     1       2.132   6.191  18.856  0.00  0.00    +0.000 A 
ATOM     21  C   UNL     1       2.795   5.391  17.880  0.00  0.00    +0.000 A 
ATOM     22  N   UNL     1       1.774   4.462  17.685  0.00  0.00    +0.000 N 
ATOM     23  C   UNL     1       1.483   4.018  18.964  0.00  0.00    +0.000 A 
ATOM     24  C   UNL     1       1.074   2.753  19.380  0.00  0.00    +0.000 A 
ATOM     25  C   UNL     1       1.421   2.416  20.683  0.00  0.00    +0.000 A 
ATOM     26  C   UNL     1       2.034   3.362  21.516  0.00  0.00    +0.000 A 
ATOM     27  C   UNL     1       2.213   4.715  21.121  0.00  0.00    +0.000 A 
ATOM     28  C   UNL     1       1.916   5.081  19.786  0.00  0.00    +0.000 A 
ATOM     29  H   UNL     1       1.033   4.592  17.014  0.00  0.00    +0.000 HD
BRANCH  21  30
ATOM     30  C   UNL     1       4.251   5.045  18.089  0.00  0.00    +0.000 A 
ATOM     31  C   UNL     1       5.030   5.504  19.141  0.00  0.00    +0.000 A 
ATOM     32  C   UNL     1       6.419   5.340  19.061  0.00  0.00    +0.000 A 
ATOM     33  C   UNL     1       6.992   4.771  17.929  0.00  0.00    +0.000 A 
ATOM     34  C   UNL     1       6.149   4.358  16.921  0.00  0.00    +0.000 A 
ATOM     35  N   UNL     1       4.808   4.455  17.000  0.00  0.00    +0.000 NA
ENDBRANCH  21  30
ENDBRANCH  19  20
ENDBRANCH   1  19
TORSDOF 9
ENDMDL
MODEL 4
REMARK VINA RESULT:      -8.3      3.115      6.102
REMARK  Name = 
REMARK  9 active torsions:
REMARK  status: ('A' for Active; 'I' for Inactive)
REMARK    1  A    between atoms: C_2  and  C_3
REMARK    2  A    between atoms: C_4  and  C_5
REMARK    3  A    between atoms: C_8  and  C_9
REMARK    4  A    between atoms: C_9  and  N_10
REMARK    5  A    between atoms: N_10  and  C_11
REMARK    6  A    between atoms: C_11  and  C_12
REMARK    7  A    between atoms: C_12  and  C_13
REMARK    8  A    between atoms: C_14  and  C_15
REMARK    9  A    between atoms: N_30  and  O_31
REMARK                            x       y       z     vdW  Elec       q    Type
REMARK                         _______ _______ _______ _____ _____    ______ ____
ROOT
ATOM      1  C   UNL     1       4.108   2.462  18.743  0.00  0.00    +0.000 C 
ENDROOT
BRANCH   1   2
ATOM      2  N   UNL     1       2.839   1.809  18.464  0.00  0.00    +0.000 NA
ATOM      3  H   UNL     1       2.980   1.049  17.809  0.00  0.00    +0.000 HD
BRANCH   2   4
ATOM      4  C   UNL     1       1.809   2.738  17.972  0.00  0.00    +0.000 C 
BRANCH   4   8
ATOM      5  C   UNL     1       1.711   6.588  20.032  0.00  0.00    +0.000 A 
ATOM      6  C   UNL     1       1.378   5.399  20.701  0.00  0.00    +0.000 A 
ATOM      7  C   UNL     1       1.402   4.158  20.038  0.00  0.00    +0.000 A 
ATOM      8  C   UNL     1       1.728   4.075  18.683  0.00  0.00    +0.000 A 
ATOM      9  C   UNL     1       2.055   5.264  18.010  0.00  0.00    +0.000 A 
ATOM     10  C   UNL     1       2.037   6.500  18.676  0.00  0.00    +0.000 A 
BRANCH   5  12
ATOM     11  C   UNL     1       0.577   8.332  21.408  0.00  0.00    +0.000 C 
ATOM     12  C   UNL     1       1.663   7.861  20.773  0.00  0.00    +0.000 C 
BRANCH  11  14
ATOM     13  O   UNL     1       0.707   9.746  23.341  0.00  0.00    +0.000 OA
ATOM     14  C   UNL     1       0.617   9.637  22.119  0.00  0.00    +0.000 C 
ATOM     15  N   UNL     1       0.548  10.710  21.277  0.00  0.00    +0.000 N 
ATOM     16  H   UNL     1       0.477  10.654  20.265  0.00  0.00    +0.000 HD
BRANCH  15  17
ATOM     17  O   UNL     1       0.583  11.998  21.848  0.00  0.00    +0.000 OA
ATOM     18  H   UNL     1       1.533  12.226  21.782  0.00  0.00    +0.000 HD
ENDBRANCH  15  17
ENDBRANCH  11  14
ENDBRANCH   5  12
ENDBRANCH   4   8
ENDBRANCH   2   4
ENDBRANCH   1   2
BRANCH   1  19
ATOM     19  C   UNL     1       4.689   3.262  17.579  0.00  0.00    +0.000 C 
BRANCH  19  20
ATOM     20  C   UNL     1       5.752   4.349  17.611  0.00  0.00    +0.000 A 
ATOM     21  C   UNL     1       6.858   4.103  16.747  0.00  0.00    +0.000 A 
ATOM     22  N   UNL     1       7.840   4.695  17.541  0.00  0.00    +0.000 N 
ATOM     23  C   UNL     1       7.339   5.960  17.797  0.00  0.00    +0.000 A 
ATOM     24  C   UNL     1       8.030   7.160  17.952  0.00  0.00    +0.000 A 
ATOM     25  C   UNL     1       7.318   8.304  17.608  0.00  0.00    +0.000 A 
ATOM     26  C   UNL     1       5.966   8.211  17.249  0.00  0.00    +0.000 A 
ATOM     27  C   UNL     1       5.242   6.991  17.337  0.00  0.00    +0.000 A 
ATOM     28  C   UNL     1       5.946   5.800  17.637  0.00  0.00    +0.000 A 
ATOM     29  H   UNL     1       8.343   4.196  18.258  0.00  0.00    +0.000 HD
BRANCH  21  30
ATOM     30  C   UNL     1       6.690   4.334  15.264  0.00  0.00    +0.000 A 
ATOM     31  C   UNL     1       5.831   3.618  14.444  0.00  0.00    +0.000 A 
ATOM     32  C   UNL     1       5.980   3.739  13.056  0.00  0.00    +0.000 A 
ATOM     33  C   UNL     1       6.997   4.527  12.528  0.00  0.00    +0.000 A 
ATOM     34  C   UNL     1       7.819   5.192  13.412  0.00  0.00    +0.000 A 
ATOM     35  N   UNL     1       7.659   5.133  14.748  0.00  0.00    +0.000 NA
ENDBRANCH  21  30
ENDBRANCH  19  20
ENDBRANCH   1  19
TORSDOF 9
ENDMDL
MODEL 5
REMARK VINA RESULT:      -8.2      1.785      3.853
REMARK  Name = 
REMARK  9 active torsions:
REMARK  status: ('A' for Active; 'I' for Inactive)
REMARK    1  A    between atoms: C_2  and  C_3
REMARK    2  A    between atoms: C_4  and  C_5
REMARK    3  A    between atoms: C_8  and  C_9
REMARK    4  A    between atoms: C_9  and  N_10
REMARK    5  A    between atoms: N_10  and  C_11
REMARK    6  A    between atoms: C_11  and  C_12
REMARK    7  A    between atoms: C_12  and  C_13
REMARK    8  A    between atoms: C_14  and  C_15
REMARK    9  A    between atoms: N_30  and  O_31
REMARK                            x       y       z     vdW  Elec       q    Type
REMARK                         _______ _______ _______ _____ _____    ______ ____
ROOT
ATOM      1  C   UNL     1       2.161   7.344  19.588  0.00  0.00    +0.000 C 
ENDROOT
BRANCH   1   2
ATOM      2  N   UNL     1       1.535   8.622  19.886  0.00  0.00    +0.000 NA
ATOM      3  H   UNL     1       2.045   9.369  19.432  0.00  0.00    +0.000 HD
BRANCH   2   4
ATOM      4  C   UNL     1       1.408   8.878  21.330  0.00  0.00    +0.000 C 
BRANCH   4   8
ATOM      5  C   UNL     1      -1.396  11.997  22.546  0.00  0.00    +0.000 A 
ATOM      6  C   UNL     1      -1.346  10.765  23.218  0.00  0.00    +0.000 A 
ATOM      7  C   UNL     1      -0.449   9.756  22.824  0.00  0.00    +0.000 A 
ATOM      8  C   UNL     1       0.400   9.937  21.730  0.00  0.00    +0.000 A 
ATOM      9  C   UNL     1       0.348  11.167  21.052  0.00  0.00    +0.000 A 
ATOM     10  C   UNL     1      -0.544  12.175  21.452  0.00  0.00    +0.000 A 
BRANCH   5  12
ATOM     11  C   UNL     1      -3.471  12.756  23.704  0.00  0.00    +0.000 C 
ATOM     12  C   UNL     1      -2.360  13.018  22.996  0.00  0.00    +0.000 C 
BRANCH  11  14
ATOM     13  O   UNL     1      -5.607  13.829  23.896  0.00  0.00    +0.000 OA
ATOM     14  C   UNL     1      -4.395  13.850  24.102  0.00  0.00    +0.000 C 
ATOM     15  N   UNL     1      -3.763  14.887  24.727  0.00  0.00    +0.000 N 
ATOM     16  H   UNL     1      -2.765  14.933  24.916  0.00  0.00    +0.000 HD
BRANCH  15  17
ATOM     17  O   UNL     1      -4.549  15.977  25.151  0.00  0.00    +0.000 OA
ATOM     18  H   UNL     1      -5.357  15.870  24.610  0.00  0.00    +0.000 HD
ENDBRANCH  15  17
ENDBRANCH  11  14
ENDBRANCH   5  12
ENDBRANCH   4   8
ENDBRANCH   2   4
ENDBRANCH   1   2
BRANCH   1  19
ATOM     19  C   UNL     1       3.096   7.353  18.381  0.00  0.00    +0.000 C 
BRANCH  19  20
ATOM     20  C   UNL     1       4.318   6.486  18.119  0.00  0.00    +0.000 A 
ATOM     21  C   UNL     1       4.395   5.329  18.947  0.00  0.00    +0.000 A 
ATOM     22  N   UNL     1       5.785   5.278  19.055  0.00  0.00    +0.000 N 
ATOM     23  C   UNL     1       6.219   5.305  17.741  0.00  0.00    +0.000 A 
ATOM     24  C   UNL     1       7.329   4.684  17.172  0.00  0.00    +0.000 A 
ATOM     25  C   UNL     1       7.210   4.376  15.822  0.00  0.00    +0.000 A 
ATOM     26  C   UNL     1       6.080   4.789  15.102  0.00  0.00    +0.000 A 
ATOM     27  C   UNL     1       5.086   5.630  15.671  0.00  0.00    +0.000 A 
ATOM     28  C   UNL     1       5.150   5.922  17.055  0.00  0.00    +0.000 A 
ATOM     29  H   UNL     1       6.299   5.772  19.768  0.00  0.00    +0.000 HD
BRANCH  21  30
ATOM     30  C   UNL     1       3.509   4.147  18.632  0.00  0.00    +0.000 A 
ATOM     31  C   UNL     1       2.240   4.235  18.080  0.00  0.00    +0.000 A 
ATOM     32  C   UNL     1       1.424   3.095  18.104  0.00  0.00    +0.000 A 
ATOM     33  C   UNL     1       1.872   1.926  18.710  0.00  0.00    +0.000 A 
ATOM     34  C   UNL     1       3.139   1.929  19.251  0.00  0.00    +0.000 A 
ATOM     35  N   UNL     1       3.960   2.994  19.191  0.00  0.00    +0.000 NA
ENDBRANCH  21  30
ENDBRANCH  19  20
ENDBRANCH   1  19
TORSDOF 9
ENDMDL
MODEL 6
REMARK VINA RESULT:      -8.2      1.391      3.609
REMARK  Name = 
REMARK  9 active torsions:
REMARK  status: ('A' for Active; 'I' for Inactive)
REMARK    1  A    between atoms: C_2  and  C_3
REMARK    2  A    between atoms: C_4  and  C_5
REMARK    3  A    between atoms: C_8  and  C_9
REMARK    4  A    between atoms: C_9  and  N_10
REMARK    5  A    between atoms: N_10  and  C_11
REMARK    6  A    between atoms: C_11  and  C_12
REMARK    7  A    between atoms: C_12  and  C_13
REMARK    8  A    between atoms: C_14  and  C_15
REMARK    9  A    between atoms: N_30  and  O_31
REMARK                            x       y       z     vdW  Elec       q    Type
REMARK                         _______ _______ _______ _____ _____    ______ ____
ROOT
ATOM      1  C   UNL     1       2.349   8.001  17.852  0.00  0.00    +0.000 C 
ENDROOT
BRANCH   1   2
ATOM      2  N   UNL     1       2.357   9.438  18.070  0.00  0.00    +0.000 NA
ATOM      3  H   UNL     1       2.716   9.644  18.995  0.00  0.00    +0.000 HD
BRANCH   2   4
ATOM      4  C   UNL     1       1.036  10.058  17.873  0.00  0.00    +0.000 C 
BRANCH   4   8
ATOM      5  C   UNL     1      -1.092  11.279  21.485  0.00  0.00    +0.000 A 
ATOM      6  C   UNL     1      -1.351  11.893  20.250  0.00  0.00    +0.000 A 
ATOM      7  C   UNL     1      -0.662  11.506  19.085  0.00  0.00    +0.000 A 
ATOM      8  C   UNL     1       0.326  10.520  19.130  0.00  0.00    +0.000 A 
ATOM      9  C   UNL     1       0.590   9.909  20.367  0.00  0.00    +0.000 A 
ATOM     10  C   UNL     1      -0.104  10.292  21.526  0.00  0.00    +0.000 A 
BRANCH   5  12
ATOM     11  C   UNL     1      -2.743  12.721  22.678  0.00  0.00    +0.000 C 
ATOM     12  C   UNL     1      -1.838  11.728  22.675  0.00  0.00    +0.000 C 
BRANCH  11  14
ATOM     13  O   UNL     1      -3.396  14.248  24.407  0.00  0.00    +0.000 OA
ATOM     14  C   UNL     1      -3.437  13.115  23.931  0.00  0.00    +0.000 C 
ATOM     15  N   UNL     1      -4.133  12.089  24.505  0.00  0.00    +0.000 N 
ATOM     16  H   UNL     1      -4.190  11.144  24.137  0.00  0.00    +0.000 HD
BRANCH  15  17
ATOM     17  O   UNL     1      -4.833  12.357  25.699  0.00  0.00    +0.000 OA
ATOM     18  H   UNL     1      -4.780  11.497  26.165  0.00  0.00    +0.000 HD
ENDBRANCH  15  17
ENDBRANCH  11  14
ENDBRANCH   5  12
ENDBRANCH   4   8
ENDBRANCH   2   4
ENDBRANCH   1   2
BRANCH   1  19
ATOM     19  C   UNL     1       3.299   7.210  18.748  0.00  0.00    +0.000 C 
BRANCH  19  20
ATOM     20  C   UNL     1       4.467   6.323  18.346  0.00  0.00    +0.000 A 
ATOM     21  C   UNL     1       4.514   5.078  19.037  0.00  0.00    +0.000 A 
ATOM     22  N   UNL     1       5.902   4.953  19.087  0.00  0.00    +0.000 N 
ATOM     23  C   UNL     1       6.295   5.108  17.768  0.00  0.00    +0.000 A 
ATOM     24  C   UNL     1       7.353   4.504  17.093  0.00  0.00    +0.000 A 
ATOM     25  C   UNL     1       7.176   4.356  15.722  0.00  0.00    +0.000 A 
ATOM     26  C   UNL     1       6.045   4.898  15.095  0.00  0.00    +0.000 A 
ATOM     27  C   UNL     1       5.112   5.714  15.791  0.00  0.00    +0.000 A 
ATOM     28  C   UNL     1       5.236   5.845  17.195  0.00  0.00    +0.000 A 
ATOM     29  H   UNL     1       6.463   5.339  19.830  0.00  0.00    +0.000 HD
BRANCH  21  30
ATOM     30  C   UNL     1       3.561   3.980  18.627  0.00  0.00    +0.000 A 
ATOM     31  C   UNL     1       2.200   4.150  18.420  0.00  0.00    +0.000 A 
ATOM     32  C   UNL     1       1.395   3.008  18.324  0.00  0.00    +0.000 A 
ATOM     33  C   UNL     1       1.952   1.743  18.477  0.00  0.00    +0.000 A 
ATOM     34  C   UNL     1       3.309   1.663  18.698  0.00  0.00    +0.000 A 
ATOM     35  N   UNL     1       4.111   2.743  18.740  0.00  0.00    +0.000 NA
ENDBRANCH  21  30
ENDBRANCH  19  20
ENDBRANCH   1  19
TORSDOF 9
ENDMDL
MODEL 7
REMARK VINA RESULT:      -8.2      1.646      3.742
REMARK  Name = 
REMARK  9 active torsions:
REMARK  status: ('A' for Active; 'I' for Inactive)
REMARK    1  A    between atoms: C_2  and  C_3
REMARK    2  A    between atoms: C_4  and  C_5
REMARK    3  A    between atoms: C_8  and  C_9
REMARK    4  A    between atoms: C_9  and  N_10
REMARK    5  A    between atoms: N_10  and  C_11
REMARK    6  A    between atoms: C_11  and  C_12
REMARK    7  A    between atoms: C_12  and  C_13
REMARK    8  A    between atoms: C_14  and  C_15
REMARK    9  A    between atoms: N_30  and  O_31
REMARK                            x       y       z     vdW  Elec       q    Type
REMARK                         _______ _______ _______ _____ _____    ______ ____
ROOT
ATOM      1  C   UNL     1       2.163   8.159  17.547  0.00  0.00    +0.000 C 
ENDROOT
BRANCH   1   2
ATOM      2  N   UNL     1       1.843   9.532  17.899  0.00  0.00    +0.000 NA
ATOM      3  H   UNL     1       2.357   9.804  18.728  0.00  0.00    +0.000 HD
BRANCH   2   4
ATOM      4  C   UNL     1       0.401   9.759  18.081  0.00  0.00    +0.000 C 
BRANCH   4   8
ATOM      5  C   UNL     1      -0.865  11.874  21.686  0.00  0.00    +0.000 A 
ATOM      6  C   UNL     1      -0.994  12.463  20.418  0.00  0.00    +0.000 A 
ATOM      7  C   UNL     1      -0.580  11.786  19.255  0.00  0.00    +0.000 A 
ATOM      8  C   UNL     1       0.001  10.519  19.331  0.00  0.00    +0.000 A 
ATOM      9  C   UNL     1       0.136   9.931  20.599  0.00  0.00    +0.000 A 
ATOM     10  C   UNL     1      -0.283  10.605  21.757  0.00  0.00    +0.000 A 
BRANCH   5  12
ATOM     11  C   UNL     1      -1.005  13.916  23.113  0.00  0.00    +0.000 C 
ATOM     12  C   UNL     1      -1.308  12.630  22.872  0.00  0.00    +0.000 C 
BRANCH  11  14
ATOM     13  O   UNL     1      -0.759  15.250  25.090  0.00  0.00    +0.000 OA
ATOM     14  C   UNL     1      -1.484  14.593  24.345  0.00  0.00    +0.000 C 
ATOM     15  N   UNL     1      -2.820  14.415  24.571  0.00  0.00    +0.000 N 
ATOM     16  H   UNL     1      -3.446  13.882  23.975  0.00  0.00    +0.000 HD
BRANCH  15  17
ATOM     17  O   UNL     1      -3.380  15.021  25.714  0.00  0.00    +0.000 OA
ATOM     18  H   UNL     1      -4.124  14.419  25.921  0.00  0.00    +0.000 HD
ENDBRANCH  15  17
ENDBRANCH  11  14
ENDBRANCH   5  12
ENDBRANCH   4   8
ENDBRANCH   2   4
ENDBRANCH   1   2
BRANCH   1  19
ATOM     19  C   UNL     1       3.054   7.429  18.549  0.00  0.00    +0.000 C 
BRANCH  19  20
ATOM     20  C   UNL     1       4.266   6.550  18.280  0.00  0.00    +0.000 A 
ATOM     21  C   UNL     1       4.304   5.360  19.062  0.00  0.00    +0.000 A 
ATOM     22  N   UNL     1       5.689   5.279  19.199  0.00  0.00    +0.000 N 
ATOM     23  C   UNL     1       6.154   5.351  17.897  0.00  0.00    +0.000 A 
ATOM     24  C   UNL     1       7.266   4.732  17.328  0.00  0.00    +0.000 A 
ATOM     25  C   UNL     1       7.173   4.481  15.964  0.00  0.00    +0.000 A 
ATOM     26  C   UNL     1       6.068   4.944  15.236  0.00  0.00    +0.000 A 
ATOM     27  C   UNL     1       5.075   5.779  15.817  0.00  0.00    +0.000 A 
ATOM     28  C   UNL     1       5.113   6.014  17.213  0.00  0.00    +0.000 A 
ATOM     29  H   UNL     1       6.196   5.734  19.943  0.00  0.00    +0.000 HD
BRANCH  21  30
ATOM     30  C   UNL     1       3.404   4.208  18.679  0.00  0.00    +0.000 A 
ATOM     31  C   UNL     1       2.061   4.327  18.356  0.00  0.00    +0.000 A 
ATOM     32  C   UNL     1       1.285   3.162  18.300  0.00  0.00    +0.000 A 
ATOM     33  C   UNL     1       1.850   1.928  18.606  0.00  0.00    +0.000 A 
ATOM     34  C   UNL     1       3.188   1.900  18.934  0.00  0.00    +0.000 A 
ATOM     35  N   UNL     1       3.965   2.999  18.941  0.00  0.00    +0.000 NA
ENDBRANCH  21  30
ENDBRANCH  19  20
ENDBRANCH   1  19
TORSDOF 9
ENDMDL
MODEL 8
REMARK VINA RESULT:      -8.2      3.258      3.562
REMARK  Name = 
REMARK  9 active torsions:
REMARK  status: ('A' for Active; 'I' for Inactive)
REMARK    1  A    between atoms: C_2  and  C_3
REMARK    2  A    between atoms: C_4  and  C_5
REMARK    3  A    between atoms: C_8  and  C_9
REMARK    4  A    between atoms: C_9  and  N_10
REMARK    5  A    between atoms: N_10  and  C_11
REMARK    6  A    between atoms: C_11  and  C_12
REMARK    7  A    between atoms: C_12  and  C_13
REMARK    8  A    between atoms: C_14  and  C_15
REMARK    9  A    between atoms: N_30  and  O_31
REMARK                            x       y       z     vdW  Elec       q    Type
REMARK                         _______ _______ _______ _____ _____    ______ ____
ROOT
ATOM      1  C   UNL     1       3.051   8.020  17.990  0.00  0.00    +0.000 C 
ENDROOT
BRANCH   1   2
ATOM      2  N   UNL     1       2.349   9.290  18.081  0.00  0.00    +0.000 NA
ATOM      3  H   UNL     1       3.012  10.039  18.235  0.00  0.00    +0.000 HD
BRANCH   2   4
ATOM      4  C   UNL     1       1.302   9.297  19.115  0.00  0.00    +0.000 C 
BRANCH   4   8
ATOM      5  C   UNL     1      -2.520  11.156  18.110  0.00  0.00    +0.000 A 
ATOM      6  C   UNL     1      -1.962  10.160  17.294  0.00  0.00    +0.000 A 
ATOM      7  C   UNL     1      -0.727   9.564  17.611  0.00  0.00    +0.000 A 
ATOM      8  C   UNL     1      -0.003   9.969  18.734  0.00  0.00    +0.000 A 
ATOM      9  C   UNL     1      -0.557  10.969  19.550  0.00  0.00    +0.000 A 
ATOM     10  C   UNL     1      -1.792  11.558  19.234  0.00  0.00    +0.000 A 
BRANCH   5  12
ATOM     11  C   UNL     1      -4.971  11.539  18.375  0.00  0.00    +0.000 C 
ATOM     12  C   UNL     1      -3.813  11.751  17.727  0.00  0.00    +0.000 C 
BRANCH  11  14
ATOM     13  O   UNL     1      -7.351  11.813  18.268  0.00  0.00    +0.000 OA
ATOM     14  C   UNL     1      -6.231  12.172  17.907  0.00  0.00    +0.000 C 
ATOM     15  N   UNL     1      -6.024  13.202  17.033  0.00  0.00    +0.000 N 
ATOM     16  H   UNL     1      -5.114  13.525  16.719  0.00  0.00    +0.000 HD
BRANCH  15  17
ATOM     17  O   UNL     1      -7.155  13.876  16.531  0.00  0.00    +0.000 OA
ATOM     18  H   UNL     1      -7.096  13.688  15.572  0.00  0.00    +0.000 HD
ENDBRANCH  15  17
ENDBRANCH  11  14
ENDBRANCH   5  12
ENDBRANCH   4   8
ENDBRANCH   2   4
ENDBRANCH   1   2
BRANCH   1  19
ATOM     19  C   UNL     1       2.190   6.840  17.546  0.00  0.00    +0.000 C 
BRANCH  19  20
ATOM     20  C   UNL     1       2.128   5.437  18.130  0.00  0.00    +0.000 A 
ATOM     21  C   UNL     1       3.068   4.530  17.562  0.00  0.00    +0.000 A 
ATOM     22  N   UNL     1       2.284   3.380  17.649  0.00  0.00    +0.000 N 
ATOM     23  C   UNL     1       1.897   3.344  18.978  0.00  0.00    +0.000 A 
ATOM     24  C   UNL     1       1.681   2.238  19.797  0.00  0.00    +0.000 A 
ATOM     25  C   UNL     1       1.890   2.455  21.154  0.00  0.00    +0.000 A 
ATOM     26  C   UNL     1       2.181   3.743  21.625  0.00  0.00    +0.000 A 
ATOM     27  C   UNL     1       2.154   4.883  20.777  0.00  0.00    +0.000 A 
ATOM     28  C   UNL     1       1.993   4.693  19.384  0.00  0.00    +0.000 A 
ATOM     29  H   UNL     1       1.638   3.099  16.927  0.00  0.00    +0.000 HD
BRANCH  21  30
ATOM     30  C   UNL     1       4.516   4.622  17.984  0.00  0.00    +0.000 A 
ATOM     31  C   UNL     1       4.964   5.239  19.142  0.00  0.00    +0.000 A 
ATOM     32  C   UNL     1       6.335   5.500  19.268  0.00  0.00    +0.000 A 
ATOM     33  C   UNL     1       7.206   5.184  18.231  0.00  0.00    +0.000 A 
ATOM     34  C   UNL     1       6.676   4.590  17.107  0.00  0.00    +0.000 A 
ATOM     35  N   UNL     1       5.372   4.279  16.987  0.00  0.00    +0.000 NA
ENDBRANCH  21  30
ENDBRANCH  19  20
ENDBRANCH   1  19
TORSDOF 9
ENDMDL
MODEL 9
REMARK VINA RESULT:      -8.2      1.798      3.936
REMARK  Name = 
REMARK  9 active torsions:
REMARK  status: ('A' for Active; 'I' for Inactive)
REMARK    1  A    between atoms: C_2  and  C_3
REMARK    2  A    between atoms: C_4  and  C_5
REMARK    3  A    between atoms: C_8  and  C_9
REMARK    4  A    between atoms: C_9  and  N_10
REMARK    5  A    between atoms: N_10  and  C_11
REMARK    6  A    between atoms: C_11  and  C_12
REMARK    7  A    between atoms: C_12  and  C_13
REMARK    8  A    between atoms: C_14  and  C_15
REMARK    9  A    between atoms: N_30  and  O_31
REMARK                            x       y       z     vdW  Elec       q    Type
REMARK                         _______ _______ _______ _____ _____    ______ ____
ROOT
ATOM      1  C   UNL     1       2.058   6.661  20.068  0.00  0.00    +0.000 C 
ENDROOT
BRANCH   1   2
ATOM      2  N   UNL     1       1.890   7.809  20.944  0.00  0.00    +0.000 NA
ATOM      3  H   UNL     1       1.343   7.547  21.755  0.00  0.00    +0.000 HD
BRANCH   2   4
ATOM      4  C   UNL     1       1.291   8.969  20.264  0.00  0.00    +0.000 C 
BRANCH   4   8
ATOM      5  C   UNL     1      -1.533  11.301  22.642  0.00  0.00    +0.000 A 
ATOM      6  C   UNL     1      -1.231  11.660  21.319  0.00  0.00    +0.000 A 
ATOM      7  C   UNL     1      -0.316  10.914  20.553  0.00  0.00    +0.000 A 
ATOM      8  C   UNL     1       0.345   9.811  21.097  0.00  0.00    +0.000 A 
ATOM      9  C   UNL     1       0.048   9.454  22.423  0.00  0.00    +0.000 A 
ATOM     10  C   UNL     1      -0.870  10.196  23.183  0.00  0.00    +0.000 A 
BRANCH   5  12
ATOM     11  C   UNL     1      -3.626  12.636  22.894  0.00  0.00    +0.000 C 
ATOM     12  C   UNL     1      -2.494  12.121  23.403  0.00  0.00    +0.000 C 
BRANCH  11  14
ATOM     13  O   UNL     1      -5.558  13.037  24.257  0.00  0.00    +0.000 OA
ATOM     14  C   UNL     1      -4.529  13.464  23.734  0.00  0.00    +0.000 C 
ATOM     15  N   UNL     1      -4.102  14.754  23.872  0.00  0.00    +0.000 N 
ATOM     16  H   UNL     1      -3.257  15.137  23.457  0.00  0.00    +0.000 HD
BRANCH  15  17
ATOM     17  O   UNL     1      -4.886  15.626  24.655  0.00  0.00    +0.000 OA
ATOM     18  H   UNL     1      -5.080  16.349  24.024  0.00  0.00    +0.000 HD
ENDBRANCH  15  17
ENDBRANCH  11  14
ENDBRANCH   5  12
ENDBRANCH   4   8
ENDBRANCH   2   4
ENDBRANCH   1   2
BRANCH   1  19
ATOM     19  C   UNL     1       3.000   6.885  18.888  0.00  0.00    +0.000 C 
BRANCH  19  20
ATOM     20  C   UNL     1       4.274   6.134  18.533  0.00  0.00    +0.000 A 
ATOM     21  C   UNL     1       4.509   4.980  19.336  0.00  0.00    +0.000 A 
ATOM     22  N   UNL     1       5.901   5.053  19.353  0.00  0.00    +0.000 N 
ATOM     23  C   UNL     1       6.244   5.132  18.013  0.00  0.00    +0.000 A 
ATOM     24  C   UNL     1       7.364   4.619  17.364  0.00  0.00    +0.000 A 
ATOM     25  C   UNL     1       7.184   4.315  16.019  0.00  0.00    +0.000 A 
ATOM     26  C   UNL     1       5.977   4.633  15.381  0.00  0.00    +0.000 A 
ATOM     27  C   UNL     1       4.951   5.375  16.027  0.00  0.00    +0.000 A 
ATOM     28  C   UNL     1       5.081   5.657  17.408  0.00  0.00    +0.000 A 
ATOM     29  H   UNL     1       6.416   5.584  20.038  0.00  0.00    +0.000 HD
BRANCH  21  30
ATOM     30  C   UNL     1       3.712   3.726  19.060  0.00  0.00    +0.000 A 
ATOM     31  C   UNL     1       3.479   3.199  17.799  0.00  0.00    +0.000 A 
ATOM     32  C   UNL     1       2.499   2.207  17.664  0.00  0.00    +0.000 A 
ATOM     33  C   UNL     1       1.756   1.802  18.768  0.00  0.00    +0.000 A 
ATOM     34  C   UNL     1       2.039   2.389  19.981  0.00  0.00    +0.000 A 
ATOM     35  N   UNL     1       3.013   3.304  20.145  0.00  0.00    +0.000 NA
ENDBRANCH  21  30
ENDBRANCH  19  20
ENDBRANCH   1  19
TORSDOF 9
ENDMDL
