MODEL 1
REMARK VINA RESULT:      -7.9      0.000      0.000
REMARK  Name = 
REMARK  11 active torsions:
REMARK  status: ('A' for Active; 'I' for Inactive)
REMARK    1  A    between atoms: C_1  and  C_2
REMARK    2  A    between atoms: C_2  and  C_3
REMARK    3  A    between atoms: N_6  and  C_7
REMARK    4  A    between atoms: N_6  and  C_22
REMARK    5  A    between atoms: C_7  and  C_8
REMARK    6  A    between atoms: C_8  and  C_9
REMARK    7  A    between atoms: N_11  and  C_12
REMARK    8  A    between atoms: C_16  and  C_17
REMARK    9  A    between atoms: C_22  and  C_23
REMARK   10  A    between atoms: C_23  and  C_24
REMARK   11  A    between atoms: C_23  and  C_25
REMARK                            x       y       z     vdW  Elec       q    Type
REMARK                         _______ _______ _______ _____ _____    ______ ____
ROOT
ATOM      1  C   UNL     1      -2.305  10.737  17.648  0.00  0.00    +0.000 A 
ATOM      2  N   UNL     1      -1.249  10.591  18.462  0.00  0.00    +0.000 NA
ATOM      3  C   UNL     1      -1.292  11.142  19.701  0.00  0.00    +0.000 A 
ATOM      4  N   UNL     1      -0.096  11.008  20.410  0.00  0.00    +0.000 N 
ATOM      5  C   UNL     1      -2.463  11.829  20.139  0.00  0.00    +0.000 A 
ATOM      6  C   UNL     1      -2.748  12.403  21.415  0.00  0.00    +0.000 A 
ATOM      7  C   UNL     1      -3.877  13.192  21.649  0.00  0.00    +0.000 A 
ATOM      8  C   UNL     1      -4.773  13.400  20.619  0.00  0.00    +0.000 A 
ATOM      9 CL   UNL     1      -6.124  14.438  20.850  0.00  0.00    +0.000 Cl
ATOM     10  C   UNL     1      -4.577  12.771  19.397  0.00  0.00    +0.000 A 
ATOM     11  C   UNL     1      -3.456  11.991  19.153  0.00  0.00    +0.000 A 
ATOM     12  N   UNL     1      -3.395  11.446  17.944  0.00  0.00    +0.000 NA
ENDROOT
BRANCH   1  14
ATOM     13  C   UNL     1      -3.144  10.767  15.301  0.00  0.00    +0.000 C 
ATOM     14  C   UNL     1      -2.309  10.018  16.328  0.00  0.00    +0.000 C 
ENDBRANCH   1  14
BRANCH   4  15
ATOM     15  C   UNL     1       0.019  10.878  21.868  0.00  0.00    +0.000 C 
BRANCH  15  16
ATOM     16  C   UNL     1       0.916   9.703  22.235  0.00  0.00    +0.000 C 
BRANCH  16  17
ATOM     17  C   UNL     1       0.679   8.468  21.385  0.00  0.00    +0.000 C 
ATOM     18  O   UNL     1      -0.419   7.947  21.269  0.00  0.00    +0.000 OA
ATOM     19  N   UNL     1       1.870   8.056  20.796  0.00  0.00    +0.000 N 
ATOM     20  H   UNL     1       2.701   8.562  21.080  0.00  0.00    +0.000 HD
BRANCH  19  21
ATOM     21  C   UNL     1       2.090   6.922  19.993  0.00  0.00    +0.000 A 
ATOM     22  C   UNL     1       2.577   6.974  18.688  0.00  0.00    +0.000 A 
ATOM     23  C   UNL     1       2.695   5.805  17.932  0.00  0.00    +0.000 A 
ATOM     24  C   UNL     1       2.308   4.577  18.468  0.00  0.00    +0.000 A 
ATOM     25  C   UNL     1       1.833   4.499  19.782  0.00  0.00    +0.000 A 
ATOM     26  C   UNL     1       1.763   5.676  20.549  0.00  0.00    +0.000 A 
BRANCH  25  27
ATOM     27  C   UNL     1       1.362   3.189  20.365  0.00  0.00    +0.000 C 
ATOM     28  F   UNL     1       1.096   3.246  21.699  0.00  0.00    +0.000 F 
ATOM     29  F   UNL     1       0.225   2.730  19.774  0.00  0.00    +0.000 F 
ATOM     30  F   UNL     1       2.285   2.197  20.214  0.00  0.00    +0.000 F 
ENDBRANCH  25  27
ENDBRANCH  19  21
ENDBRANCH  16  17
ENDBRANCH  15  16
ENDBRANCH   4  15
BRANCH   4  31
ATOM     31  C   UNL     1       1.063  11.619  19.719  0.00  0.00    +0.000 C 
BRANCH  31  32
ATOM     32  C   UNL     1       1.220  13.127  20.019  0.00  0.00    +0.000 C 
ATOM     33  C   UNL     1       2.663  13.519  20.341  0.00  0.00    +0.000 C 
ATOM     34  C   UNL     1       0.737  13.958  18.823  0.00  0.00    +0.000 C 
ENDBRANCH  31  32
ENDBRANCH   4  31
TORSDOF 8
ENDMDL
MODEL 2
REMARK VINA RESULT:      -7.9      2.203      3.838
REMARK  Name = 
REMARK  11 active torsions:
REMARK  status: ('A' for Active; 'I' for Inactive)
REMARK    1  A    between atoms: C_1  and  C_2
REMARK    2  A    between atoms: C_2  and  C_3
REMARK    3  A    between atoms: N_6  and  C_7
REMARK    4  A    between atoms: N_6  and  C_22
REMARK    5  A    between atoms: C_7  and  C_8
REMARK    6  A    between atoms: C_8  and  C_9
REMARK    7  A    between atoms: N_11  and  C_12
REMARK    8  A    between atoms: C_16  and  C_17
REMARK    9  A    between atoms: C_22  and  C_23
REMARK   10  A    between atoms: C_23  and  C_24
REMARK   11  A    between atoms: C_23  and  C_25
REMARK                            x       y       z     vdW  Elec       q    Type
REMARK                         _______ _______ _______ _____ _____    ______ ____
ROOT
ATOM      1  C   UNL     1      -0.427  13.218  19.897  0.00  0.00    +0.000 A 
ATOM      2  N   UNL     1       0.410  12.177  19.782  0.00  0.00    +0.000 NA
ATOM      3  C   UNL     1      -0.025  11.047  19.170  0.00  0.00    +0.000 A 
ATOM      4  N   UNL     1       0.903  10.004  19.204  0.00  0.00    +0.000 N 
ATOM      5  C   UNL     1      -1.341  10.991  18.622  0.00  0.00    +0.000 A 
ATOM      6  C   UNL     1      -1.962   9.945  17.874  0.00  0.00    +0.000 A 
ATOM      7  C   UNL     1      -3.320   9.963  17.542  0.00  0.00    +0.000 A 
ATOM      8  C   UNL     1      -4.087  11.047  17.921  0.00  0.00    +0.000 A 
ATOM      9 CL   UNL     1      -5.777  11.057  17.606  0.00  0.00    +0.000 Cl
ATOM     10  C   UNL     1      -3.489  12.126  18.559  0.00  0.00    +0.000 A 
ATOM     11  C   UNL     1      -2.144  12.115  18.898  0.00  0.00    +0.000 A 
ATOM     12  N   UNL     1      -1.701  13.212  19.501  0.00  0.00    +0.000 NA
ENDROOT
BRANCH   1  14
ATOM     13  C   UNL     1       0.479  15.474  19.344  0.00  0.00    +0.000 C 
ATOM     14  C   UNL     1       0.094  14.512  20.457  0.00  0.00    +0.000 C 
ENDBRANCH   1  14
BRANCH   4  15
ATOM     15  C   UNL     1       1.062   8.971  18.173  0.00  0.00    +0.000 C 
BRANCH  15  16
ATOM     16  C   UNL     1       2.520   8.855  17.746  0.00  0.00    +0.000 C 
BRANCH  16  17
ATOM     17  C   UNL     1       3.071   7.443  17.842  0.00  0.00    +0.000 C 
ATOM     18  O   UNL     1       4.203   7.151  17.494  0.00  0.00    +0.000 OA
ATOM     19  N   UNL     1       2.106   6.588  18.366  0.00  0.00    +0.000 N 
ATOM     20  H   UNL     1       1.190   6.993  18.514  0.00  0.00    +0.000 HD
BRANCH  19  21
ATOM     21  C   UNL     1       2.196   5.196  18.551  0.00  0.00    +0.000 A 
ATOM     22  C   UNL     1       2.198   4.271  17.508  0.00  0.00    +0.000 A 
ATOM     23  C   UNL     1       2.214   2.901  17.782  0.00  0.00    +0.000 A 
ATOM     24  C   UNL     1       2.209   2.444  19.099  0.00  0.00    +0.000 A 
ATOM     25  C   UNL     1       2.225   3.356  20.162  0.00  0.00    +0.000 A 
ATOM     26  C   UNL     1       2.256   4.732  19.873  0.00  0.00    +0.000 A 
BRANCH  25  27
ATOM     27  C   UNL     1       2.169   2.884  21.594  0.00  0.00    +0.000 C 
ATOM     28  F   UNL     1       3.042   1.878  21.875  0.00  0.00    +0.000 F 
ATOM     29  F   UNL     1       2.441   3.877  22.485  0.00  0.00    +0.000 F 
ATOM     30  F   UNL     1       0.937   2.410  21.933  0.00  0.00    +0.000 F 
ENDBRANCH  25  27
ENDBRANCH  19  21
ENDBRANCH  16  17
ENDBRANCH  15  16
ENDBRANCH   4  15
BRANCH   4  31
ATOM     31  C   UNL     1       1.290   9.614  20.580  0.00  0.00    +0.000 C 
BRANCH  31  32
ATOM     32  C   UNL     1       0.080   9.243  21.467  0.00  0.00    +0.000 C 
ATOM     33  C   UNL     1      -0.317   7.772  21.342  0.00  0.00    +0.000 C 
ATOM     34  C   UNL     1       0.389   9.549  22.938  0.00  0.00    +0.000 C 
ENDBRANCH  31  32
ENDBRANCH   4  31
TORSDOF 8
ENDMDL
MODEL 3
REMARK VINA RESULT:      -7.7      5.103      8.680
REMARK  Name = 
REMARK  11 active torsions:
REMARK  status: ('A' for Active; 'I' for Inactive)
REMARK    1  A    between atoms: C_1  and  C_2
REMARK    2  A    between atoms: C_2  and  C_3
REMARK    3  A    between atoms: N_6  and  C_7
REMARK    4  A    between atoms: N_6  and  C_22
REMARK    5  A    between atoms: C_7  and  C_8
REMARK    6  A    between atoms: C_8  and  C_9
REMARK    7  A    between atoms: N_11  and  C_12
REMARK    8  A    between atoms: C_16  and  C_17
REMARK    9  A    between atoms: C_22  and  C_23
REMARK   10  A    between atoms: C_23  and  C_24
REMARK   11  A    between atoms: C_23  and  C_25
REMARK                            x       y       z     vdW  Elec       q    Type
REMARK                         _______ _______ _______ _____ _____    ______ ____
ROOT
ATOM      1  C   UNL     1       3.796   6.752  17.415  0.00  0.00    +0.000 A 
ATOM      2  N   UNL     1       3.224   7.702  18.171  0.00  0.00    +0.000 NA
ATOM      3  C   UNL     1       2.417   7.330  19.196  0.00  0.00    +0.000 A 
ATOM      4  N   UNL     1       1.805   8.407  19.839  0.00  0.00    +0.000 N 
ATOM      5  C   UNL     1       2.219   5.947  19.485  0.00  0.00    +0.000 A 
ATOM      6  C   UNL     1       1.488   5.346  20.555  0.00  0.00    +0.000 A 
ATOM      7  C   UNL     1       1.242   3.972  20.618  0.00  0.00    +0.000 A 
ATOM      8  C   UNL     1       1.753   3.155  19.628  0.00  0.00    +0.000 A 
ATOM      9 CL   UNL     1       1.394   1.474  19.629  0.00  0.00    +0.000 Cl
ATOM     10  C   UNL     1       2.554   3.697  18.632  0.00  0.00    +0.000 A 
ATOM     11  C   UNL     1       2.799   5.060  18.558  0.00  0.00    +0.000 A 
ATOM     12  N   UNL     1       3.584   5.443  17.558  0.00  0.00    +0.000 NA
ENDROOT
BRANCH   1  14
ATOM     13  C   UNL     1       5.620   5.971  15.906  0.00  0.00    +0.000 C 
ATOM     14  C   UNL     1       4.790   7.160  16.364  0.00  0.00    +0.000 C 
ENDBRANCH   1  14
BRANCH   4  15
ATOM     15  C   UNL     1       1.446   8.458  21.262  0.00  0.00    +0.000 C 
BRANCH  15  16
ATOM     16  C   UNL     1      -0.025   8.814  21.436  0.00  0.00    +0.000 C 
BRANCH  16  17
ATOM     17  C   UNL     1      -0.269   9.905  22.463  0.00  0.00    +0.000 C 
ATOM     18  O   UNL     1       0.166   9.850  23.601  0.00  0.00    +0.000 OA
ATOM     19  N   UNL     1      -1.039  10.922  21.906  0.00  0.00    +0.000 N 
ATOM     20  H   UNL     1      -1.385  10.751  20.969  0.00  0.00    +0.000 HD
BRANCH  19  21
ATOM     21  C   UNL     1      -1.538  12.074  22.542  0.00  0.00    +0.000 A 
ATOM     22  C   UNL     1      -0.753  13.172  22.889  0.00  0.00    +0.000 A 
ATOM     23  C   UNL     1      -1.312  14.245  23.587  0.00  0.00    +0.000 A 
ATOM     24  C   UNL     1      -2.655  14.221  23.960  0.00  0.00    +0.000 A 
ATOM     25  C   UNL     1      -3.466  13.135  23.607  0.00  0.00    +0.000 A 
ATOM     26  C   UNL     1      -2.903  12.083  22.864  0.00  0.00    +0.000 A 
BRANCH  25  27
ATOM     27  C   UNL     1      -4.909  13.065  24.044  0.00  0.00    +0.000 C 
ATOM     28  F   UNL     1      -5.123  12.223  25.093  0.00  0.00    +0.000 F 
ATOM     29  F   UNL     1      -5.401  14.274  24.428  0.00  0.00    +0.000 F 
ATOM     30  F   UNL     1      -5.729  12.630  23.046  0.00  0.00    +0.000 F 
ENDBRANCH  25  27
ENDBRANCH  19  21
ENDBRANCH  16  17
ENDBRANCH  15  16
ENDBRANCH   4  15
BRANCH   4  31
ATOM     31  C   UNL     1       0.976   9.233  18.931  0.00  0.00    +0.000 C 
BRANCH  31  32
ATOM     32  C   UNL     1       1.353  10.731  18.962  0.00  0.00    +0.000 C 
ATOM     33  C   UNL     1       2.340  11.117  17.859  0.00  0.00    +0.000 C 
ATOM     34  C   UNL     1       0.094  11.597  18.823  0.00  0.00    +0.000 C 
ENDBRANCH  31  32
ENDBRANCH   4  31
TORSDOF 8
ENDMDL
MODEL 4
REMARK VINA RESULT:      -7.6      5.643      9.480
REMARK  Name = 
REMARK  11 active torsions:
REMARK  status: ('A' for Active; 'I' for Inactive)
REMARK    1  A    between atoms: C_1  and  C_2
REMARK    2  A    between atoms: C_2  and  C_3
REMARK    3  A    between atoms: N_6  and  C_7
REMARK    4  A    between atoms: N_6  and  C_22
REMARK    5  A    between atoms: C_7  and  C_8
REMARK    6  A    between atoms: C_8  and  C_9
REMARK    7  A    between atoms: N_11  and  C_12
REMARK    8  A    between atoms: C_16  and  C_17
REMARK    9  A    between atoms: C_22  and  C_23
REMARK   10  A    between atoms: C_23  and  C_24
REMARK   11  A    between atoms: C_23  and  C_25
REMARK                            x       y       z     vdW  Elec       q    Type
REMARK                         _______ _______ _______ _____ _____    ______ ____
ROOT
ATOM      1  C   UNL     1       1.950   4.069  19.286  0.00  0.00    +0.000 A 
ATOM      2  N   UNL     1       1.613   5.348  19.511  0.00  0.00    +0.000 NA
ATOM      3  C   UNL     1       2.334   6.332  18.919  0.00  0.00    +0.000 A 
ATOM      4  N   UNL     1       1.950   7.616  19.311  0.00  0.00    +0.000 N 
ATOM      5  C   UNL     1       3.407   6.003  18.037  0.00  0.00    +0.000 A 
ATOM      6  C   UNL     1       4.230   6.870  17.255  0.00  0.00    +0.000 A 
ATOM      7  C   UNL     1       5.354   6.414  16.561  0.00  0.00    +0.000 A 
ATOM      8  C   UNL     1       5.667   5.070  16.604  0.00  0.00    +0.000 A 
ATOM      9 CL   UNL     1       7.092   4.494  15.835  0.00  0.00    +0.000 Cl
ATOM     10  C   UNL     1       4.828   4.187  17.270  0.00  0.00    +0.000 A 
ATOM     11  C   UNL     1       3.713   4.630  17.967  0.00  0.00    +0.000 A 
ATOM     12  N   UNL     1       2.997   3.680  18.556  0.00  0.00    +0.000 NA
ENDROOT
BRANCH   1  14
ATOM     13  C   UNL     1       1.397   2.703  21.296  0.00  0.00    +0.000 C 
ATOM     14  C   UNL     1       1.073   2.979  19.836  0.00  0.00    +0.000 C 
ENDBRANCH   1  14
BRANCH   4  15
ATOM     15  C   UNL     1       2.016   8.820  18.473  0.00  0.00    +0.000 C 
BRANCH  15  16
ATOM     16  C   UNL     1       0.643   9.159  17.907  0.00  0.00    +0.000 C 
BRANCH  16  17
ATOM     17  C   UNL     1       0.213  10.591  18.173  0.00  0.00    +0.000 C 
ATOM     18  O   UNL     1      -0.948  10.957  18.095  0.00  0.00    +0.000 OA
ATOM     19  N   UNL     1       1.319  11.370  18.500  0.00  0.00    +0.000 N 
ATOM     20  H   UNL     1       2.219  10.911  18.426  0.00  0.00    +0.000 HD
BRANCH  19  21
ATOM     21  C   UNL     1       1.356  12.754  18.749  0.00  0.00    +0.000 A 
ATOM     22  C   UNL     1       0.366  13.446  19.445  0.00  0.00    +0.000 A 
ATOM     23  C   UNL     1       0.443  14.834  19.584  0.00  0.00    +0.000 A 
ATOM     24  C   UNL     1       1.498  15.544  19.012  0.00  0.00    +0.000 A 
ATOM     25  C   UNL     1       2.512  14.867  18.325  0.00  0.00    +0.000 A 
ATOM     26  C   UNL     1       2.449  13.465  18.232  0.00  0.00    +0.000 A 
BRANCH  25  27
ATOM     27  C   UNL     1       3.637  15.619  17.656  0.00  0.00    +0.000 C 
ATOM     28  F   UNL     1       4.731  14.851  17.397  0.00  0.00    +0.000 F 
ATOM     29  F   UNL     1       3.269  16.162  16.463  0.00  0.00    +0.000 F 
ATOM     30  F   UNL     1       4.085  16.658  18.415  0.00  0.00    +0.000 F 
ENDBRANCH  25  27
ENDBRANCH  19  21
ENDBRANCH  16  17
ENDBRANCH  15  16
ENDBRANCH   4  15
BRANCH   4  31
ATOM     31  C   UNL     1       2.061   7.835  20.772  0.00  0.00    +0.000 C 
BRANCH  31  32
ATOM     32  C   UNL     1       1.052   8.877  21.306  0.00  0.00    +0.000 C 
ATOM     33  C   UNL     1      -0.363   8.314  21.446  0.00  0.00    +0.000 C 
ATOM     34  C   UNL     1       1.510   9.406  22.671  0.00  0.00    +0.000 C 
ENDBRANCH  31  32
ENDBRANCH   4  31
TORSDOF 8
ENDMDL
MODEL 5
REMARK VINA RESULT:      -7.6      4.896      8.927
REMARK  Name = 
REMARK  11 active torsions:
REMARK  status: ('A' for Active; 'I' for Inactive)
REMARK    1  A    between atoms: C_1  and  C_2
REMARK    2  A    between atoms: C_2  and  C_3
REMARK    3  A    between atoms: N_6  and  C_7
REMARK    4  A    between atoms: N_6  and  C_22
REMARK    5  A    between atoms: C_7  and  C_8
REMARK    6  A    between atoms: C_8  and  C_9
REMARK    7  A    between atoms: N_11  and  C_12
REMARK    8  A    between atoms: C_16  and  C_17
REMARK    9  A    between atoms: C_22  and  C_23
REMARK   10  A    between atoms: C_23  and  C_24
REMARK   11  A    between atoms: C_23  and  C_25
REMARK                            x       y       z     vdW  Elec       q    Type
REMARK                         _______ _______ _______ _____ _____    ______ ____
ROOT
ATOM      1  C   UNL     1       2.332   4.737  20.516  0.00  0.00    +0.000 A 
ATOM      2  N   UNL     1       1.746   5.926  20.312  0.00  0.00    +0.000 NA
ATOM      3  C   UNL     1       2.284   6.777  19.404  0.00  0.00    +0.000 A 
ATOM      4  N   UNL     1       1.644   8.017  19.357  0.00  0.00    +0.000 N 
ATOM      5  C   UNL     1       3.433   6.389  18.651  0.00  0.00    +0.000 A 
ATOM      6  C   UNL     1       4.100   7.089  17.600  0.00  0.00    +0.000 A 
ATOM      7  C   UNL     1       5.317   6.657  17.065  0.00  0.00    +0.000 A 
ATOM      8  C   UNL     1       5.883   5.492  17.544  0.00  0.00    +0.000 A 
ATOM      9 CL   UNL     1       7.421   4.983  16.969  0.00  0.00    +0.000 Cl
ATOM     10  C   UNL     1       5.207   4.736  18.492  0.00  0.00    +0.000 A 
ATOM     11  C   UNL     1       4.002   5.159  19.034  0.00  0.00    +0.000 A 
ATOM     12  N   UNL     1       3.462   4.339  19.927  0.00  0.00    +0.000 NA
ENDROOT
BRANCH   1  14
ATOM     13  C   UNL     1       2.037   2.319  21.046  0.00  0.00    +0.000 C 
ATOM     14  C   UNL     1       1.664   3.743  21.425  0.00  0.00    +0.000 C 
ENDBRANCH   1  14
BRANCH   4  15
ATOM     15  C   UNL     1       1.506   8.861  18.163  0.00  0.00    +0.000 C 
BRANCH  15  16
ATOM     16  C   UNL     1       1.616  10.336  18.529  0.00  0.00    +0.000 C 
BRANCH  16  17
ATOM     17  C   UNL     1       0.370  11.138  18.199  0.00  0.00    +0.000 C 
ATOM     18  O   UNL     1       0.317  12.352  18.316  0.00  0.00    +0.000 OA
ATOM     19  N   UNL     1      -0.645  10.290  17.767  0.00  0.00    +0.000 N 
ATOM     20  H   UNL     1      -0.444   9.299  17.821  0.00  0.00    +0.000 HD
BRANCH  19  21
ATOM     21  C   UNL     1      -1.968  10.629  17.431  0.00  0.00    +0.000 A 
ATOM     22  C   UNL     1      -2.491  10.539  16.142  0.00  0.00    +0.000 A 
ATOM     23  C   UNL     1      -3.795  10.968  15.879  0.00  0.00    +0.000 A 
ATOM     24  C   UNL     1      -4.579  11.508  16.898  0.00  0.00    +0.000 A 
ATOM     25  C   UNL     1      -4.079  11.592  18.203  0.00  0.00    +0.000 A 
ATOM     26  C   UNL     1      -2.783  11.114  18.464  0.00  0.00    +0.000 A 
BRANCH  25  27
ATOM     27  C   UNL     1      -4.892  12.219  19.310  0.00  0.00    +0.000 C 
ATOM     28  F   UNL     1      -5.826  11.385  19.844  0.00  0.00    +0.000 F 
ATOM     29  F   UNL     1      -4.123  12.639  20.352  0.00  0.00    +0.000 F 
ATOM     30  F   UNL     1      -5.576  13.319  18.886  0.00  0.00    +0.000 F 
ENDBRANCH  25  27
ENDBRANCH  19  21
ENDBRANCH  16  17
ENDBRANCH  15  16
ENDBRANCH   4  15
BRANCH   4  31
ATOM     31  C   UNL     1       1.655   8.728  20.657  0.00  0.00    +0.000 C 
BRANCH  31  32
ATOM     32  C   UNL     1       0.256   9.223  21.088  0.00  0.00    +0.000 C 
ATOM     33  C   UNL     1      -0.513   8.186  21.908  0.00  0.00    +0.000 C 
ATOM     34  C   UNL     1       0.381  10.511  21.912  0.00  0.00    +0.000 C 
ENDBRANCH  31  32
ENDBRANCH   4  31
TORSDOF 8
ENDMDL
MODEL 6
REMARK VINA RESULT:      -7.6      4.781      8.918
REMARK  Name = 
REMARK  11 active torsions:
REMARK  status: ('A' for Active; 'I' for Inactive)
REMARK    1  A    between atoms: C_1  and  C_2
REMARK    2  A    between atoms: C_2  and  C_3
REMARK    3  A    between atoms: N_6  and  C_7
REMARK    4  A    between atoms: N_6  and  C_22
REMARK    5  A    between atoms: C_7  and  C_8
REMARK    6  A    between atoms: C_8  and  C_9
REMARK    7  A    between atoms: N_11  and  C_12
REMARK    8  A    between atoms: C_16  and  C_17
REMARK    9  A    between atoms: C_22  and  C_23
REMARK   10  A    between atoms: C_23  and  C_24
REMARK   11  A    between atoms: C_23  and  C_25
REMARK                            x       y       z     vdW  Elec       q    Type
REMARK                         _______ _______ _______ _____ _____    ______ ____
ROOT
ATOM      1  C   UNL     1       1.999   4.006  18.479  0.00  0.00    +0.000 A 
ATOM      2  N   UNL     1       1.655   5.244  18.865  0.00  0.00    +0.000 NA
ATOM      3  C   UNL     1       2.444   6.288  18.507  0.00  0.00    +0.000 A 
ATOM      4  N   UNL     1       2.036   7.506  19.054  0.00  0.00    +0.000 N 
ATOM      5  C   UNL     1       3.598   6.068  17.697  0.00  0.00    +0.000 A 
ATOM      6  C   UNL     1       4.506   7.022  17.144  0.00  0.00    +0.000 A 
ATOM      7  C   UNL     1       5.691   6.648  16.504  0.00  0.00    +0.000 A 
ATOM      8  C   UNL     1       5.983   5.305  16.369  0.00  0.00    +0.000 A 
ATOM      9 CL   UNL     1       7.473   4.815  15.666  0.00  0.00    +0.000 Cl
ATOM     10  C   UNL     1       5.070   4.353  16.804  0.00  0.00    +0.000 A 
ATOM     11  C   UNL     1       3.894   4.715  17.446  0.00  0.00    +0.000 A 
ATOM     12  N   UNL     1       3.111   3.706  17.806  0.00  0.00    +0.000 NA
ENDROOT
BRANCH   1  14
ATOM     13  C   UNL     1       0.672   2.834  20.235  0.00  0.00    +0.000 C 
ATOM     14  C   UNL     1       1.058   2.869  18.764  0.00  0.00    +0.000 C 
ENDBRANCH   1  14
BRANCH   4  15
ATOM     15  C   UNL     1       2.201   8.822  18.423  0.00  0.00    +0.000 C 
BRANCH  15  16
ATOM     16  C   UNL     1       1.022   9.135  17.510  0.00  0.00    +0.000 C 
BRANCH  16  17
ATOM     17  C   UNL     1      -0.026  10.025  18.155  0.00  0.00    +0.000 C 
ATOM     18  O   UNL     1      -1.222   9.797  18.080  0.00  0.00    +0.000 OA
ATOM     19  N   UNL     1       0.587  11.090  18.807  0.00  0.00    +0.000 N 
ATOM     20  H   UNL     1       1.590  11.164  18.685  0.00  0.00    +0.000 HD
BRANCH  19  21
ATOM     21  C   UNL     1      -0.030  12.169  19.466  0.00  0.00    +0.000 A 
ATOM     22  C   UNL     1      -0.121  13.455  18.937  0.00  0.00    +0.000 A 
ATOM     23  C   UNL     1      -0.685  14.489  19.690  0.00  0.00    +0.000 A 
ATOM     24  C   UNL     1      -1.143  14.249  20.985  0.00  0.00    +0.000 A 
ATOM     25  C   UNL     1      -1.077  12.961  21.530  0.00  0.00    +0.000 A 
ATOM     26  C   UNL     1      -0.551  11.920  20.745  0.00  0.00    +0.000 A 
BRANCH  25  27
ATOM     27  C   UNL     1      -1.521  12.690  22.946  0.00  0.00    +0.000 C 
ATOM     28  F   UNL     1      -2.873  12.670  23.102  0.00  0.00    +0.000 F 
ATOM     29  F   UNL     1      -1.071  11.495  23.418  0.00  0.00    +0.000 F 
ATOM     30  F   UNL     1      -1.061  13.631  23.819  0.00  0.00    +0.000 F 
ENDBRANCH  25  27
ENDBRANCH  19  21
ENDBRANCH  16  17
ENDBRANCH  15  16
ENDBRANCH   4  15
BRANCH   4  31
ATOM     31  C   UNL     1       1.999   7.497  20.535  0.00  0.00    +0.000 C 
BRANCH  31  32
ATOM     32  C   UNL     1       1.083   8.593  21.124  0.00  0.00    +0.000 C 
ATOM     33  C   UNL     1      -0.326   8.085  21.434  0.00  0.00    +0.000 C 
ATOM     34  C   UNL     1       1.697   9.161  22.410  0.00  0.00    +0.000 C 
ENDBRANCH  31  32
ENDBRANCH   4  31
TORSDOF 8
ENDMDL
MODEL 7
REMARK VINA RESULT:      -7.6      2.030      3.692
REMARK  Name = 
REMARK  11 active torsions:
REMARK  status: ('A' for Active; 'I' for Inactive)
REMARK    1  A    between atoms: C_1  and  C_2
REMARK    2  A    between atoms: C_2  and  C_3
REMARK    3  A    between atoms: N_6  and  C_7
REMARK    4  A    between atoms: N_6  and  C_22
REMARK    5  A    between atoms: C_7  and  C_8
REMARK    6  A    between atoms: C_8  and  C_9
REMARK    7  A    between atoms: N_11  and  C_12
REMARK    8  A    between atoms: C_16  and  C_17
REMARK    9  A    between atoms: C_22  and  C_23
REMARK   10  A    between atoms: C_23  and  C_24
REMARK   11  A    between atoms: C_23  and  C_25
REMARK                            x       y       z     vdW  Elec       q    Type
REMARK                         _______ _______ _______ _____ _____    ______ ____
ROOT
ATOM      1  C   UNL     1       0.393  14.010  19.392  0.00  0.00    +0.000 A 
ATOM      2  N   UNL     1       0.312  13.399  20.583  0.00  0.00    +0.000 NA
ATOM      3  C   UNL     1      -0.347  12.217  20.673  0.00  0.00    +0.000 A 
ATOM      4  N   UNL     1      -0.448  11.735  21.980  0.00  0.00    +0.000 N 
ATOM      5  C   UNL     1      -0.907  11.619  19.505  0.00  0.00    +0.000 A 
ATOM      6  C   UNL     1      -1.558  10.356  19.363  0.00  0.00    +0.000 A 
ATOM      7  C   UNL     1      -2.205   9.973  18.185  0.00  0.00    +0.000 A 
ATOM      8  C   UNL     1      -2.187  10.830  17.102  0.00  0.00    +0.000 A 
ATOM      9 CL   UNL     1      -3.047  10.426  15.670  0.00  0.00    +0.000 Cl
ATOM     10  C   UNL     1      -1.473  12.019  17.176  0.00  0.00    +0.000 A 
ATOM     11  C   UNL     1      -0.833  12.411  18.343  0.00  0.00    +0.000 A 
ATOM     12  N   UNL     1      -0.186  13.568  18.275  0.00  0.00    +0.000 NA
ENDROOT
BRANCH   1  14
ATOM     13  C   UNL     1       0.918  16.238  20.382  0.00  0.00    +0.000 C 
ATOM     14  C   UNL     1       1.232  15.252  19.267  0.00  0.00    +0.000 C 
ENDBRANCH   1  14
BRANCH   4  15
ATOM     15  C   UNL     1      -0.478  10.319  22.366  0.00  0.00    +0.000 C 
BRANCH  15  16
ATOM     16  C   UNL     1       0.847   9.643  22.042  0.00  0.00    +0.000 C 
BRANCH  16  17
ATOM     17  C   UNL     1       0.692   8.321  21.311  0.00  0.00    +0.000 C 
ATOM     18  O   UNL     1      -0.357   7.698  21.288  0.00  0.00    +0.000 OA
ATOM     19  N   UNL     1       1.894   7.964  20.707  0.00  0.00    +0.000 N 
ATOM     20  H   UNL     1       2.685   8.563  20.911  0.00  0.00    +0.000 HD
BRANCH  19  21
ATOM     21  C   UNL     1       2.187   6.786  19.996  0.00  0.00    +0.000 A 
ATOM     22  C   UNL     1       2.461   6.750  18.630  0.00  0.00    +0.000 A 
ATOM     23  C   UNL     1       2.668   5.528  17.985  0.00  0.00    +0.000 A 
ATOM     24  C   UNL     1       2.582   4.331  18.695  0.00  0.00    +0.000 A 
ATOM     25  C   UNL     1       2.324   4.345  20.072  0.00  0.00    +0.000 A 
ATOM     26  C   UNL     1       2.166   5.584  20.718  0.00  0.00    +0.000 A 
BRANCH  25  27
ATOM     27  C   UNL     1       2.178   3.061  20.851  0.00  0.00    +0.000 C 
ATOM     28  F   UNL     1       3.351   2.397  21.038  0.00  0.00    +0.000 F 
ATOM     29  F   UNL     1       1.655   3.257  22.092  0.00  0.00    +0.000 F 
ATOM     30  F   UNL     1       1.346   2.176  20.232  0.00  0.00    +0.000 F 
ENDBRANCH  25  27
ENDBRANCH  19  21
ENDBRANCH  16  17
ENDBRANCH  15  16
ENDBRANCH   4  15
BRANCH   4  31
ATOM     31  C   UNL     1      -1.141  12.673  22.894  0.00  0.00    +0.000 C 
BRANCH  31  32
ATOM     32  C   UNL     1      -2.661  12.764  22.629  0.00  0.00    +0.000 C 
ATOM     33  C   UNL     1      -3.499  12.334  23.833  0.00  0.00    +0.000 C 
ATOM     34  C   UNL     1      -3.046  14.199  22.246  0.00  0.00    +0.000 C 
ENDBRANCH  31  32
ENDBRANCH   4  31
TORSDOF 8
ENDMDL
MODEL 8
REMARK VINA RESULT:      -7.5      2.041      2.554
REMARK  Name = 
REMARK  11 active torsions:
REMARK  status: ('A' for Active; 'I' for Inactive)
REMARK    1  A    between atoms: C_1  and  C_2
REMARK    2  A    between atoms: C_2  and  C_3
REMARK    3  A    between atoms: N_6  and  C_7
REMARK    4  A    between atoms: N_6  and  C_22
REMARK    5  A    between atoms: C_7  and  C_8
REMARK    6  A    between atoms: C_8  and  C_9
REMARK    7  A    between atoms: N_11  and  C_12
REMARK    8  A    between atoms: C_16  and  C_17
REMARK    9  A    between atoms: C_22  and  C_23
REMARK   10  A    between atoms: C_23  and  C_24
REMARK   11  A    between atoms: C_23  and  C_25
REMARK                            x       y       z     vdW  Elec       q    Type
REMARK                         _______ _______ _______ _____ _____    ______ ____
ROOT
ATOM      1  C   UNL     1      -2.848  10.530  16.517  0.00  0.00    +0.000 A 
ATOM      2  N   UNL     1      -1.869  10.604  17.430  0.00  0.00    +0.000 NA
ATOM      3  C   UNL     1      -2.110  11.236  18.605  0.00  0.00    +0.000 A 
ATOM      4  N   UNL     1      -0.985  11.334  19.426  0.00  0.00    +0.000 N 
ATOM      5  C   UNL     1      -3.404  11.775  18.876  0.00  0.00    +0.000 A 
ATOM      6  C   UNL     1      -3.891  12.397  20.066  0.00  0.00    +0.000 A 
ATOM      7  C   UNL     1      -5.137  13.027  20.128  0.00  0.00    +0.000 A 
ATOM      8  C   UNL     1      -5.946  13.021  19.009  0.00  0.00    +0.000 A 
ATOM      9 CL   UNL     1      -7.444  13.864  19.027  0.00  0.00    +0.000 Cl
ATOM     10  C   UNL     1      -5.544  12.336  17.870  0.00  0.00    +0.000 A 
ATOM     11  C   UNL     1      -4.307  11.713  17.796  0.00  0.00    +0.000 A 
ATOM     12  N   UNL     1      -4.051  11.091  16.652  0.00  0.00    +0.000 NA
ENDROOT
BRANCH   1  14
ATOM     13  C   UNL     1      -3.617  10.096  14.186  0.00  0.00    +0.000 C 
ATOM     14  C   UNL     1      -2.622   9.719  15.272  0.00  0.00    +0.000 C 
ENDBRANCH   1  14
BRANCH   4  15
ATOM     15  C   UNL     1      -0.997  11.335  20.894  0.00  0.00    +0.000 C 
BRANCH  15  16
ATOM     16  C   UNL     1       0.243  10.642  21.445  0.00  0.00    +0.000 C 
BRANCH  16  17
ATOM     17  C   UNL     1       0.263   9.144  21.196  0.00  0.00    +0.000 C 
ATOM     18  O   UNL     1      -0.611   8.396  21.599  0.00  0.00    +0.000 OA
ATOM     19  N   UNL     1       1.397   8.796  20.468  0.00  0.00    +0.000 N 
ATOM     20  H   UNL     1       2.059   9.544  20.298  0.00  0.00    +0.000 HD
BRANCH  19  21
ATOM     21  C   UNL     1       1.819   7.508  20.092  0.00  0.00    +0.000 A 
ATOM     22  C   UNL     1       1.470   6.344  20.776  0.00  0.00    +0.000 A 
ATOM     23  C   UNL     1       1.994   5.111  20.381  0.00  0.00    +0.000 A 
ATOM     24  C   UNL     1       2.886   5.033  19.312  0.00  0.00    +0.000 A 
ATOM     25  C   UNL     1       3.237   6.186  18.600  0.00  0.00    +0.000 A 
ATOM     26  C   UNL     1       2.666   7.415  18.978  0.00  0.00    +0.000 A 
BRANCH  25  27
ATOM     27  C   UNL     1       4.238   6.133  17.472  0.00  0.00    +0.000 C 
ATOM     28  F   UNL     1       5.534   6.176  17.888  0.00  0.00    +0.000 F 
ATOM     29  F   UNL     1       4.123   5.004  16.721  0.00  0.00    +0.000 F 
ATOM     30  F   UNL     1       4.093   7.173  16.604  0.00  0.00    +0.000 F 
ENDBRANCH  25  27
ENDBRANCH  19  21
ENDBRANCH  16  17
ENDBRANCH  15  16
ENDBRANCH   4  15
BRANCH   4  31
ATOM     31  C   UNL     1       0.141  12.054  18.786  0.00  0.00    +0.000 C 
BRANCH  31  32
ATOM     32  C   UNL     1       0.446  13.415  19.452  0.00  0.00    +0.000 C 
ATOM     33  C   UNL     1       1.937  13.753  19.454  0.00  0.00    +0.000 C 
ATOM     34  C   UNL     1      -0.315  14.538  18.734  0.00  0.00    +0.000 C 
ENDBRANCH  31  32
ENDBRANCH   4  31
TORSDOF 8
ENDMDL
MODEL 9
REMARK VINA RESULT:      -7.5      1.641      2.110
REMARK  Name = 
REMARK  11 active torsions:
REMARK  status: ('A' for Active; 'I' for Inactive)
REMARK    1  A    between atoms: C_1  and  C_2
REMARK    2  A    between atoms: C_2  and  C_3
REMARK    3  A    between atoms: N_6  and  C_7
REMARK    4  A    between atoms: N_6  and  C_22
REMARK    5  A    between atoms: C_7  and  C_8
REMARK    6  A    between atoms: C_8  and  C_9
REMARK    7  A    between atoms: N_11  and  C_12
REMARK    8  A    between atoms: C_16  and  C_17
REMARK    9  A    between atoms: C_22  and  C_23
REMARK   10  A    between atoms: C_23  and  C_24
REMARK   11  A    between atoms: C_23  and  C_25
REMARK                            x       y       z     vdW  Elec       q    Type
REMARK                         _______ _______ _______ _____ _____    ______ ____
ROOT
ATOM      1  C   UNL     1      -2.303  10.673  17.723  0.00  0.00    +0.000 A 
ATOM      2  N   UNL     1      -1.188  10.456  18.437  0.00  0.00    +0.000 NA
ATOM      3  C   UNL     1      -1.071  11.023  19.663  0.00  0.00    +0.000 A 
ATOM      4  N   UNL     1       0.174  10.806  20.259  0.00  0.00    +0.000 N 
ATOM      5  C   UNL     1      -2.141  11.801  20.198  0.00  0.00    +0.000 A 
ATOM      6  C   UNL     1      -2.258  12.409  21.485  0.00  0.00    +0.000 A 
ATOM      7  C   UNL     1      -3.298  13.284  21.810  0.00  0.00    +0.000 A 
ATOM      8  C   UNL     1      -4.270  13.548  20.866  0.00  0.00    +0.000 A 
ATOM      9 CL   UNL     1      -5.511  14.688  21.205  0.00  0.00    +0.000 Cl
ATOM     10  C   UNL     1      -4.239  12.893  19.642  0.00  0.00    +0.000 A 
ATOM     11  C   UNL     1      -3.208  12.027  19.307  0.00  0.00    +0.000 A 
ATOM     12  N   UNL     1      -3.304  11.466  18.108  0.00  0.00    +0.000 NA
ENDROOT
BRANCH   1  14
ATOM     13  C   UNL     1      -3.064  10.861  15.357  0.00  0.00    +0.000 C 
ATOM     14  C   UNL     1      -2.487   9.942  16.423  0.00  0.00    +0.000 C 
ENDBRANCH   1  14
BRANCH   4  15
ATOM     15  C   UNL     1       0.418  10.683  21.702  0.00  0.00    +0.000 C 
BRANCH  15  16
ATOM     16  C   UNL     1       1.355   9.518  21.993  0.00  0.00    +0.000 C 
BRANCH  16  17
ATOM     17  C   UNL     1       0.914   8.210  21.360  0.00  0.00    +0.000 C 
ATOM     18  O   UNL     1      -0.244   7.826  21.377  0.00  0.00    +0.000 OA
ATOM     19  N   UNL     1       2.006   7.561  20.793  0.00  0.00    +0.000 N 
ATOM     20  H   UNL     1       2.909   7.990  20.957  0.00  0.00    +0.000 HD
BRANCH  19  21
ATOM     21  C   UNL     1       2.032   6.299  20.172  0.00  0.00    +0.000 A 
ATOM     22  C   UNL     1       1.306   5.196  20.620  0.00  0.00    +0.000 A 
ATOM     23  C   UNL     1       1.447   3.957  19.990  0.00  0.00    +0.000 A 
ATOM     24  C   UNL     1       2.329   3.805  18.921  0.00  0.00    +0.000 A 
ATOM     25  C   UNL     1       3.055   4.903  18.444  0.00  0.00    +0.000 A 
ATOM     26  C   UNL     1       2.869   6.155  19.055  0.00  0.00    +0.000 A 
BRANCH  25  27
ATOM     27  C   UNL     1       4.051   4.750  17.320  0.00  0.00    +0.000 C 
ATOM     28  F   UNL     1       4.233   5.886  16.591  0.00  0.00    +0.000 F 
ATOM     29  F   UNL     1       5.286   4.385  17.761  0.00  0.00    +0.000 F 
ATOM     30  F   UNL     1       3.677   3.792  16.427  0.00  0.00    +0.000 F 
ENDBRANCH  25  27
ENDBRANCH  19  21
ENDBRANCH  16  17
ENDBRANCH  15  16
ENDBRANCH   4  15
BRANCH   4  31
ATOM     31  C   UNL     1       1.304  11.320  19.450  0.00  0.00    +0.000 C 
BRANCH  31  32
ATOM     32  C   UNL     1       1.284  12.856  19.291  0.00  0.00    +0.000 C 
ATOM     33  C   UNL     1       1.779  13.588  20.539  0.00  0.00    +0.000 C 
ATOM     34  C   UNL     1       2.150  13.275  18.095  0.00  0.00    +0.000 C 
ENDBRANCH  31  32
ENDBRANCH   4  31
TORSDOF 8
ENDMDL
