MODEL 1
REMARK VINA RESULT:      -9.4      0.000      0.000
REMARK  Name = 
REMARK  4 active torsions:
REMARK  status: ('A' for Active; 'I' for Inactive)
REMARK    1  A    between atoms: C_1  and  C_2
REMARK    2  A    between atoms: N_4  and  C_5
REMARK    3  A    between atoms: N_10  and  C_11
REMARK    4  A    between atoms: C_11  and  C_12
REMARK                            x       y       z     vdW  Elec       q    Type
REMARK                         _______ _______ _______ _____ _____    ______ ____
ROOT
ATOM      1  C   UNL     1      -0.183  14.574  18.827  0.00  0.00    +0.000 C 
ATOM      2  C   UNL     1      -0.441  13.056  18.797  0.00  0.00    +0.000 C 
ATOM      3  C   UNL     1       0.703  12.338  19.579  0.00  0.00    +0.000 C 
ATOM      4  C   UNL     1       1.391  11.308  18.659  0.00  0.00    +0.000 C 
ATOM      5  C   UNL     1       0.544  10.050  18.509  0.00  0.00    +0.000 C 
ATOM      6  N   UNL     1       0.225   9.443  19.809  0.00  0.00    +0.000 NA
ATOM      7  C   UNL     1      -0.568  10.376  20.614  0.00  0.00    +0.000 C 
ATOM      8  C   UNL     1       0.163  11.695  20.876  0.00  0.00    +0.000 C 
ATOM      9  C   UNL     1       1.659  13.464  19.888  0.00  0.00    +0.000 A 
ATOM     10  C   UNL     1       2.883  13.388  20.547  0.00  0.00    +0.000 A 
ATOM     11  C   UNL     1       3.624  14.556  20.733  0.00  0.00    +0.000 A 
ATOM     12  C   UNL     1       3.145  15.782  20.258  0.00  0.00    +0.000 A 
ATOM     13  C   UNL     1       1.917  15.853  19.600  0.00  0.00    +0.000 A 
ATOM     14  C   UNL     1       1.181  14.687  19.429  0.00  0.00    +0.000 A 
ENDROOT
BRANCH   1  18
ATOM     15  C   UNL     1      -2.532  17.091  20.356  0.00  0.00    +0.000 C 
ATOM     16  C   UNL     1      -1.535  16.555  19.368  0.00  0.00    +0.000 C 
ATOM     17  O   UNL     1      -1.120  17.207  18.417  0.00  0.00    +0.000 OA
ATOM     18  N   UNL     1      -1.141  15.272  19.650  0.00  0.00    +0.000 N 
ATOM     19  H   UNL     1      -1.570  14.769  20.416  0.00  0.00    +0.000 HD
ENDBRANCH   1  18
BRANCH   6  20
ATOM     20  C   UNL     1       1.417   8.972  20.547  0.00  0.00    +0.000 C 
BRANCH  20  21
ATOM     21  C   UNL     1       1.821   7.581  20.136  0.00  0.00    +0.000 A 
ATOM     22  C   UNL     1       1.341   6.431  20.770  0.00  0.00    +0.000 A 
ATOM     23  C   UNL     1       1.783   5.155  20.392  0.00  0.00    +0.000 A 
ATOM     24  C   UNL     1       2.716   5.066  19.343  0.00  0.00    +0.000 A 
ATOM     25  C   UNL     1       3.199   6.204  18.705  0.00  0.00    +0.000 A 
ATOM     26  C   UNL     1       2.752   7.465  19.103  0.00  0.00    +0.000 A 
ATOM     27  C   UNL     1       4.075   5.801  17.676  0.00  0.00    +0.000 A 
ATOM     28  C   UNL     1       4.896   6.522  16.792  0.00  0.00    +0.000 A 
ATOM     29  C   UNL     1       5.461   5.860  15.706  0.00  0.00    +0.000 A 
ATOM     30  C   UNL     1       5.203   4.506  15.504  0.00  0.00    +0.000 A 
ATOM     31  C   UNL     1       4.466   3.753  16.428  0.00  0.00    +0.000 A 
ATOM     32  C   UNL     1       3.931   4.423  17.542  0.00  0.00    +0.000 A 
ATOM     33  N   UNL     1       3.315   3.969  18.708  0.00  0.00    +0.000 N 
ATOM     34  C   UNL     1       3.368   2.653  19.197  0.00  0.00    +0.000 C 
ATOM     35  N   UNL     1       3.640   2.610  20.532  0.00  0.00    +0.000 N 
ATOM     36  O   UNL     1       3.318   1.684  18.450  0.00  0.00    +0.000 OA
ATOM     37  H   UNL     1       4.072   3.417  20.980  0.00  0.00    +0.000 HD
ATOM     38  H   UNL     1       3.927   1.707  20.896  0.00  0.00    +0.000 HD
ENDBRANCH  20  21
ENDBRANCH   6  20
TORSDOF 3
ENDMDL
MODEL 2
REMARK VINA RESULT:      -9.4      2.535      4.525
REMARK  Name = 
REMARK  4 active torsions:
REMARK  status: ('A' for Active; 'I' for Inactive)
REMARK    1  A    between atoms: C_1  and  C_2
REMARK    2  A    between atoms: N_4  and  C_5
REMARK    3  A    between atoms: N_10  and  C_11
REMARK    4  A    between atoms: C_11  and  C_12
REMARK                            x       y       z     vdW  Elec       q    Type
REMARK                         _______ _______ _______ _____ _____    ______ ____
ROOT
ATOM      1  C   UNL     1      -3.294  12.895  20.574  0.00  0.00    +0.000 C 
ATOM      2  C   UNL     1      -1.888  12.274  20.678  0.00  0.00    +0.000 C 
ATOM      3  C   UNL     1      -1.606  11.455  19.380  0.00  0.00    +0.000 C 
ATOM      4  C   UNL     1      -1.273   9.995  19.751  0.00  0.00    +0.000 C 
ATOM      5  C   UNL     1       0.151   9.872  20.281  0.00  0.00    +0.000 C 
ATOM      6  N   UNL     1       1.140  10.396  19.327  0.00  0.00    +0.000 NA
ATOM      7  C   UNL     1       0.909  11.825  19.105  0.00  0.00    +0.000 C 
ATOM      8  C   UNL     1      -0.486  12.116  18.546  0.00  0.00    +0.000 C 
ATOM      9  C   UNL     1      -2.927  11.506  18.653  0.00  0.00    +0.000 A 
ATOM     10  C   UNL     1      -3.259  10.907  17.441  0.00  0.00    +0.000 A 
ATOM     11  C   UNL     1      -4.549  11.076  16.935  0.00  0.00    +0.000 A 
ATOM     12  C   UNL     1      -5.493  11.830  17.639  0.00  0.00    +0.000 A 
ATOM     13  C   UNL     1      -5.155  12.431  18.852  0.00  0.00    +0.000 A 
ATOM     14  C   UNL     1      -3.866  12.268  19.343  0.00  0.00    +0.000 A 
ENDROOT
BRANCH   1  18
ATOM     15  C   UNL     1      -3.266  16.626  21.095  0.00  0.00    +0.000 C 
ATOM     16  C   UNL     1      -3.332  15.177  21.488  0.00  0.00    +0.000 C 
ATOM     17  O   UNL     1      -3.457  14.805  22.648  0.00  0.00    +0.000 OA
ATOM     18  N   UNL     1      -3.245  14.329  20.414  0.00  0.00    +0.000 N 
ATOM     19  H   UNL     1      -3.080  14.701  19.488  0.00  0.00    +0.000 HD
ENDBRANCH   1  18
BRANCH   6  20
ATOM     20  C   UNL     1       1.179   9.650  18.051  0.00  0.00    +0.000 C 
BRANCH  20  21
ATOM     21  C   UNL     1       2.085   8.450  18.127  0.00  0.00    +0.000 A 
ATOM     22  C   UNL     1       3.321   8.388  17.475  0.00  0.00    +0.000 A 
ATOM     23  C   UNL     1       4.111   7.231  17.527  0.00  0.00    +0.000 A 
ATOM     24  C   UNL     1       3.629   6.136  18.269  0.00  0.00    +0.000 A 
ATOM     25  C   UNL     1       2.401   6.189  18.921  0.00  0.00    +0.000 A 
ATOM     26  C   UNL     1       1.626   7.348  18.849  0.00  0.00    +0.000 A 
ATOM     27  C   UNL     1       2.209   4.974  19.610  0.00  0.00    +0.000 A 
ATOM     28  C   UNL     1       1.128   4.460  20.346  0.00  0.00    +0.000 A 
ATOM     29  C   UNL     1       1.325   3.329  21.132  0.00  0.00    +0.000 A 
ATOM     30  C   UNL     1       2.580   2.729  21.189  0.00  0.00    +0.000 A 
ATOM     31  C   UNL     1       3.642   3.172  20.388  0.00  0.00    +0.000 A 
ATOM     32  C   UNL     1       3.422   4.292  19.569  0.00  0.00    +0.000 A 
ATOM     33  N   UNL     1       4.176   4.877  18.551  0.00  0.00    +0.000 N 
ATOM     34  C   UNL     1       5.243   4.264  17.873  0.00  0.00    +0.000 C 
ATOM     35  N   UNL     1       5.159   4.431  16.522  0.00  0.00    +0.000 N 
ATOM     36  O   UNL     1       6.050   3.548  18.452  0.00  0.00    +0.000 OA
ATOM     37  H   UNL     1       4.261   4.670  16.103  0.00  0.00    +0.000 HD
ATOM     38  H   UNL     1       5.749   3.823  15.963  0.00  0.00    +0.000 HD
ENDBRANCH  20  21
ENDBRANCH   6  20
TORSDOF 3
ENDMDL
MODEL 3
REMARK VINA RESULT:      -9.1      1.565      1.833
REMARK  Name = 
REMARK  4 active torsions:
REMARK  status: ('A' for Active; 'I' for Inactive)
REMARK    1  A    between atoms: C_1  and  C_2
REMARK    2  A    between atoms: N_4  and  C_5
REMARK    3  A    between atoms: N_10  and  C_11
REMARK    4  A    between atoms: C_11  and  C_12
REMARK                            x       y       z     vdW  Elec       q    Type
REMARK                         _______ _______ _______ _____ _____    ______ ____
ROOT
ATOM      1  C   UNL     1      -2.155  13.672  20.085  0.00  0.00    +0.000 C 
ATOM      2  C   UNL     1      -1.993  12.154  20.290  0.00  0.00    +0.000 C 
ATOM      3  C   UNL     1      -0.475  11.799  20.218  0.00  0.00    +0.000 C 
ATOM      4  C   UNL     1      -0.242  10.744  19.117  0.00  0.00    +0.000 C 
ATOM      5  C   UNL     1      -0.665   9.357  19.585  0.00  0.00    +0.000 C 
ATOM      6  N   UNL     1       0.018   8.962  20.825  0.00  0.00    +0.000 NA
ATOM      7  C   UNL     1      -0.339   9.884  21.906  0.00  0.00    +0.000 C 
ATOM      8  C   UNL     1       0.047  11.332  21.595  0.00  0.00    +0.000 C 
ATOM      9  C   UNL     1       0.160  13.107  19.813  0.00  0.00    +0.000 A 
ATOM     10  C   UNL     1       1.505  13.364  19.566  0.00  0.00    +0.000 A 
ATOM     11  C   UNL     1       1.891  14.653  19.196  0.00  0.00    +0.000 A 
ATOM     12  C   UNL     1       0.937  15.669  19.070  0.00  0.00    +0.000 A 
ATOM     13  C   UNL     1      -0.410  15.407  19.320  0.00  0.00    +0.000 A 
ATOM     14  C   UNL     1      -0.784  14.124  19.699  0.00  0.00    +0.000 A 
ENDROOT
BRANCH   1  18
ATOM     15  C   UNL     1      -4.089  15.124  22.974  0.00  0.00    +0.000 C 
ATOM     16  C   UNL     1      -3.881  14.366  21.693  0.00  0.00    +0.000 C 
ATOM     17  O   UNL     1      -4.795  13.835  21.075  0.00  0.00    +0.000 OA
ATOM     18  N   UNL     1      -2.569  14.343  21.294  0.00  0.00    +0.000 N 
ATOM     19  H   UNL     1      -1.855  14.750  21.883  0.00  0.00    +0.000 HD
ENDBRANCH   1  18
BRANCH   6  20
ATOM     20  C   UNL     1       1.485   8.845  20.678  0.00  0.00    +0.000 C 
BRANCH  20  21
ATOM     21  C   UNL     1       1.897   7.473  20.214  0.00  0.00    +0.000 A 
ATOM     22  C   UNL     1       1.453   6.298  20.829  0.00  0.00    +0.000 A 
ATOM     23  C   UNL     1       1.902   5.041  20.401  0.00  0.00    +0.000 A 
ATOM     24  C   UNL     1       2.806   4.996  19.323  0.00  0.00    +0.000 A 
ATOM     25  C   UNL     1       3.253   6.159  18.705  0.00  0.00    +0.000 A 
ATOM     26  C   UNL     1       2.799   7.401  19.152  0.00  0.00    +0.000 A 
ATOM     27  C   UNL     1       4.104   5.800  17.640  0.00  0.00    +0.000 A 
ATOM     28  C   UNL     1       4.888   6.559  16.753  0.00  0.00    +0.000 A 
ATOM     29  C   UNL     1       5.430   5.938  15.633  0.00  0.00    +0.000 A 
ATOM     30  C   UNL     1       5.187   4.587  15.399  0.00  0.00    +0.000 A 
ATOM     31  C   UNL     1       4.488   3.796  16.322  0.00  0.00    +0.000 A 
ATOM     32  C   UNL     1       3.977   4.425  17.469  0.00  0.00    +0.000 A 
ATOM     33  N   UNL     1       3.402   3.928  18.639  0.00  0.00    +0.000 N 
ATOM     34  C   UNL     1       3.489   2.599  19.087  0.00  0.00    +0.000 C 
ATOM     35  N   UNL     1       3.801   2.522  20.413  0.00  0.00    +0.000 N 
ATOM     36  O   UNL     1       3.431   1.652  18.315  0.00  0.00    +0.000 OA
ATOM     37  H   UNL     1       4.234   3.322  20.871  0.00  0.00    +0.000 HD
ATOM     38  H   UNL     1       4.112   1.614  20.742  0.00  0.00    +0.000 HD
ENDBRANCH  20  21
ENDBRANCH   6  20
TORSDOF 3
ENDMDL
MODEL 4
REMARK VINA RESULT:      -8.9      2.492      4.298
REMARK  Name = 
REMARK  4 active torsions:
REMARK  status: ('A' for Active; 'I' for Inactive)
REMARK    1  A    between atoms: C_1  and  C_2
REMARK    2  A    between atoms: N_4  and  C_5
REMARK    3  A    between atoms: N_10  and  C_11
REMARK    4  A    between atoms: C_11  and  C_12
REMARK                            x       y       z     vdW  Elec       q    Type
REMARK                         _______ _______ _______ _____ _____    ______ ____
ROOT
ATOM      1  C   UNL     1      -2.654  13.213  20.794  0.00  0.00    +0.000 C 
ATOM      2  C   UNL     1      -1.293  12.494  20.729  0.00  0.00    +0.000 C 
ATOM      3  C   UNL     1      -1.301  11.517  19.512  0.00  0.00    +0.000 C 
ATOM      4  C   UNL     1      -0.996  10.085  19.996  0.00  0.00    +0.000 C 
ATOM      5  C   UNL     1       0.490   9.904  20.283  0.00  0.00    +0.000 C 
ATOM      6  N   UNL     1       1.320  10.237  19.117  0.00  0.00    +0.000 NA
ATOM      7  C   UNL     1       1.141  11.648  18.764  0.00  0.00    +0.000 C 
ATOM      8  C   UNL     1      -0.312  11.989  18.423  0.00  0.00    +0.000 C 
ATOM      9  C   UNL     1      -2.726  11.597  19.023  0.00  0.00    +0.000 A 
ATOM     10  C   UNL     1      -3.308  10.898  17.969  0.00  0.00    +0.000 A 
ATOM     11  C   UNL     1      -4.655  11.115  17.677  0.00  0.00    +0.000 A 
ATOM     12  C   UNL     1      -5.408  12.018  18.435  0.00  0.00    +0.000 A 
ATOM     13  C   UNL     1      -4.820  12.718  19.488  0.00  0.00    +0.000 A 
ATOM     14  C   UNL     1      -3.476  12.504  19.766  0.00  0.00    +0.000 A 
ENDROOT
BRANCH   1  18
ATOM     15  C   UNL     1      -2.307  16.964  20.843  0.00  0.00    +0.000 C 
ATOM     16  C   UNL     1      -2.391  15.578  21.415  0.00  0.00    +0.000 C 
ATOM     17  O   UNL     1      -2.332  15.346  22.617  0.00  0.00    +0.000 OA
ATOM     18  N   UNL     1      -2.546  14.612  20.454  0.00  0.00    +0.000 N 
ATOM     19  H   UNL     1      -2.525  14.866  19.475  0.00  0.00    +0.000 HD
ENDBRANCH   1  18
BRANCH   6  20
ATOM     20  C   UNL     1       1.082   9.356  17.954  0.00  0.00    +0.000 C 
BRANCH  20  21
ATOM     21  C   UNL     1       2.125   8.275  17.843  0.00  0.00    +0.000 A 
ATOM     22  C   UNL     1       3.463   8.540  17.535  0.00  0.00    +0.000 A 
ATOM     23  C   UNL     1       4.393   7.500  17.388  0.00  0.00    +0.000 A 
ATOM     24  C   UNL     1       3.941   6.181  17.573  0.00  0.00    +0.000 A 
ATOM     25  C   UNL     1       2.612   5.908  17.880  0.00  0.00    +0.000 A 
ATOM     26  C   UNL     1       1.701   6.958  18.013  0.00  0.00    +0.000 A 
ATOM     27  C   UNL     1       2.469   4.515  18.049  0.00  0.00    +0.000 A 
ATOM     28  C   UNL     1       1.350   3.696  18.277  0.00  0.00    +0.000 A 
ATOM     29  C   UNL     1       1.550   2.373  18.659  0.00  0.00    +0.000 A 
ATOM     30  C   UNL     1       2.844   1.882  18.819  0.00  0.00    +0.000 A 
ATOM     31  C   UNL     1       3.968   2.658  18.504  0.00  0.00    +0.000 A 
ATOM     32  C   UNL     1       3.754   3.981  18.082  0.00  0.00    +0.000 A 
ATOM     33  N   UNL     1       4.603   4.947  17.541  0.00  0.00    +0.000 N 
ATOM     34  C   UNL     1       5.868   4.696  16.982  0.00  0.00    +0.000 C 
ATOM     35  N   UNL     1       6.040   5.337  15.790  0.00  0.00    +0.000 N 
ATOM     36  O   UNL     1       6.637   3.877  17.466  0.00  0.00    +0.000 OA
ATOM     37  H   UNL     1       5.223   5.649  15.269  0.00  0.00    +0.000 HD
ATOM     38  H   UNL     1       6.819   5.016  15.224  0.00  0.00    +0.000 HD
ENDBRANCH  20  21
ENDBRANCH   6  20
TORSDOF 3
ENDMDL
MODEL 5
REMARK VINA RESULT:      -8.9      2.337      3.302
REMARK  Name = 
REMARK  4 active torsions:
REMARK  status: ('A' for Active; 'I' for Inactive)
REMARK    1  A    between atoms: C_1  and  C_2
REMARK    2  A    between atoms: N_4  and  C_5
REMARK    3  A    between atoms: N_10  and  C_11
REMARK    4  A    between atoms: C_11  and  C_12
REMARK                            x       y       z     vdW  Elec       q    Type
REMARK                         _______ _______ _______ _____ _____    ______ ____
ROOT
ATOM      1  C   UNL     1      -2.678  12.980  19.416  0.00  0.00    +0.000 C 
ATOM      2  C   UNL     1      -1.504  12.239  18.747  0.00  0.00    +0.000 C 
ATOM      3  C   UNL     1      -0.799  11.349  19.818  0.00  0.00    +0.000 C 
ATOM      4  C   UNL     1       0.694  11.728  19.905  0.00  0.00    +0.000 C 
ATOM      5  C   UNL     1       1.479  11.148  18.734  0.00  0.00    +0.000 C 
ATOM      6  N   UNL     1       1.326   9.689  18.637  0.00  0.00    +0.000 NA
ATOM      7  C   UNL     1      -0.078   9.350  18.395  0.00  0.00    +0.000 C 
ATOM      8  C   UNL     1      -1.004   9.849  19.507  0.00  0.00    +0.000 C 
ATOM      9  C   UNL     1      -1.499  11.739  21.096  0.00  0.00    +0.000 A 
ATOM     10  C   UNL     1      -1.246  11.276  22.384  0.00  0.00    +0.000 A 
ATOM     11  C   UNL     1      -2.010  11.769  23.442  0.00  0.00    +0.000 A 
ATOM     12  C   UNL     1      -3.012  12.718  23.211  0.00  0.00    +0.000 A 
ATOM     13  C   UNL     1      -3.263  13.177  21.918  0.00  0.00    +0.000 A 
ATOM     14  C   UNL     1      -2.505  12.673  20.869  0.00  0.00    +0.000 A 
ENDROOT
BRANCH   1  18
ATOM     15  C   UNL     1      -5.498  11.337  17.535  0.00  0.00    +0.000 C 
ATOM     16  C   UNL     1      -4.078  11.732  17.826  0.00  0.00    +0.000 C 
ATOM     17  O   UNL     1      -3.135  11.409  17.114  0.00  0.00    +0.000 OA
ATOM     18  N   UNL     1      -3.958  12.491  18.962  0.00  0.00    +0.000 N 
ATOM     19  H   UNL     1      -4.769  12.670  19.539  0.00  0.00    +0.000 HD
ENDBRANCH   1  18
BRANCH   6  20
ATOM     20  C   UNL     1       1.862   8.962  19.808  0.00  0.00    +0.000 C 
BRANCH  20  21
ATOM     21  C   UNL     1       2.254   7.549  19.463  0.00  0.00    +0.000 A 
ATOM     22  C   UNL     1       1.788   6.437  20.171  0.00  0.00    +0.000 A 
ATOM     23  C   UNL     1       2.218   5.141  19.852  0.00  0.00    +0.000 A 
ATOM     24  C   UNL     1       3.124   4.992  18.786  0.00  0.00    +0.000 A 
ATOM     25  C   UNL     1       3.593   6.092  18.075  0.00  0.00    +0.000 A 
ATOM     26  C   UNL     1       3.158   7.375  18.415  0.00  0.00    +0.000 A 
ATOM     27  C   UNL     1       4.443   5.632  17.049  0.00  0.00    +0.000 A 
ATOM     28  C   UNL     1       5.242   6.301  16.106  0.00  0.00    +0.000 A 
ATOM     29  C   UNL     1       5.778   5.579  15.044  0.00  0.00    +0.000 A 
ATOM     30  C   UNL     1       5.514   4.217  14.923  0.00  0.00    +0.000 A 
ATOM     31  C   UNL     1       4.798   3.518  15.905  0.00  0.00    +0.000 A 
ATOM     32  C   UNL     1       4.293   4.249  16.993  0.00  0.00    +0.000 A 
ATOM     33  N   UNL     1       3.706   3.861  18.198  0.00  0.00    +0.000 N 
ATOM     34  C   UNL     1       3.769   2.573  18.756  0.00  0.00    +0.000 C 
ATOM     35  N   UNL     1       4.075   2.602  20.085  0.00  0.00    +0.000 N 
ATOM     36  O   UNL     1       3.698   1.565  18.064  0.00  0.00    +0.000 OA
ATOM     37  H   UNL     1       4.519   3.431  20.477  0.00  0.00    +0.000 HD
ATOM     38  H   UNL     1       4.369   1.720  20.490  0.00  0.00    +0.000 HD
ENDBRANCH  20  21
ENDBRANCH   6  20
TORSDOF 3
ENDMDL
MODEL 6
REMARK VINA RESULT:      -8.8      2.298      3.685
REMARK  Name = 
REMARK  4 active torsions:
REMARK  status: ('A' for Active; 'I' for Inactive)
REMARK    1  A    between atoms: C_1  and  C_2
REMARK    2  A    between atoms: N_4  and  C_5
REMARK    3  A    between atoms: N_10  and  C_11
REMARK    4  A    between atoms: C_11  and  C_12
REMARK                            x       y       z     vdW  Elec       q    Type
REMARK                         _______ _______ _______ _____ _____    ______ ____
ROOT
ATOM      1  C   UNL     1      -3.066  12.521  20.330  0.00  0.00    +0.000 C 
ATOM      2  C   UNL     1      -1.650  11.958  20.555  0.00  0.00    +0.000 C 
ATOM      3  C   UNL     1      -1.170  11.268  19.239  0.00  0.00    +0.000 C 
ATOM      4  C   UNL     1      -0.803   9.798  19.529  0.00  0.00    +0.000 C 
ATOM      5  C   UNL     1       0.552   9.694  20.218  0.00  0.00    +0.000 C 
ATOM      6  N   UNL     1       1.617  10.343  19.439  0.00  0.00    +0.000 NA
ATOM      7  C   UNL     1       1.335  11.775  19.307  0.00  0.00    +0.000 C 
ATOM      8  C   UNL     1       0.003  12.050  18.606  0.00  0.00    +0.000 C 
ATOM      9  C   UNL     1      -2.396  11.324  18.362  0.00  0.00    +0.000 A 
ATOM     10  C   UNL     1      -2.549  10.818  17.074  0.00  0.00    +0.000 A 
ATOM     11  C   UNL     1      -3.777  10.971  16.429  0.00  0.00    +0.000 A 
ATOM     12  C   UNL     1      -4.839  11.618  17.071  0.00  0.00    +0.000 A 
ATOM     13  C   UNL     1      -4.680  12.126  18.360  0.00  0.00    +0.000 A 
ATOM     14  C   UNL     1      -3.451  11.978  18.991  0.00  0.00    +0.000 A 
ENDROOT
BRANCH   1  18
ATOM     15  C   UNL     1      -3.399  16.188  21.126  0.00  0.00    +0.000 C 
ATOM     16  C   UNL     1      -3.455  14.709  21.383  0.00  0.00    +0.000 C 
ATOM     17  O   UNL     1      -3.807  14.229  22.453  0.00  0.00    +0.000 OA
ATOM     18  N   UNL     1      -3.077  13.964  20.295  0.00  0.00    +0.000 N 
ATOM     19  H   UNL     1      -2.738  14.424  19.461  0.00  0.00    +0.000 HD
ENDBRANCH   1  18
BRANCH   6  20
ATOM     20  C   UNL     1       1.848   9.715  18.121  0.00  0.00    +0.000 C 
BRANCH  20  21
ATOM     21  C   UNL     1       2.294   8.282  18.250  0.00  0.00    +0.000 A 
ATOM     22  C   UNL     1       1.792   7.415  19.226  0.00  0.00    +0.000 A 
ATOM     23  C   UNL     1       2.273   6.103  19.347  0.00  0.00    +0.000 A 
ATOM     24  C   UNL     1       3.268   5.680  18.447  0.00  0.00    +0.000 A 
ATOM     25  C   UNL     1       3.773   6.535  17.473  0.00  0.00    +0.000 A 
ATOM     26  C   UNL     1       3.287   7.841  17.375  0.00  0.00    +0.000 A 
ATOM     27  C   UNL     1       4.715   5.825  16.700  0.00  0.00    +0.000 A 
ATOM     28  C   UNL     1       5.577   6.214  15.661  0.00  0.00    +0.000 A 
ATOM     29  C   UNL     1       6.214   5.231  14.910  0.00  0.00    +0.000 A 
ATOM     30  C   UNL     1       5.987   3.885  15.188  0.00  0.00    +0.000 A 
ATOM     31  C   UNL     1       5.205   3.483  16.280  0.00  0.00    +0.000 A 
ATOM     32  C   UNL     1       4.597   4.485  17.055  0.00  0.00    +0.000 A 
ATOM     33  N   UNL     1       3.918   4.451  18.273  0.00  0.00    +0.000 N 
ATOM     34  C   UNL     1       3.959   3.394  19.199  0.00  0.00    +0.000 C 
ATOM     35  N   UNL     1       4.152   3.835  20.475  0.00  0.00    +0.000 N 
ATOM     36  O   UNL     1       3.966   2.224  18.842  0.00  0.00    +0.000 OA
ATOM     37  H   UNL     1       4.545   4.762  20.629  0.00  0.00    +0.000 HD
ATOM     38  H   UNL     1       4.428   3.129  21.149  0.00  0.00    +0.000 HD
ENDBRANCH  20  21
ENDBRANCH   6  20
TORSDOF 3
ENDMDL
MODEL 7
REMARK VINA RESULT:      -8.8      2.243      3.569
REMARK  Name = 
REMARK  4 active torsions:
REMARK  status: ('A' for Active; 'I' for Inactive)
REMARK    1  A    between atoms: C_1  and  C_2
REMARK    2  A    between atoms: N_4  and  C_5
REMARK    3  A    between atoms: N_10  and  C_11
REMARK    4  A    between atoms: C_11  and  C_12
REMARK                            x       y       z     vdW  Elec       q    Type
REMARK                         _______ _______ _______ _____ _____    ______ ____
ROOT
ATOM      1  C   UNL     1      -2.583  13.804  20.865  0.00  0.00    +0.000 C 
ATOM      2  C   UNL     1      -2.254  12.350  20.477  0.00  0.00    +0.000 C 
ATOM      3  C   UNL     1      -0.897  12.334  19.706  0.00  0.00    +0.000 C 
ATOM      4  C   UNL     1      -1.097  11.687  18.320  0.00  0.00    +0.000 C 
ATOM      5  C   UNL     1      -1.190  10.170  18.428  0.00  0.00    +0.000 C 
ATOM      6  N   UNL     1      -0.015   9.592  19.097  0.00  0.00    +0.000 NA
ATOM      7  C   UNL     1       0.072  10.094  20.470  0.00  0.00    +0.000 C 
ATOM      8  C   UNL     1       0.195  11.619  20.532  0.00  0.00    +0.000 C 
ATOM      9  C   UNL     1      -0.582  13.800  19.543  0.00  0.00    +0.000 A 
ATOM     10  C   UNL     1       0.507  14.373  18.893  0.00  0.00    +0.000 A 
ATOM     11  C   UNL     1       0.614  15.764  18.851  0.00  0.00    +0.000 A 
ATOM     12  C   UNL     1      -0.362  16.568  19.450  0.00  0.00    +0.000 A 
ATOM     13  C   UNL     1      -1.450  15.989  20.103  0.00  0.00    +0.000 A 
ATOM     14  C   UNL     1      -1.543  14.604  20.149  0.00  0.00    +0.000 A 
ENDROOT
BRANCH   1  18
ATOM     15  C   UNL     1      -3.230  14.206  24.555  0.00  0.00    +0.000 C 
ATOM     16  C   UNL     1      -3.565  13.934  23.116  0.00  0.00    +0.000 C 
ATOM     17  O   UNL     1      -4.698  13.667  22.733  0.00  0.00    +0.000 OA
ATOM     18  N   UNL     1      -2.476  14.024  22.288  0.00  0.00    +0.000 N 
ATOM     19  H   UNL     1      -1.557  14.187  22.678  0.00  0.00    +0.000 HD
ENDBRANCH   1  18
BRANCH   6  20
ATOM     20  C   UNL     1       1.248   9.810  18.361  0.00  0.00    +0.000 C 
BRANCH  20  21
ATOM     21  C   UNL     1       2.098   8.568  18.319  0.00  0.00    +0.000 A 
ATOM     22  C   UNL     1       3.260   8.467  17.547  0.00  0.00    +0.000 A 
ATOM     23  C   UNL     1       3.994   7.273  17.494  0.00  0.00    +0.000 A 
ATOM     24  C   UNL     1       3.533   6.182  18.254  0.00  0.00    +0.000 A 
ATOM     25  C   UNL     1       2.379   6.273  19.025  0.00  0.00    +0.000 A 
ATOM     26  C   UNL     1       1.658   7.468  19.057  0.00  0.00    +0.000 A 
ATOM     27  C   UNL     1       2.196   5.049  19.701  0.00  0.00    +0.000 A 
ATOM     28  C   UNL     1       1.168   4.566  20.528  0.00  0.00    +0.000 A 
ATOM     29  C   UNL     1       1.385   3.406  21.265  0.00  0.00    +0.000 A 
ATOM     30  C   UNL     1       2.609   2.747  21.183  0.00  0.00    +0.000 A 
ATOM     31  C   UNL     1       3.608   3.163  20.292  0.00  0.00    +0.000 A 
ATOM     32  C   UNL     1       3.364   4.314  19.525  0.00  0.00    +0.000 A 
ATOM     33  N   UNL     1       4.043   4.892  18.451  0.00  0.00    +0.000 N 
ATOM     34  C   UNL     1       5.008   4.249  17.657  0.00  0.00    +0.000 C 
ATOM     35  N   UNL     1       4.800   4.457  16.325  0.00  0.00    +0.000 N 
ATOM     36  O   UNL     1       5.831   3.480  18.137  0.00  0.00    +0.000 OA
ATOM     37  H   UNL     1       3.879   4.749  16.003  0.00  0.00    +0.000 HD
ATOM     38  H   UNL     1       5.303   3.838  15.698  0.00  0.00    +0.000 HD
ENDBRANCH  20  21
ENDBRANCH   6  20
TORSDOF 3
ENDMDL
MODEL 8
REMARK VINA RESULT:      -8.7      2.614      4.062
REMARK  Name = 
REMARK  4 active torsions:
REMARK  status: ('A' for Active; 'I' for Inactive)
REMARK    1  A    between atoms: C_1  and  C_2
REMARK    2  A    between atoms: N_4  and  C_5
REMARK    3  A    between atoms: N_10  and  C_11
REMARK    4  A    between atoms: C_11  and  C_12
REMARK                            x       y       z     vdW  Elec       q    Type
REMARK                         _______ _______ _______ _____ _____    ______ ____
ROOT
ATOM      1  C   UNL     1      -2.781  13.029  19.687  0.00  0.00    +0.000 C 
ATOM      2  C   UNL     1      -1.663  12.415  18.824  0.00  0.00    +0.000 C 
ATOM      3  C   UNL     1      -0.844  11.416  19.702  0.00  0.00    +0.000 C 
ATOM      4  C   UNL     1       0.643  11.826  19.700  0.00  0.00    +0.000 C 
ATOM      5  C   UNL     1       1.324  11.423  18.398  0.00  0.00    +0.000 C 
ATOM      6  N   UNL     1       1.189   9.984  18.128  0.00  0.00    +0.000 NA
ATOM      7  C   UNL     1      -0.226   9.638  17.972  0.00  0.00    +0.000 C 
ATOM      8  C   UNL     1      -1.052   9.963  19.219  0.00  0.00    +0.000 C 
ATOM      9  C   UNL     1      -1.428  11.620  21.078  0.00  0.00    +0.000 A 
ATOM     10  C   UNL     1      -1.047  11.004  22.267  0.00  0.00    +0.000 A 
ATOM     11  C   UNL     1      -1.717  11.336  23.445  0.00  0.00    +0.000 A 
ATOM     12  C   UNL     1      -2.752  12.277  23.430  0.00  0.00    +0.000 A 
ATOM     13  C   UNL     1      -3.132  12.889  22.236  0.00  0.00    +0.000 A 
ATOM     14  C   UNL     1      -2.467  12.546  21.066  0.00  0.00    +0.000 A 
ENDROOT
BRANCH   1  18
ATOM     15  C   UNL     1      -6.471  12.634  19.038  0.00  0.00    +0.000 C 
ATOM     16  C   UNL     1      -5.219  13.308  19.523  0.00  0.00    +0.000 C 
ATOM     17  O   UNL     1      -5.219  14.403  20.072  0.00  0.00    +0.000 OA
ATOM     18  N   UNL     1      -4.090  12.564  19.292  0.00  0.00    +0.000 N 
ATOM     19  H   UNL     1      -4.153  11.696  18.777  0.00  0.00    +0.000 HD
ENDBRANCH   1  18
BRANCH   6  20
ATOM     20  C   UNL     1       1.846   9.131  19.140  0.00  0.00    +0.000 C 
BRANCH  20  21
ATOM     21  C   UNL     1       2.606   7.993  18.511  0.00  0.00    +0.000 A 
ATOM     22  C   UNL     1       3.750   8.184  17.730  0.00  0.00    +0.000 A 
ATOM     23  C   UNL     1       4.399   7.102  17.117  0.00  0.00    +0.000 A 
ATOM     24  C   UNL     1       3.871   5.815  17.323  0.00  0.00    +0.000 A 
ATOM     25  C   UNL     1       2.733   5.615  18.099  0.00  0.00    +0.000 A 
ATOM     26  C   UNL     1       2.098   6.707  18.693  0.00  0.00    +0.000 A 
ATOM     27  C   UNL     1       2.472   4.231  18.161  0.00  0.00    +0.000 A 
ATOM     28  C   UNL     1       1.421   3.487  18.723  0.00  0.00    +0.000 A 
ATOM     29  C   UNL     1       1.564   2.109  18.851  0.00  0.00    +0.000 A 
ATOM     30  C   UNL     1       2.738   1.488  18.433  0.00  0.00    +0.000 A 
ATOM     31  C   UNL     1       3.755   2.202  17.784  0.00  0.00    +0.000 A 
ATOM     32  C   UNL     1       3.585   3.588  17.626  0.00  0.00    +0.000 A 
ATOM     33  N   UNL     1       4.291   4.547  16.900  0.00  0.00    +0.000 N 
ATOM     34  C   UNL     1       5.201   4.276  15.863  0.00  0.00    +0.000 C 
ATOM     35  N   UNL     1       4.995   5.074  14.776  0.00  0.00    +0.000 N 
ATOM     36  O   UNL     1       5.973   3.328  15.913  0.00  0.00    +0.000 OA
ATOM     37  H   UNL     1       4.094   5.533  14.657  0.00  0.00    +0.000 HD
ATOM     38  H   UNL     1       5.448   4.777  13.918  0.00  0.00    +0.000 HD
ENDBRANCH  20  21
ENDBRANCH   6  20
TORSDOF 3
ENDMDL
MODEL 9
REMARK VINA RESULT:      -8.6      2.637      3.501
REMARK  Name = 
REMARK  4 active torsions:
REMARK  status: ('A' for Active; 'I' for Inactive)
REMARK    1  A    between atoms: C_1  and  C_2
REMARK    2  A    between atoms: N_4  and  C_5
REMARK    3  A    between atoms: N_10  and  C_11
REMARK    4  A    between atoms: C_11  and  C_12
REMARK                            x       y       z     vdW  Elec       q    Type
REMARK                         _______ _______ _______ _____ _____    ______ ____
ROOT
ATOM      1  C   UNL     1      -3.549  12.901  19.713  0.00  0.00    +0.000 C 
ATOM      2  C   UNL     1      -2.329  12.303  18.988  0.00  0.00    +0.000 C 
ATOM      3  C   UNL     1      -1.436  11.566  20.035  0.00  0.00    +0.000 C 
ATOM      4  C   UNL     1      -0.010  12.152  20.004  0.00  0.00    +0.000 C 
ATOM      5  C   UNL     1       0.771  11.638  18.800  0.00  0.00    +0.000 C 
ATOM      6  N   UNL     1       0.821  10.170  18.762  0.00  0.00    +0.000 NA
ATOM      7  C   UNL     1      -0.534   9.629  18.631  0.00  0.00    +0.000 C 
ATOM      8  C   UNL     1      -1.447  10.040  19.789  0.00  0.00    +0.000 C 
ATOM      9  C   UNL     1      -2.099  11.909  21.346  0.00  0.00    +0.000 A 
ATOM     10  C   UNL     1      -1.700  11.540  22.628  0.00  0.00    +0.000 A 
ATOM     11  C   UNL     1      -2.456  11.966  23.720  0.00  0.00    +0.000 A 
ATOM     12  C   UNL     1      -3.595  12.756  23.529  0.00  0.00    +0.000 A 
ATOM     13  C   UNL     1      -3.993  13.121  22.243  0.00  0.00    +0.000 A 
ATOM     14  C   UNL     1      -3.240  12.684  21.160  0.00  0.00    +0.000 A 
ENDROOT
BRANCH   1  18
ATOM     15  C   UNL     1      -7.094  12.002  18.809  0.00  0.00    +0.000 C 
ATOM     16  C   UNL     1      -5.943  12.905  19.150  0.00  0.00    +0.000 C 
ATOM     17  O   UNL     1      -6.049  14.123  19.229  0.00  0.00    +0.000 OA
ATOM     18  N   UNL     1      -4.774  12.220  19.367  0.00  0.00    +0.000 N 
ATOM     19  H   UNL     1      -4.741  11.220  19.225  0.00  0.00    +0.000 HD
ENDBRANCH   1  18
BRANCH   6  20
ATOM     20  C   UNL     1       1.530   9.575  19.915  0.00  0.00    +0.000 C 
BRANCH  20  21
ATOM     21  C   UNL     1       1.890   8.133  19.672  0.00  0.00    +0.000 A 
ATOM     22  C   UNL     1       1.376   7.081  20.438  0.00  0.00    +0.000 A 
ATOM     23  C   UNL     1       1.778   5.757  20.214  0.00  0.00    +0.000 A 
ATOM     24  C   UNL     1       2.706   5.515  19.184  0.00  0.00    +0.000 A 
ATOM     25  C   UNL     1       3.222   6.554  18.417  0.00  0.00    +0.000 A 
ATOM     26  C   UNL     1       2.815   7.867  18.662  0.00  0.00    +0.000 A 
ATOM     27  C   UNL     1       4.084   6.006  17.445  0.00  0.00    +0.000 A 
ATOM     28  C   UNL     1       4.925   6.591  16.482  0.00  0.00    +0.000 A 
ATOM     29  C   UNL     1       5.466   5.789  15.484  0.00  0.00    +0.000 A 
ATOM     30  C   UNL     1       5.167   4.429  15.442  0.00  0.00    +0.000 A 
ATOM     31  C   UNL     1       4.408   3.814  16.449  0.00  0.00    +0.000 A 
ATOM     32  C   UNL     1       3.897   4.627  17.474  0.00  0.00    +0.000 A 
ATOM     33  N   UNL     1       3.269   4.333  18.685  0.00  0.00    +0.000 N 
ATOM     34  C   UNL     1       3.283   3.083  19.326  0.00  0.00    +0.000 C 
ATOM     35  N   UNL     1       3.557   3.190  20.658  0.00  0.00    +0.000 N 
ATOM     36  O   UNL     1       3.201   2.035  18.699  0.00  0.00    +0.000 OA
ATOM     37  H   UNL     1       4.014   4.031  21.007  0.00  0.00    +0.000 HD
ATOM     38  H   UNL     1       3.816   2.328  21.126  0.00  0.00    +0.000 HD
ENDBRANCH  20  21
ENDBRANCH   6  20
TORSDOF 3
ENDMDL
