MODEL 1
REMARK VINA RESULT:      -7.9      0.000      0.000
REMARK  Name = 
REMARK  7 active torsions:
REMARK  status: ('A' for Active; 'I' for Inactive)
REMARK    1  A    between atoms: C_1  and  C_2
REMARK    2  A    between atoms: C_2  and  C_3
REMARK    3  A    between atoms: C_2  and  C_4
REMARK    4  A    between atoms: C_7  and  N_8
REMARK    5  A    between atoms: N_8  and  C_9
REMARK    6  A    between atoms: C_14  and  C_16
REMARK    7  A    between atoms: C_21  and  C_22
REMARK                            x       y       z     vdW  Elec       q    Type
REMARK                         _______ _______ _______ _____ _____    ______ ____
ROOT
ATOM      1  C   UNL     1       0.957  10.693  20.961  0.00  0.00    +0.000 C 
ATOM      2  C   UNL     1       0.710  10.174  22.383  0.00  0.00    +0.000 C 
ATOM      3  C   UNL     1      -0.753  10.236  22.826  0.00  0.00    +0.000 C 
ATOM      4  C   UNL     1      -1.518  11.490  22.402  0.00  0.00    +0.000 C 
ATOM      5  N   UNL     1      -1.190  11.942  21.052  0.00  0.00    +0.000 N 
ATOM      6  C   UNL     1      -2.042  12.548  20.122  0.00  0.00    +0.000 C 
ATOM      7  O   UNL     1      -1.596  13.168  19.156  0.00  0.00    +0.000 OA
ATOM      8  C   UNL     1       0.250  12.049  20.787  0.00  0.00    +0.000 C 
ENDROOT
BRANCH   6   9
ATOM      9  C   UNL     1      -3.524  12.404  20.176  0.00  0.00    +0.000 A 
ATOM     10  C   UNL     1      -4.244  12.903  21.274  0.00  0.00    +0.000 A 
ATOM     11  C   UNL     1      -5.639  12.852  21.298  0.00  0.00    +0.000 A 
ATOM     12  C   UNL     1      -6.336  12.430  20.173  0.00  0.00    +0.000 A 
ATOM     13  C   UNL     1      -5.634  11.984  19.055  0.00  0.00    +0.000 A 
ATOM     14  C   UNL     1      -4.229  11.896  19.056  0.00  0.00    +0.000 A 
BRANCH  14  15
ATOM     15  C   UNL     1      -3.623  11.181  17.923  0.00  0.00    +0.000 A 
ATOM     16  N   UNL     1      -3.190   9.929  17.922  0.00  0.00    +0.000 NA
ATOM     17  C   UNL     1      -2.546   9.735  16.726  0.00  0.00    +0.000 A 
ATOM     18  C   UNL     1      -2.544  10.888  15.986  0.00  0.00    +0.000 A 
ATOM     19  N   UNL     1      -3.267  11.781  16.726  0.00  0.00    +0.000 N 
ATOM     20  H   UNL     1      -3.492  12.727  16.452  0.00  0.00    +0.000 HD
ENDBRANCH  14  15
ENDBRANCH   6   9
BRANCH   1  21
ATOM     21  N   UNL     1       0.486   9.720  19.949  0.00  0.00    +0.000 N 
ATOM     22  H   UNL     1      -0.443   9.361  20.139  0.00  0.00    +0.000 HD
BRANCH  21  26
ATOM     23  C   UNL     1       3.243   6.921  18.291  0.00  0.00    +0.000 A 
ATOM     24  C   UNL     1       2.877   8.082  17.597  0.00  0.00    +0.000 A 
ATOM     25  C   UNL     1       1.958   8.996  18.154  0.00  0.00    +0.000 A 
ATOM     26  C   UNL     1       1.350   8.776  19.406  0.00  0.00    +0.000 A 
ATOM     27  C   UNL     1       1.771   7.634  20.098  0.00  0.00    +0.000 A 
ATOM     28  C   UNL     1       2.678   6.715  19.558  0.00  0.00    +0.000 A 
BRANCH  23  30
ATOM     29  C   UNL     1       3.550   4.563  17.429  0.00  0.00    +0.000 C 
ATOM     30  C   UNL     1       4.228   5.910  17.720  0.00  0.00    +0.000 C 
ATOM     31  C   UNL     1       4.900   6.448  16.448  0.00  0.00    +0.000 C 
ENDBRANCH  23  30
ENDBRANCH  21  26
ENDBRANCH   1  21
TORSDOF 5
ENDMDL
MODEL 2
REMARK VINA RESULT:      -7.9      0.533      1.197
REMARK  Name = 
REMARK  7 active torsions:
REMARK  status: ('A' for Active; 'I' for Inactive)
REMARK    1  A    between atoms: C_1  and  C_2
REMARK    2  A    between atoms: C_2  and  C_3
REMARK    3  A    between atoms: C_2  and  C_4
REMARK    4  A    between atoms: C_7  and  N_8
REMARK    5  A    between atoms: N_8  and  C_9
REMARK    6  A    between atoms: C_14  and  C_16
REMARK    7  A    between atoms: C_21  and  C_22
REMARK                            x       y       z     vdW  Elec       q    Type
REMARK                         _______ _______ _______ _____ _____    ______ ____
ROOT
ATOM      1  C   UNL     1       1.048  10.543  21.286  0.00  0.00    +0.000 C 
ATOM      2  C   UNL     1       0.677   9.874  22.615  0.00  0.00    +0.000 C 
ATOM      3  C   UNL     1      -0.803   9.992  22.982  0.00  0.00    +0.000 C 
ATOM      4  C   UNL     1      -1.453  11.343  22.679  0.00  0.00    +0.000 C 
ATOM      5  N   UNL     1      -1.009  11.931  21.417  0.00  0.00    +0.000 N 
ATOM      6  C   UNL     1      -1.757  12.709  20.528  0.00  0.00    +0.000 C 
ATOM      7  O   UNL     1      -1.210  13.407  19.673  0.00  0.00    +0.000 OA
ATOM      8  C   UNL     1       0.448  11.960  21.246  0.00  0.00    +0.000 C 
ENDROOT
BRANCH   6   9
ATOM      9  C   UNL     1      -3.247  12.673  20.482  0.00  0.00    +0.000 A 
ATOM     10  C   UNL     1      -4.000  13.249  21.518  0.00  0.00    +0.000 A 
ATOM     11  C   UNL     1      -5.394  13.298  21.448  0.00  0.00    +0.000 A 
ATOM     12  C   UNL     1      -6.042  12.899  20.286  0.00  0.00    +0.000 A 
ATOM     13  C   UNL     1      -5.302  12.376  19.228  0.00  0.00    +0.000 A 
ATOM     14  C   UNL     1      -3.910  12.188  19.328  0.00  0.00    +0.000 A 
BRANCH  14  15
ATOM     15  C   UNL     1      -3.283  11.404  18.253  0.00  0.00    +0.000 A 
ATOM     16  N   UNL     1      -2.399  10.428  18.402  0.00  0.00    +0.000 NA
ATOM     17  C   UNL     1      -1.954  10.103  17.146  0.00  0.00    +0.000 A 
ATOM     18  C   UNL     1      -2.539  10.907  16.203  0.00  0.00    +0.000 A 
ATOM     19  N   UNL     1      -3.411  11.692  16.903  0.00  0.00    +0.000 N 
ATOM     20  H   UNL     1      -4.036  12.379  16.505  0.00  0.00    +0.000 HD
ENDBRANCH  14  15
ENDBRANCH   6   9
BRANCH   1  21
ATOM     21  N   UNL     1       0.576   9.740  20.134  0.00  0.00    +0.000 N 
ATOM     22  H   UNL     1      -0.376   9.408  20.240  0.00  0.00    +0.000 HD
BRANCH  21  26
ATOM     23  C   UNL     1       3.050   6.858  18.194  0.00  0.00    +0.000 A 
ATOM     24  C   UNL     1       2.608   6.672  19.511  0.00  0.00    +0.000 A 
ATOM     25  C   UNL     1       1.796   7.637  20.143  0.00  0.00    +0.000 A 
ATOM     26  C   UNL     1       1.417   8.832  19.501  0.00  0.00    +0.000 A 
ATOM     27  C   UNL     1       1.832   8.969  18.170  0.00  0.00    +0.000 A 
ATOM     28  C   UNL     1       2.641   8.024  17.530  0.00  0.00    +0.000 A 
BRANCH  23  30
ATOM     29  C   UNL     1       5.350   5.813  18.069  0.00  0.00    +0.000 C 
ATOM     30  C   UNL     1       3.931   5.841  17.481  0.00  0.00    +0.000 C 
ATOM     31  C   UNL     1       3.311   4.438  17.532  0.00  0.00    +0.000 C 
ENDBRANCH  23  30
ENDBRANCH  21  26
ENDBRANCH   1  21
TORSDOF 5
ENDMDL
MODEL 3
REMARK VINA RESULT:      -7.9      5.467      9.081
REMARK  Name = 
REMARK  7 active torsions:
REMARK  status: ('A' for Active; 'I' for Inactive)
REMARK    1  A    between atoms: C_1  and  C_2
REMARK    2  A    between atoms: C_2  and  C_3
REMARK    3  A    between atoms: C_2  and  C_4
REMARK    4  A    between atoms: C_7  and  N_8
REMARK    5  A    between atoms: N_8  and  C_9
REMARK    6  A    between atoms: C_14  and  C_16
REMARK    7  A    between atoms: C_21  and  C_22
REMARK                            x       y       z     vdW  Elec       q    Type
REMARK                         _______ _______ _______ _____ _____    ______ ____
ROOT
ATOM      1  C   UNL     1       7.414   6.254  17.097  0.00  0.00    +0.000 C 
ATOM      2  C   UNL     1       8.002   6.386  18.508  0.00  0.00    +0.000 C 
ATOM      3  C   UNL     1       7.174   5.702  19.596  0.00  0.00    +0.000 C 
ATOM      4  C   UNL     1       5.657   5.845  19.459  0.00  0.00    +0.000 C 
ATOM      5  N   UNL     1       5.187   5.753  18.079  0.00  0.00    +0.000 N 
ATOM      6  C   UNL     1       3.985   5.203  17.620  0.00  0.00    +0.000 C 
ATOM      7  O   UNL     1       3.553   5.459  16.496  0.00  0.00    +0.000 OA
ATOM      8  C   UNL     1       5.917   6.609  17.136  0.00  0.00    +0.000 C 
ENDROOT
BRANCH   6   9
ATOM      9  C   UNL     1       3.206   4.204  18.405  0.00  0.00    +0.000 A 
ATOM     10  C   UNL     1       3.351   2.832  18.146  0.00  0.00    +0.000 A 
ATOM     11  C   UNL     1       2.693   1.881  18.929  0.00  0.00    +0.000 A 
ATOM     12  C   UNL     1       1.994   2.282  20.061  0.00  0.00    +0.000 A 
ATOM     13  C   UNL     1       1.887   3.638  20.362  0.00  0.00    +0.000 A 
ATOM     14  C   UNL     1       2.425   4.623  19.511  0.00  0.00    +0.000 A 
BRANCH  14  15
ATOM     15  C   UNL     1       2.035   6.011  19.800  0.00  0.00    +0.000 A 
ATOM     16  N   UNL     1       2.166   7.051  18.990  0.00  0.00    +0.000 NA
ATOM     17  C   UNL     1       1.845   8.166  19.722  0.00  0.00    +0.000 A 
ATOM     18  C   UNL     1       1.544   7.825  21.015  0.00  0.00    +0.000 A 
ATOM     19  N   UNL     1       1.620   6.461  21.043  0.00  0.00    +0.000 N 
ATOM     20  H   UNL     1       1.420   5.876  21.843  0.00  0.00    +0.000 HD
ENDBRANCH  14  15
ENDBRANCH   6   9
BRANCH   1  21
ATOM     21  N   UNL     1       7.617   4.888  16.560  0.00  0.00    +0.000 N 
ATOM     22  H   UNL     1       8.557   4.536  16.705  0.00  0.00    +0.000 HD
BRANCH  21  26
ATOM     23  C   UNL     1       6.025   3.643  12.805  0.00  0.00    +0.000 A 
ATOM     24  C   UNL     1       7.120   4.514  12.880  0.00  0.00    +0.000 A 
ATOM     25  C   UNL     1       7.632   4.924  14.129  0.00  0.00    +0.000 A 
ATOM     26  C   UNL     1       7.059   4.505  15.346  0.00  0.00    +0.000 A 
ATOM     27  C   UNL     1       5.998   3.597  15.242  0.00  0.00    +0.000 A 
ATOM     28  C   UNL     1       5.475   3.184  14.011  0.00  0.00    +0.000 A 
BRANCH  23  30
ATOM     29  C   UNL     1       5.767   1.706  11.199  0.00  0.00    +0.000 C 
ATOM     30  C   UNL     1       5.443   3.182  11.476  0.00  0.00    +0.000 C 
ATOM     31  C   UNL     1       3.925   3.407  11.427  0.00  0.00    +0.000 C 
ENDBRANCH  23  30
ENDBRANCH  21  26
ENDBRANCH   1  21
TORSDOF 5
ENDMDL
MODEL 4
REMARK VINA RESULT:      -7.5      2.463      8.221
REMARK  Name = 
REMARK  7 active torsions:
REMARK  status: ('A' for Active; 'I' for Inactive)
REMARK    1  A    between atoms: C_1  and  C_2
REMARK    2  A    between atoms: C_2  and  C_3
REMARK    3  A    between atoms: C_2  and  C_4
REMARK    4  A    between atoms: C_7  and  N_8
REMARK    5  A    between atoms: N_8  and  C_9
REMARK    6  A    between atoms: C_14  and  C_16
REMARK    7  A    between atoms: C_21  and  C_22
REMARK                            x       y       z     vdW  Elec       q    Type
REMARK                         _______ _______ _______ _____ _____    ______ ____
ROOT
ATOM      1  C   UNL     1      -1.923  12.358  19.504  0.00  0.00    +0.000 C 
ATOM      2  C   UNL     1      -2.984  11.652  18.650  0.00  0.00    +0.000 C 
ATOM      3  C   UNL     1      -2.569  10.264  18.162  0.00  0.00    +0.000 C 
ATOM      4  C   UNL     1      -1.113  10.131  17.711  0.00  0.00    +0.000 C 
ATOM      5  N   UNL     1      -0.175  10.871  18.551  0.00  0.00    +0.000 N 
ATOM      6  C   UNL     1       1.137  10.518  18.884  0.00  0.00    +0.000 C 
ATOM      7  O   UNL     1       1.930  11.350  19.326  0.00  0.00    +0.000 OA
ATOM      8  C   UNL     1      -0.560  12.266  18.797  0.00  0.00    +0.000 C 
ENDROOT
BRANCH   6   9
ATOM      9  C   UNL     1       1.631   9.113  18.828  0.00  0.00    +0.000 A 
ATOM     10  C   UNL     1       2.240   8.624  17.661  0.00  0.00    +0.000 A 
ATOM     11  C   UNL     1       2.785   7.339  17.622  0.00  0.00    +0.000 A 
ATOM     12  C   UNL     1       2.849   6.579  18.784  0.00  0.00    +0.000 A 
ATOM     13  C   UNL     1       2.297   7.074  19.963  0.00  0.00    +0.000 A 
ATOM     14  C   UNL     1       1.620   8.309  19.995  0.00  0.00    +0.000 A 
BRANCH  14  15
ATOM     15  C   UNL     1       0.870   8.605  21.225  0.00  0.00    +0.000 A 
ATOM     16  N   UNL     1      -0.433   8.448  21.410  0.00  0.00    +0.000 NA
ATOM     17  C   UNL     1      -0.729   9.009  22.626  0.00  0.00    +0.000 A 
ATOM     18  C   UNL     1       0.393   9.554  23.193  0.00  0.00    +0.000 A 
ATOM     19  N   UNL     1       1.405   9.253  22.326  0.00  0.00    +0.000 N 
ATOM     20  H   UNL     1       2.382   9.479  22.459  0.00  0.00    +0.000 HD
ENDBRANCH  14  15
ENDBRANCH   6   9
BRANCH   1  21
ATOM     21  N   UNL     1      -1.853  11.770  20.862  0.00  0.00    +0.000 N 
ATOM     22  H   UNL     1      -2.283  10.854  20.926  0.00  0.00    +0.000 HD
BRANCH  21  26
ATOM     23  C   UNL     1      -2.439  14.297  24.248  0.00  0.00    +0.000 A 
ATOM     24  C   UNL     1      -1.295  14.405  23.446  0.00  0.00    +0.000 A 
ATOM     25  C   UNL     1      -1.110  13.557  22.333  0.00  0.00    +0.000 A 
ATOM     26  C   UNL     1      -2.040  12.556  21.993  0.00  0.00    +0.000 A 
ATOM     27  C   UNL     1      -3.197  12.504  22.781  0.00  0.00    +0.000 A 
ATOM     28  C   UNL     1      -3.394  13.333  23.891  0.00  0.00    +0.000 A 
BRANCH  23  30
ATOM     29  C   UNL     1      -1.346  15.607  26.114  0.00  0.00    +0.000 C 
ATOM     30  C   UNL     1      -2.671  15.190  25.458  0.00  0.00    +0.000 C 
ATOM     31  C   UNL     1      -3.487  16.435  25.081  0.00  0.00    +0.000 C 
ENDBRANCH  23  30
ENDBRANCH  21  26
ENDBRANCH   1  21
TORSDOF 5
ENDMDL
MODEL 5
REMARK VINA RESULT:      -7.3      2.138      3.363
REMARK  Name = 
REMARK  7 active torsions:
REMARK  status: ('A' for Active; 'I' for Inactive)
REMARK    1  A    between atoms: C_1  and  C_2
REMARK    2  A    between atoms: C_2  and  C_3
REMARK    3  A    between atoms: C_2  and  C_4
REMARK    4  A    between atoms: C_7  and  N_8
REMARK    5  A    between atoms: N_8  and  C_9
REMARK    6  A    between atoms: C_14  and  C_16
REMARK    7  A    between atoms: C_21  and  C_22
REMARK                            x       y       z     vdW  Elec       q    Type
REMARK                         _______ _______ _______ _____ _____    ______ ____
ROOT
ATOM      1  C   UNL     1       1.519   8.696  21.733  0.00  0.00    +0.000 C 
ATOM      2  C   UNL     1       0.780   9.124  23.007  0.00  0.00    +0.000 C 
ATOM      3  C   UNL     1      -0.586   9.761  22.751  0.00  0.00    +0.000 C 
ATOM      4  C   UNL     1      -0.658  10.711  21.555  0.00  0.00    +0.000 C 
ATOM      5  N   UNL     1       0.111  10.251  20.401  0.00  0.00    +0.000 N 
ATOM      6  C   UNL     1      -0.193  10.424  19.047  0.00  0.00    +0.000 C 
ATOM      7  O   UNL     1       0.665  10.281  18.175  0.00  0.00    +0.000 OA
ATOM      8  C   UNL     1       1.488   9.850  20.717  0.00  0.00    +0.000 C 
ENDROOT
BRANCH   6   9
ATOM      9  C   UNL     1      -1.577  10.688  18.560  0.00  0.00    +0.000 A 
ATOM     10  C   UNL     1      -2.335   9.652  17.990  0.00  0.00    +0.000 A 
ATOM     11  C   UNL     1      -3.662   9.863  17.609  0.00  0.00    +0.000 A 
ATOM     12  C   UNL     1      -4.288  11.065  17.916  0.00  0.00    +0.000 A 
ATOM     13  C   UNL     1      -3.561  12.083  18.531  0.00  0.00    +0.000 A 
ATOM     14  C   UNL     1      -2.186  11.944  18.801  0.00  0.00    +0.000 A 
BRANCH  14  15
ATOM     15  C   UNL     1      -1.482  13.166  19.218  0.00  0.00    +0.000 A 
ATOM     16  N   UNL     1      -1.704  13.865  20.322  0.00  0.00    +0.000 NA
ATOM     17  C   UNL     1      -0.954  15.010  20.221  0.00  0.00    +0.000 A 
ATOM     18  C   UNL     1      -0.284  15.045  19.026  0.00  0.00    +0.000 A 
ATOM     19  N   UNL     1      -0.584  13.857  18.421  0.00  0.00    +0.000 N 
ATOM     20  H   UNL     1      -0.222  13.541  17.532  0.00  0.00    +0.000 HD
ENDBRANCH  14  15
ENDBRANCH   6   9
BRANCH   1  21
ATOM     21  N   UNL     1       0.922   7.469  21.155  0.00  0.00    +0.000 N 
ATOM     22  H   UNL     1       0.223   7.044  21.753  0.00  0.00    +0.000 HD
BRANCH  21  26
ATOM     23  C   UNL     1       3.198   4.597  18.974  0.00  0.00    +0.000 A 
ATOM     24  C   UNL     1       2.256   4.204  19.934  0.00  0.00    +0.000 A 
ATOM     25  C   UNL     1       1.515   5.166  20.654  0.00  0.00    +0.000 A 
ATOM     26  C   UNL     1       1.703   6.549  20.465  0.00  0.00    +0.000 A 
ATOM     27  C   UNL     1       2.614   6.912  19.465  0.00  0.00    +0.000 A 
ATOM     28  C   UNL     1       3.360   5.972  18.746  0.00  0.00    +0.000 A 
BRANCH  23  30
ATOM     29  C   UNL     1       3.293   2.241  18.060  0.00  0.00    +0.000 C 
ATOM     30  C   UNL     1       4.019   3.589  18.181  0.00  0.00    +0.000 C 
ATOM     31  C   UNL     1       4.364   4.129  16.787  0.00  0.00    +0.000 C 
ENDBRANCH  23  30
ENDBRANCH  21  26
ENDBRANCH   1  21
TORSDOF 5
ENDMDL
MODEL 6
REMARK VINA RESULT:      -7.3      2.331      8.369
REMARK  Name = 
REMARK  7 active torsions:
REMARK  status: ('A' for Active; 'I' for Inactive)
REMARK    1  A    between atoms: C_1  and  C_2
REMARK    2  A    between atoms: C_2  and  C_3
REMARK    3  A    between atoms: C_2  and  C_4
REMARK    4  A    between atoms: C_7  and  N_8
REMARK    5  A    between atoms: N_8  and  C_9
REMARK    6  A    between atoms: C_14  and  C_16
REMARK    7  A    between atoms: C_21  and  C_22
REMARK                            x       y       z     vdW  Elec       q    Type
REMARK                         _______ _______ _______ _____ _____    ______ ____
ROOT
ATOM      1  C   UNL     1      -2.242  12.352  19.066  0.00  0.00    +0.000 C 
ATOM      2  C   UNL     1      -3.266  11.512  18.293  0.00  0.00    +0.000 C 
ATOM      3  C   UNL     1      -2.793  10.095  17.967  0.00  0.00    +0.000 C 
ATOM      4  C   UNL     1      -1.329   9.970  17.541  0.00  0.00    +0.000 C 
ATOM      5  N   UNL     1      -0.428  10.838  18.297  0.00  0.00    +0.000 N 
ATOM      6  C   UNL     1       0.893  10.577  18.674  0.00  0.00    +0.000 C 
ATOM      7  O   UNL     1       1.650  11.484  19.021  0.00  0.00    +0.000 OA
ATOM      8  C   UNL     1      -0.870  12.235  18.380  0.00  0.00    +0.000 C 
ENDROOT
BRANCH   6   9
ATOM      9  C   UNL     1       1.442   9.195  18.780  0.00  0.00    +0.000 A 
ATOM     10  C   UNL     1       2.036   8.583  17.664  0.00  0.00    +0.000 A 
ATOM     11  C   UNL     1       2.632   7.324  17.771  0.00  0.00    +0.000 A 
ATOM     12  C   UNL     1       2.761   6.723  19.017  0.00  0.00    +0.000 A 
ATOM     13  C   UNL     1       2.224   7.346  20.142  0.00  0.00    +0.000 A 
ATOM     14  C   UNL     1       1.499   8.549  20.040  0.00  0.00    +0.000 A 
BRANCH  14  15
ATOM     15  C   UNL     1       0.774   8.973  21.247  0.00  0.00    +0.000 A 
ATOM     16  N   UNL     1       1.299   9.550  22.318  0.00  0.00    +0.000 NA
ATOM     17  C   UNL     1       0.305   9.607  23.262  0.00  0.00    +0.000 A 
ATOM     18  C   UNL     1      -0.844   9.028  22.790  0.00  0.00    +0.000 A 
ATOM     19  N   UNL     1      -0.554   8.673  21.503  0.00  0.00    +0.000 N 
ATOM     20  H   UNL     1      -1.198   8.250  20.849  0.00  0.00    +0.000 HD
ENDBRANCH  14  15
ENDBRANCH   6   9
BRANCH   1  21
ATOM     21  N   UNL     1      -2.161  11.926  20.482  0.00  0.00    +0.000 N 
ATOM     22  H   UNL     1      -2.432  10.959  20.626  0.00  0.00    +0.000 HD
BRANCH  21  26
ATOM     23  C   UNL     1      -3.238  14.511  23.698  0.00  0.00    +0.000 A 
ATOM     24  C   UNL     1      -3.027  13.141  23.903  0.00  0.00    +0.000 A 
ATOM     25  C   UNL     1      -2.678  12.295  22.829  0.00  0.00    +0.000 A 
ATOM     26  C   UNL     1      -2.554  12.775  21.510  0.00  0.00    +0.000 A 
ATOM     27  C   UNL     1      -2.721  14.156  21.343  0.00  0.00    +0.000 A 
ATOM     28  C   UNL     1      -3.072  15.007  22.397  0.00  0.00    +0.000 A 
BRANCH  23  30
ATOM     29  C   UNL     1      -2.403  16.236  25.348  0.00  0.00    +0.000 C 
ATOM     30  C   UNL     1      -3.619  15.453  24.832  0.00  0.00    +0.000 C 
ATOM     31  C   UNL     1      -4.727  16.423  24.399  0.00  0.00    +0.000 C 
ENDBRANCH  23  30
ENDBRANCH  21  26
ENDBRANCH   1  21
TORSDOF 5
ENDMDL
MODEL 7
REMARK VINA RESULT:      -7.2      3.250      5.302
REMARK  Name = 
REMARK  7 active torsions:
REMARK  status: ('A' for Active; 'I' for Inactive)
REMARK    1  A    between atoms: C_1  and  C_2
REMARK    2  A    between atoms: C_2  and  C_3
REMARK    3  A    between atoms: C_2  and  C_4
REMARK    4  A    between atoms: C_7  and  N_8
REMARK    5  A    between atoms: N_8  and  C_9
REMARK    6  A    between atoms: C_14  and  C_16
REMARK    7  A    between atoms: C_21  and  C_22
REMARK                            x       y       z     vdW  Elec       q    Type
REMARK                         _______ _______ _______ _____ _____    ______ ____
ROOT
ATOM      1  C   UNL     1      -0.296  10.297  20.545  0.00  0.00    +0.000 C 
ATOM      2  C   UNL     1      -0.979  10.117  19.184  0.00  0.00    +0.000 C 
ATOM      3  C   UNL     1      -0.583  11.164  18.143  0.00  0.00    +0.000 C 
ATOM      4  C   UNL     1      -0.443  12.595  18.666  0.00  0.00    +0.000 C 
ATOM      5  N   UNL     1       0.175  12.673  19.987  0.00  0.00    +0.000 N 
ATOM      6  C   UNL     1       1.019  13.674  20.478  0.00  0.00    +0.000 C 
ATOM      7  O   UNL     1       1.222  13.803  21.686  0.00  0.00    +0.000 OA
ATOM      8  C   UNL     1      -0.416  11.768  20.982  0.00  0.00    +0.000 C 
ENDROOT
BRANCH   6   9
ATOM      9  C   UNL     1       1.803  14.575  19.586  0.00  0.00    +0.000 A 
ATOM     10  C   UNL     1       3.028  14.147  19.049  0.00  0.00    +0.000 A 
ATOM     11  C   UNL     1       3.731  14.946  18.144  0.00  0.00    +0.000 A 
ATOM     12  C   UNL     1       3.156  16.115  17.662  0.00  0.00    +0.000 A 
ATOM     13  C   UNL     1       1.915  16.524  18.147  0.00  0.00    +0.000 A 
ATOM     14  C   UNL     1       1.249  15.808  19.160  0.00  0.00    +0.000 A 
BRANCH  14  15
ATOM     15  C   UNL     1       0.080  16.468  19.759  0.00  0.00    +0.000 A 
ATOM     16  N   UNL     1       0.049  17.124  20.909  0.00  0.00    +0.000 NA
ATOM     17  C   UNL     1      -1.267  17.417  21.162  0.00  0.00    +0.000 A 
ATOM     18  C   UNL     1      -2.073  16.907  20.178  0.00  0.00    +0.000 A 
ATOM     19  N   UNL     1      -1.213  16.352  19.273  0.00  0.00    +0.000 N 
ATOM     20  H   UNL     1      -1.476  15.916  18.400  0.00  0.00    +0.000 HD
ENDBRANCH  14  15
ENDBRANCH   6   9
BRANCH   1  21
ATOM     21  N   UNL     1       1.123   9.878  20.491  0.00  0.00    +0.000 N 
ATOM     22  H   UNL     1       1.749  10.620  20.196  0.00  0.00    +0.000 HD
BRANCH  21  26
ATOM     23  C   UNL     1       2.361   6.067  19.029  0.00  0.00    +0.000 A 
ATOM     24  C   UNL     1       2.490   7.224  18.250  0.00  0.00    +0.000 A 
ATOM     25  C   UNL     1       2.070   8.478  18.743  0.00  0.00    +0.000 A 
ATOM     26  C   UNL     1       1.482   8.622  20.015  0.00  0.00    +0.000 A 
ATOM     27  C   UNL     1       1.411   7.458  20.791  0.00  0.00    +0.000 A 
ATOM     28  C   UNL     1       1.819   6.207  20.316  0.00  0.00    +0.000 A 
BRANCH  23  30
ATOM     29  C   UNL     1       1.618   3.901  17.958  0.00  0.00    +0.000 C 
ATOM     30  C   UNL     1       2.800   4.698  18.530  0.00  0.00    +0.000 C 
ATOM     31  C   UNL     1       3.911   4.821  17.478  0.00  0.00    +0.000 C 
ENDBRANCH  23  30
ENDBRANCH  21  26
ENDBRANCH   1  21
TORSDOF 5
ENDMDL
MODEL 8
REMARK VINA RESULT:      -7.2      0.820      1.115
REMARK  Name = 
REMARK  7 active torsions:
REMARK  status: ('A' for Active; 'I' for Inactive)
REMARK    1  A    between atoms: C_1  and  C_2
REMARK    2  A    between atoms: C_2  and  C_3
REMARK    3  A    between atoms: C_2  and  C_4
REMARK    4  A    between atoms: C_7  and  N_8
REMARK    5  A    between atoms: N_8  and  C_9
REMARK    6  A    between atoms: C_14  and  C_16
REMARK    7  A    between atoms: C_21  and  C_22
REMARK                            x       y       z     vdW  Elec       q    Type
REMARK                         _______ _______ _______ _____ _____    ______ ____
ROOT
ATOM      1  C   UNL     1       1.218  10.200  21.328  0.00  0.00    +0.000 C 
ATOM      2  C   UNL     1       0.831   9.623  22.695  0.00  0.00    +0.000 C 
ATOM      3  C   UNL     1      -0.647   9.792  23.048  0.00  0.00    +0.000 C 
ATOM      4  C   UNL     1      -1.270  11.134  22.659  0.00  0.00    +0.000 C 
ATOM      5  N   UNL     1      -0.812  11.633  21.364  0.00  0.00    +0.000 N 
ATOM      6  C   UNL     1      -1.542  12.368  20.425  0.00  0.00    +0.000 C 
ATOM      7  O   UNL     1      -0.979  13.000  19.530  0.00  0.00    +0.000 OA
ATOM      8  C   UNL     1       0.647  11.623  21.198  0.00  0.00    +0.000 C 
ENDROOT
BRANCH   6   9
ATOM      9  C   UNL     1      -3.032  12.358  20.376  0.00  0.00    +0.000 A 
ATOM     10  C   UNL     1      -3.778  12.823  21.471  0.00  0.00    +0.000 A 
ATOM     11  C   UNL     1      -5.171  12.900  21.407  0.00  0.00    +0.000 A 
ATOM     12  C   UNL     1      -5.824  12.644  20.208  0.00  0.00    +0.000 A 
ATOM     13  C   UNL     1      -5.089  12.234  19.097  0.00  0.00    +0.000 A 
ATOM     14  C   UNL     1      -3.700  12.016  19.174  0.00  0.00    +0.000 A 
BRANCH  14  15
ATOM     15  C   UNL     1      -3.083  11.351  18.017  0.00  0.00    +0.000 A 
ATOM     16  N   UNL     1      -3.431  11.498  16.747  0.00  0.00    +0.000 NA
ATOM     17  C   UNL     1      -2.720  10.566  16.033  0.00  0.00    +0.000 A 
ATOM     18  C   UNL     1      -1.946   9.804  16.869  0.00  0.00    +0.000 A 
ATOM     19  N   UNL     1      -2.144  10.337  18.112  0.00  0.00    +0.000 N 
ATOM     20  H   UNL     1      -1.692  10.031  18.962  0.00  0.00    +0.000 HD
ENDBRANCH  14  15
ENDBRANCH   6   9
BRANCH   1  21
ATOM     21  N   UNL     1       0.734   9.335  20.227  0.00  0.00    +0.000 N 
ATOM     22  H   UNL     1      -0.264   9.159  20.265  0.00  0.00    +0.000 HD
BRANCH  21  26
ATOM     23  C   UNL     1       3.137   6.074  18.895  0.00  0.00    +0.000 A 
ATOM     24  C   UNL     1       2.967   7.222  18.111  0.00  0.00    +0.000 A 
ATOM     25  C   UNL     1       2.163   8.291  18.560  0.00  0.00    +0.000 A 
ATOM     26  C   UNL     1       1.479   8.246  19.791  0.00  0.00    +0.000 A 
ATOM     27  C   UNL     1       1.706   7.108  20.576  0.00  0.00    +0.000 A 
ATOM     28  C   UNL     1       2.496   6.038  20.143  0.00  0.00    +0.000 A 
BRANCH  23  30
ATOM     29  C   UNL     1       3.992   3.766  19.479  0.00  0.00    +0.000 C 
ATOM     30  C   UNL     1       3.994   4.900  18.442  0.00  0.00    +0.000 C 
ATOM     31  C   UNL     1       3.529   4.368  17.079  0.00  0.00    +0.000 C 
ENDBRANCH  23  30
ENDBRANCH  21  26
ENDBRANCH   1  21
TORSDOF 5
ENDMDL
MODEL 9
REMARK VINA RESULT:      -7.2      2.055      3.657
REMARK  Name = 
REMARK  7 active torsions:
REMARK  status: ('A' for Active; 'I' for Inactive)
REMARK    1  A    between atoms: C_1  and  C_2
REMARK    2  A    between atoms: C_2  and  C_3
REMARK    3  A    between atoms: C_2  and  C_4
REMARK    4  A    between atoms: C_7  and  N_8
REMARK    5  A    between atoms: N_8  and  C_9
REMARK    6  A    between atoms: C_14  and  C_16
REMARK    7  A    between atoms: C_21  and  C_22
REMARK                            x       y       z     vdW  Elec       q    Type
REMARK                         _______ _______ _______ _____ _____    ______ ____
ROOT
ATOM      1  C   UNL     1       2.015   8.085  20.120  0.00  0.00    +0.000 C 
ATOM      2  C   UNL     1       1.234   7.562  21.332  0.00  0.00    +0.000 C 
ATOM      3  C   UNL     1      -0.249   7.934  21.327  0.00  0.00    +0.000 C 
ATOM      4  C   UNL     1      -0.572   9.351  20.852  0.00  0.00    +0.000 C 
ATOM      5  N   UNL     1       0.249   9.787  19.724  0.00  0.00    +0.000 N 
ATOM      6  C   UNL     1      -0.127  10.621  18.666  0.00  0.00    +0.000 C 
ATOM      7  O   UNL     1       0.716  11.172  17.956  0.00  0.00    +0.000 OA
ATOM      8  C   UNL     1       1.689   9.574  19.911  0.00  0.00    +0.000 C 
ENDROOT
BRANCH   6   9
ATOM      9  C   UNL     1      -1.548  10.819  18.262  0.00  0.00    +0.000 A 
ATOM     10  C   UNL     1      -2.171   9.905  17.398  0.00  0.00    +0.000 A 
ATOM     11  C   UNL     1      -3.525  10.029  17.079  0.00  0.00    +0.000 A 
ATOM     12  C   UNL     1      -4.302  10.984  17.724  0.00  0.00    +0.000 A 
ATOM     13  C   UNL     1      -3.707  11.864  18.625  0.00  0.00    +0.000 A 
ATOM     14  C   UNL     1      -2.318  11.847  18.860  0.00  0.00    +0.000 A 
BRANCH  14  15
ATOM     15  C   UNL     1      -1.779  12.976  19.633  0.00  0.00    +0.000 A 
ATOM     16  N   UNL     1      -2.100  13.304  20.876  0.00  0.00    +0.000 NA
ATOM     17  C   UNL     1      -1.501  14.511  21.132  0.00  0.00    +0.000 A 
ATOM     18  C   UNL     1      -0.827  14.961  20.028  0.00  0.00    +0.000 A 
ATOM     19  N   UNL     1      -0.967  13.965  19.102  0.00  0.00    +0.000 N 
ATOM     20  H   UNL     1      -0.558  13.958  18.178  0.00  0.00    +0.000 HD
ENDBRANCH  14  15
ENDBRANCH   6   9
BRANCH   1  21
ATOM     21  N   UNL     1       1.701   7.301  18.903  0.00  0.00    +0.000 N 
ATOM     22  H   UNL     1       0.801   6.836  18.947  0.00  0.00    +0.000 HD
BRANCH  21  26
ATOM     23  C   UNL     1       4.613   4.993  16.811  0.00  0.00    +0.000 A 
ATOM     24  C   UNL     1       3.497   4.392  17.407  0.00  0.00    +0.000 A 
ATOM     25  C   UNL     1       2.545   5.166  18.103  0.00  0.00    +0.000 A 
ATOM     26  C   UNL     1       2.682   6.560  18.254  0.00  0.00    +0.000 A 
ATOM     27  C   UNL     1       3.779   7.141  17.606  0.00  0.00    +0.000 A 
ATOM     28  C   UNL     1       4.735   6.387  16.917  0.00  0.00    +0.000 A 
BRANCH  23  30
ATOM     29  C   UNL     1       5.509   4.346  14.537  0.00  0.00    +0.000 C 
ATOM     30  C   UNL     1       5.664   4.190  16.057  0.00  0.00    +0.000 C 
ATOM     31  C   UNL     1       7.082   4.589  16.486  0.00  0.00    +0.000 C 
ENDBRANCH  23  30
ENDBRANCH  21  26
ENDBRANCH   1  21
TORSDOF 5
ENDMDL
