MODEL 1
REMARK VINA RESULT:      -6.7      0.000      0.000
REMARK  Name = 
REMARK  11 active torsions:
REMARK  status: ('A' for Active; 'I' for Inactive)
REMARK    1  A    between atoms: C_1  and  C_2
REMARK    2  A    between atoms: C_2  and  C_3
REMARK    3  A    between atoms: C_3  and  N_4
REMARK    4  A    between atoms: N_4  and  C_5
REMARK    5  A    between atoms: N_4  and  C_8
REMARK    6  A    between atoms: C_5  and  C_6
REMARK    7  A    between atoms: C_6  and  C_7
REMARK    8  A    between atoms: C_10  and  C_11
REMARK    9  A    between atoms: C_14  and  C_15
REMARK   10  A    between atoms: C_18  and  C_19
REMARK   11  A    between atoms: C_23  and  C_24
REMARK                            x       y       z     vdW  Elec       q    Type
REMARK                         _______ _______ _______ _____ _____    ______ ____
ROOT
ATOM      1  C   UNL     1       3.643   5.874  18.132  0.00  0.00    +0.000 A 
ATOM      2  C   UNL     1       3.407   4.953  19.092  0.00  0.00    +0.000 A 
ATOM      3  C   UNL     1       2.496   5.289  20.213  0.00  0.00    +0.000 A 
ATOM      4  C   UNL     1       2.094   4.169  21.137  0.00  0.00    +0.000 C 
ATOM      5  N   UNL     1       1.987   6.462  20.427  0.00  0.00    +0.000 NA
ATOM      6  C   UNL     1       2.231   7.417  19.482  0.00  0.00    +0.000 A 
ATOM      7  C   UNL     1       1.728   8.702  19.349  0.00  0.00    +0.000 A 
ATOM      8  C   UNL     1       2.423   9.236  18.235  0.00  0.00    +0.000 A 
ATOM      9  C   UNL     1       2.404  10.611  17.671  0.00  0.00    +0.000 C 
ATOM     10  N   UNL     1       3.170   8.315  17.618  0.00  0.00    +0.000 NA
ATOM     11  N   UNL     1       3.051   7.175  18.357  0.00  0.00    +0.000 N 
ENDROOT
BRANCH   7  12
ATOM     12  C   UNL     1       0.774   9.333  20.254  0.00  0.00    +0.000 A 
ATOM     13  N   UNL     1       1.173   9.316  21.562  0.00  0.00    +0.000 NA
ATOM     14  C   UNL     1       0.389   9.929  22.480  0.00  0.00    +0.000 A 
ATOM     15  C   UNL     1      -0.815  10.548  22.182  0.00  0.00    +0.000 A 
ATOM     16  C   UNL     1      -1.639  11.231  23.225  0.00  0.00    +0.000 C 
ATOM     17  C   UNL     1      -1.221  10.542  20.848  0.00  0.00    +0.000 A 
ATOM     18  C   UNL     1      -0.415   9.961  19.864  0.00  0.00    +0.000 A 
ATOM     19 CL   UNL     1      -0.923  10.217  18.231  0.00  0.00    +0.000 Cl
ENDBRANCH   7  12
BRANCH   1  20
ATOM     20  N   UNL     1       4.424   5.565  16.966  0.00  0.00    +0.000 N 
BRANCH  20  21
ATOM     21  C   UNL     1       4.430   4.225  16.325  0.00  0.00    +0.000 C 
BRANCH  21  23
ATOM     22  C   UNL     1       5.696   4.032  14.084  0.00  0.00    +0.000 C 
ATOM     23  C   UNL     1       5.729   3.855  15.591  0.00  0.00    +0.000 C 
ENDBRANCH  21  23
ENDBRANCH  20  21
BRANCH  20  24
ATOM     24  C   UNL     1       5.392   6.515  16.363  0.00  0.00    +0.000 C 
BRANCH  24  25
ATOM     25  C   UNL     1       6.435   7.029  17.364  0.00  0.00    +0.000 C 
ATOM     26  C   UNL     1       7.390   5.959  17.871  0.00  0.00    +0.000 C 
ENDBRANCH  24  25
ENDBRANCH  20  24
ENDBRANCH   1  20
TORSDOF 6
ENDMDL
MODEL 2
REMARK VINA RESULT:      -6.6      0.070      1.779
REMARK  Name = 
REMARK  11 active torsions:
REMARK  status: ('A' for Active; 'I' for Inactive)
REMARK    1  A    between atoms: C_1  and  C_2
REMARK    2  A    between atoms: C_2  and  C_3
REMARK    3  A    between atoms: C_3  and  N_4
REMARK    4  A    between atoms: N_4  and  C_5
REMARK    5  A    between atoms: N_4  and  C_8
REMARK    6  A    between atoms: C_5  and  C_6
REMARK    7  A    between atoms: C_6  and  C_7
REMARK    8  A    between atoms: C_10  and  C_11
REMARK    9  A    between atoms: C_14  and  C_15
REMARK   10  A    between atoms: C_18  and  C_19
REMARK   11  A    between atoms: C_23  and  C_24
REMARK                            x       y       z     vdW  Elec       q    Type
REMARK                         _______ _______ _______ _____ _____    ______ ____
ROOT
ATOM      1  C   UNL     1       3.640   5.865  18.197  0.00  0.00    +0.000 A 
ATOM      2  C   UNL     1       3.382   4.941  19.149  0.00  0.00    +0.000 A 
ATOM      3  C   UNL     1       2.454   5.279  20.256  0.00  0.00    +0.000 A 
ATOM      4  C   UNL     1       2.029   4.157  21.168  0.00  0.00    +0.000 C 
ATOM      5  N   UNL     1       1.949   6.454  20.467  0.00  0.00    +0.000 NA
ATOM      6  C   UNL     1       2.215   7.411  19.530  0.00  0.00    +0.000 A 
ATOM      7  C   UNL     1       1.723   8.700  19.394  0.00  0.00    +0.000 A 
ATOM      8  C   UNL     1       2.440   9.234  18.294  0.00  0.00    +0.000 A 
ATOM      9  C   UNL     1       2.439  10.612  17.736  0.00  0.00    +0.000 C 
ATOM     10  N   UNL     1       3.191   8.311  17.686  0.00  0.00    +0.000 NA
ATOM     11  N   UNL     1       3.052   7.169  18.418  0.00  0.00    +0.000 N 
ENDROOT
BRANCH   7  12
ATOM     12  C   UNL     1       0.758   9.333  20.286  0.00  0.00    +0.000 A 
ATOM     13  N   UNL     1       1.143   9.324  21.598  0.00  0.00    +0.000 NA
ATOM     14  C   UNL     1       0.348   9.940  22.504  0.00  0.00    +0.000 A 
ATOM     15  C   UNL     1      -0.854  10.554  22.191  0.00  0.00    +0.000 A 
ATOM     16  C   UNL     1      -1.691  11.241  23.222  0.00  0.00    +0.000 C 
ATOM     17  C   UNL     1      -1.247  10.540  20.853  0.00  0.00    +0.000 A 
ATOM     18  C   UNL     1      -0.429   9.956  19.880  0.00  0.00    +0.000 A 
ATOM     19 CL   UNL     1      -0.921  10.202  18.240  0.00  0.00    +0.000 Cl
ENDBRANCH   7  12
BRANCH   1  20
ATOM     20  N   UNL     1       4.438   5.556  17.043  0.00  0.00    +0.000 N 
BRANCH  20  21
ATOM     21  C   UNL     1       5.337   6.543  16.390  0.00  0.00    +0.000 C 
BRANCH  21  23
ATOM     22  C   UNL     1       7.295   6.040  17.994  0.00  0.00    +0.000 C 
ATOM     23  C   UNL     1       6.465   7.090  17.278  0.00  0.00    +0.000 C 
ENDBRANCH  21  23
ENDBRANCH  20  21
BRANCH  20  24
ATOM     24  C   UNL     1       4.352   4.264  16.319  0.00  0.00    +0.000 C 
BRANCH  24  25
ATOM     25  C   UNL     1       5.676   3.853  15.661  0.00  0.00    +0.000 C 
ATOM     26  C   UNL     1       5.689   3.997  14.146  0.00  0.00    +0.000 C 
ENDBRANCH  24  25
ENDBRANCH  20  24
ENDBRANCH   1  20
TORSDOF 6
ENDMDL
MODEL 3
REMARK VINA RESULT:      -6.3      6.339      9.958
REMARK  Name = 
REMARK  11 active torsions:
REMARK  status: ('A' for Active; 'I' for Inactive)
REMARK    1  A    between atoms: C_1  and  C_2
REMARK    2  A    between atoms: C_2  and  C_3
REMARK    3  A    between atoms: C_3  and  N_4
REMARK    4  A    between atoms: N_4  and  C_5
REMARK    5  A    between atoms: N_4  and  C_8
REMARK    6  A    between atoms: C_5  and  C_6
REMARK    7  A    between atoms: C_6  and  C_7
REMARK    8  A    between atoms: C_10  and  C_11
REMARK    9  A    between atoms: C_14  and  C_15
REMARK   10  A    between atoms: C_18  and  C_19
REMARK   11  A    between atoms: C_23  and  C_24
REMARK                            x       y       z     vdW  Elec       q    Type
REMARK                         _______ _______ _______ _____ _____    ______ ____
ROOT
ATOM      1  C   UNL     1      -5.251  12.590  20.621  0.00  0.00    +0.000 A 
ATOM      2  C   UNL     1      -4.908  13.210  21.771  0.00  0.00    +0.000 A 
ATOM      3  C   UNL     1      -3.496  13.610  21.988  0.00  0.00    +0.000 A 
ATOM      4  C   UNL     1      -3.201  14.484  23.179  0.00  0.00    +0.000 C 
ATOM      5  N   UNL     1      -2.510  13.301  21.206  0.00  0.00    +0.000 NA
ATOM      6  C   UNL     1      -2.830  12.654  20.046  0.00  0.00    +0.000 A 
ATOM      7  C   UNL     1      -2.041  12.313  18.958  0.00  0.00    +0.000 A 
ATOM      8  C   UNL     1      -2.907  11.573  18.116  0.00  0.00    +0.000 A 
ATOM      9  C   UNL     1      -2.614  10.843  16.854  0.00  0.00    +0.000 C 
ATOM     10  N   UNL     1      -4.170  11.590  18.552  0.00  0.00    +0.000 NA
ATOM     11  N   UNL     1      -4.153  12.271  19.733  0.00  0.00    +0.000 N 
ENDROOT
BRANCH   7  12
ATOM     12  C   UNL     1      -0.616  12.599  18.827  0.00  0.00    +0.000 A 
ATOM     13  N   UNL     1      -0.341  13.929  18.677  0.00  0.00    +0.000 NA
ATOM     14  C   UNL     1       0.956  14.312  18.606  0.00  0.00    +0.000 A 
ATOM     15  C   UNL     1       2.027  13.433  18.643  0.00  0.00    +0.000 A 
ATOM     16  C   UNL     1       3.445  13.902  18.583  0.00  0.00    +0.000 C 
ATOM     17  C   UNL     1       1.734  12.076  18.776  0.00  0.00    +0.000 A 
ATOM     18  C   UNL     1       0.408  11.647  18.901  0.00  0.00    +0.000 A 
ATOM     19 CL   UNL     1       0.195   9.973  19.282  0.00  0.00    +0.000 Cl
ENDBRANCH   7  12
BRANCH   1  20
ATOM     20  N   UNL     1      -6.619  12.283  20.308  0.00  0.00    +0.000 N 
BRANCH  20  21
ATOM     21  C   UNL     1      -7.229  10.950  20.552  0.00  0.00    +0.000 C 
BRANCH  21  23
ATOM     22  C   UNL     1      -7.159   8.472  19.833  0.00  0.00    +0.000 C 
ATOM     23  C   UNL     1      -7.045   9.928  19.418  0.00  0.00    +0.000 C 
ENDBRANCH  21  23
ENDBRANCH  20  21
BRANCH  20  24
ATOM     24  C   UNL     1      -7.521  13.226  19.600  0.00  0.00    +0.000 C 
BRANCH  24  25
ATOM     25  C   UNL     1      -6.840  13.943  18.426  0.00  0.00    +0.000 C 
ATOM     26  C   UNL     1      -6.949  13.205  17.100  0.00  0.00    +0.000 C 
ENDBRANCH  24  25
ENDBRANCH  20  24
ENDBRANCH   1  20
TORSDOF 6
ENDMDL
MODEL 4
REMARK VINA RESULT:      -6.1      4.287      7.150
REMARK  Name = 
REMARK  11 active torsions:
REMARK  status: ('A' for Active; 'I' for Inactive)
REMARK    1  A    between atoms: C_1  and  C_2
REMARK    2  A    between atoms: C_2  and  C_3
REMARK    3  A    between atoms: C_3  and  N_4
REMARK    4  A    between atoms: N_4  and  C_5
REMARK    5  A    between atoms: N_4  and  C_8
REMARK    6  A    between atoms: C_5  and  C_6
REMARK    7  A    between atoms: C_6  and  C_7
REMARK    8  A    between atoms: C_10  and  C_11
REMARK    9  A    between atoms: C_14  and  C_15
REMARK   10  A    between atoms: C_18  and  C_19
REMARK   11  A    between atoms: C_23  and  C_24
REMARK                            x       y       z     vdW  Elec       q    Type
REMARK                         _______ _______ _______ _____ _____    ______ ____
ROOT
ATOM      1  C   UNL     1      -0.703  10.981  20.006  0.00  0.00    +0.000 A 
ATOM      2  C   UNL     1      -0.382  10.065  20.945  0.00  0.00    +0.000 A 
ATOM      3  C   UNL     1      -0.293  10.482  22.366  0.00  0.00    +0.000 A 
ATOM      4  C   UNL     1      -0.145   9.395  23.398  0.00  0.00    +0.000 C 
ATOM      5  N   UNL     1      -0.377  11.706  22.785  0.00  0.00    +0.000 NA
ATOM      6  C   UNL     1      -0.680  12.653  21.849  0.00  0.00    +0.000 A 
ATOM      7  C   UNL     1      -0.969  14.002  21.993  0.00  0.00    +0.000 A 
ATOM      8  C   UNL     1      -1.100  14.475  20.663  0.00  0.00    +0.000 A 
ATOM      9  C   UNL     1      -1.295  15.861  20.161  0.00  0.00    +0.000 C 
ATOM     10  N   UNL     1      -1.063  13.483  19.769  0.00  0.00    +0.000 NA
ATOM     11  N   UNL     1      -0.827  12.343  20.478  0.00  0.00    +0.000 N 
ENDROOT
BRANCH   7  12
ATOM     12  C   UNL     1      -1.012  14.725  23.258  0.00  0.00    +0.000 A 
ATOM     13  N   UNL     1       0.005  15.626  23.404  0.00  0.00    +0.000 NA
ATOM     14  C   UNL     1       0.027  16.396  24.518  0.00  0.00    +0.000 A 
ATOM     15  C   UNL     1      -0.904  16.305  25.541  0.00  0.00    +0.000 A 
ATOM     16  C   UNL     1      -0.855  17.190  26.744  0.00  0.00    +0.000 C 
ATOM     17  C   UNL     1      -1.927  15.369  25.390  0.00  0.00    +0.000 A 
ATOM     18  C   UNL     1      -2.010  14.590  24.232  0.00  0.00    +0.000 A 
ATOM     19 CL   UNL     1      -3.443  13.634  24.072  0.00  0.00    +0.000 Cl
ENDBRANCH   7  12
BRANCH   1  20
ATOM     20  N   UNL     1      -0.916  10.611  18.633  0.00  0.00    +0.000 N 
BRANCH  20  21
ATOM     21  C   UNL     1      -2.123  11.008  17.863  0.00  0.00    +0.000 C 
BRANCH  21  23
ATOM     22  C   UNL     1      -2.881  10.676  15.419  0.00  0.00    +0.000 C 
ATOM     23  C   UNL     1      -2.541  10.033  16.751  0.00  0.00    +0.000 C 
ENDBRANCH  21  23
ENDBRANCH  20  21
BRANCH  20  24
ATOM     24  C   UNL     1      -0.013   9.697  17.890  0.00  0.00    +0.000 C 
BRANCH  24  25
ATOM     25  C   UNL     1       1.473   9.971  18.157  0.00  0.00    +0.000 C 
ATOM     26  C   UNL     1       2.385   8.785  17.876  0.00  0.00    +0.000 C 
ENDBRANCH  24  25
ENDBRANCH  20  24
ENDBRANCH   1  20
TORSDOF 6
ENDMDL
MODEL 5
REMARK VINA RESULT:      -6.1      0.960      1.489
REMARK  Name = 
REMARK  11 active torsions:
REMARK  status: ('A' for Active; 'I' for Inactive)
REMARK    1  A    between atoms: C_1  and  C_2
REMARK    2  A    between atoms: C_2  and  C_3
REMARK    3  A    between atoms: C_3  and  N_4
REMARK    4  A    between atoms: N_4  and  C_5
REMARK    5  A    between atoms: N_4  and  C_8
REMARK    6  A    between atoms: C_5  and  C_6
REMARK    7  A    between atoms: C_6  and  C_7
REMARK    8  A    between atoms: C_10  and  C_11
REMARK    9  A    between atoms: C_14  and  C_15
REMARK   10  A    between atoms: C_18  and  C_19
REMARK   11  A    between atoms: C_23  and  C_24
REMARK                            x       y       z     vdW  Elec       q    Type
REMARK                         _______ _______ _______ _____ _____    ______ ____
ROOT
ATOM      1  C   UNL     1       3.434   5.513  18.388  0.00  0.00    +0.000 A 
ATOM      2  C   UNL     1       3.194   4.668  19.415  0.00  0.00    +0.000 A 
ATOM      3  C   UNL     1       2.332   5.115  20.537  0.00  0.00    +0.000 A 
ATOM      4  C   UNL     1       1.919   4.077  21.546  0.00  0.00    +0.000 C 
ATOM      5  N   UNL     1       1.874   6.319  20.684  0.00  0.00    +0.000 NA
ATOM      6  C   UNL     1       2.122   7.196  19.668  0.00  0.00    +0.000 A 
ATOM      7  C   UNL     1       1.664   8.489  19.462  0.00  0.00    +0.000 A 
ATOM      8  C   UNL     1       2.341   8.918  18.294  0.00  0.00    +0.000 A 
ATOM      9  C   UNL     1       2.355  10.252  17.637  0.00  0.00    +0.000 C 
ATOM     10  N   UNL     1       3.034   7.929  17.721  0.00  0.00    +0.000 NA
ATOM     11  N   UNL     1       2.897   6.848  18.539  0.00  0.00    +0.000 N 
ENDROOT
BRANCH   7  12
ATOM     12  C   UNL     1       0.763   9.216  20.349  0.00  0.00    +0.000 A 
ATOM     13  N   UNL     1       1.172   9.221  21.653  0.00  0.00    +0.000 NA
ATOM     14  C   UNL     1       0.440   9.920  22.553  0.00  0.00    +0.000 A 
ATOM     15  C   UNL     1      -0.723  10.607  22.240  0.00  0.00    +0.000 A 
ATOM     16  C   UNL     1      -1.489  11.383  23.262  0.00  0.00    +0.000 C 
ATOM     17  C   UNL     1      -1.141  10.578  20.910  0.00  0.00    +0.000 A 
ATOM     18  C   UNL     1      -0.386   9.907  19.943  0.00  0.00    +0.000 A 
ATOM     19 CL   UNL     1      -0.891  10.135  18.305  0.00  0.00    +0.000 Cl
ENDBRANCH   7  12
BRANCH   1  20
ATOM     20  N   UNL     1       4.165   5.095  17.223  0.00  0.00    +0.000 N 
BRANCH  20  21
ATOM     21  C   UNL     1       4.015   3.750  16.609  0.00  0.00    +0.000 C 
BRANCH  21  23
ATOM     22  C   UNL     1       3.353   1.637  17.935  0.00  0.00    +0.000 C 
ATOM     23  C   UNL     1       2.892   2.882  17.198  0.00  0.00    +0.000 C 
ENDBRANCH  21  23
ENDBRANCH  20  21
BRANCH  20  24
ATOM     24  C   UNL     1       5.228   5.918  16.594  0.00  0.00    +0.000 C 
BRANCH  24  25
ATOM     25  C   UNL     1       5.622   5.425  15.196  0.00  0.00    +0.000 C 
ATOM     26  C   UNL     1       7.024   4.839  15.115  0.00  0.00    +0.000 C 
ENDBRANCH  24  25
ENDBRANCH  20  24
ENDBRANCH   1  20
TORSDOF 6
ENDMDL
MODEL 6
REMARK VINA RESULT:      -6.1      2.167      4.168
REMARK  Name = 
REMARK  11 active torsions:
REMARK  status: ('A' for Active; 'I' for Inactive)
REMARK    1  A    between atoms: C_1  and  C_2
REMARK    2  A    between atoms: C_2  and  C_3
REMARK    3  A    between atoms: C_3  and  N_4
REMARK    4  A    between atoms: N_4  and  C_5
REMARK    5  A    between atoms: N_4  and  C_8
REMARK    6  A    between atoms: C_5  and  C_6
REMARK    7  A    between atoms: C_6  and  C_7
REMARK    8  A    between atoms: C_10  and  C_11
REMARK    9  A    between atoms: C_14  and  C_15
REMARK   10  A    between atoms: C_18  and  C_19
REMARK   11  A    between atoms: C_23  and  C_24
REMARK                            x       y       z     vdW  Elec       q    Type
REMARK                         _______ _______ _______ _____ _____    ______ ____
ROOT
ATOM      1  C   UNL     1       2.904   5.849  19.443  0.00  0.00    +0.000 A 
ATOM      2  C   UNL     1       3.544   6.086  18.276  0.00  0.00    +0.000 A 
ATOM      3  C   UNL     1       3.427   7.422  17.643  0.00  0.00    +0.000 A 
ATOM      4  C   UNL     1       4.322   7.709  16.466  0.00  0.00    +0.000 C 
ATOM      5  N   UNL     1       2.646   8.371  18.055  0.00  0.00    +0.000 NA
ATOM      6  C   UNL     1       1.972   8.146  19.220  0.00  0.00    +0.000 A 
ATOM      7  C   UNL     1       1.182   8.993  19.983  0.00  0.00    +0.000 A 
ATOM      8  C   UNL     1       0.680   8.166  21.018  0.00  0.00    +0.000 A 
ATOM      9  C   UNL     1      -0.313   8.470  22.082  0.00  0.00    +0.000 C 
ATOM     10  N   UNL     1       1.236   6.951  21.007  0.00  0.00    +0.000 NA
ATOM     11  N   UNL     1       2.055   6.920  19.918  0.00  0.00    +0.000 N 
ENDROOT
BRANCH   7  12
ATOM     12  C   UNL     1       0.896  10.389  19.670  0.00  0.00    +0.000 A 
ATOM     13  N   UNL     1       1.665  11.272  20.374  0.00  0.00    +0.000 NA
ATOM     14  C   UNL     1       1.524  12.594  20.117  0.00  0.00    +0.000 A 
ATOM     15  C   UNL     1       0.620  13.113  19.203  0.00  0.00    +0.000 A 
ATOM     16  C   UNL     1       0.511  14.580  18.934  0.00  0.00    +0.000 C 
ATOM     17  C   UNL     1      -0.173  12.204  18.504  0.00  0.00    +0.000 A 
ATOM     18  C   UNL     1      -0.022  10.828  18.707  0.00  0.00    +0.000 A 
ATOM     19 CL   UNL     1      -0.902   9.809  17.623  0.00  0.00    +0.000 Cl
ENDBRANCH   7  12
BRANCH   1  20
ATOM     20  N   UNL     1       3.074   4.614  20.158  0.00  0.00    +0.000 N 
BRANCH  20  21
ATOM     21  C   UNL     1       2.269   4.251  21.353  0.00  0.00    +0.000 C 
BRANCH  21  23
ATOM     22  C   UNL     1       0.527   3.065  19.863  0.00  0.00    +0.000 C 
ATOM     23  C   UNL     1       1.312   3.064  21.163  0.00  0.00    +0.000 C 
ENDBRANCH  21  23
ENDBRANCH  20  21
BRANCH  20  24
ATOM     24  C   UNL     1       4.149   3.639  19.850  0.00  0.00    +0.000 C 
BRANCH  24  25
ATOM     25  C   UNL     1       3.960   2.944  18.495  0.00  0.00    +0.000 C 
ATOM     26  C   UNL     1       3.590   1.471  18.597  0.00  0.00    +0.000 C 
ENDBRANCH  24  25
ENDBRANCH  20  24
ENDBRANCH   1  20
TORSDOF 6
ENDMDL
MODEL 7
REMARK VINA RESULT:      -6.1      0.816      2.029
REMARK  Name = 
REMARK  11 active torsions:
REMARK  status: ('A' for Active; 'I' for Inactive)
REMARK    1  A    between atoms: C_1  and  C_2
REMARK    2  A    between atoms: C_2  and  C_3
REMARK    3  A    between atoms: C_3  and  N_4
REMARK    4  A    between atoms: N_4  and  C_5
REMARK    5  A    between atoms: N_4  and  C_8
REMARK    6  A    between atoms: C_5  and  C_6
REMARK    7  A    between atoms: C_6  and  C_7
REMARK    8  A    between atoms: C_10  and  C_11
REMARK    9  A    between atoms: C_14  and  C_15
REMARK   10  A    between atoms: C_18  and  C_19
REMARK   11  A    between atoms: C_23  and  C_24
REMARK                            x       y       z     vdW  Elec       q    Type
REMARK                         _______ _______ _______ _____ _____    ______ ____
ROOT
ATOM      1  C   UNL     1       3.548   5.609  18.421  0.00  0.00    +0.000 A 
ATOM      2  C   UNL     1       3.306   4.752  19.437  0.00  0.00    +0.000 A 
ATOM      3  C   UNL     1       2.413   5.172  20.545  0.00  0.00    +0.000 A 
ATOM      4  C   UNL     1       2.001   4.118  21.538  0.00  0.00    +0.000 C 
ATOM      5  N   UNL     1       1.928   6.365  20.692  0.00  0.00    +0.000 NA
ATOM      6  C   UNL     1       2.178   7.256  19.688  0.00  0.00    +0.000 A 
ATOM      7  C   UNL     1       1.698   8.540  19.482  0.00  0.00    +0.000 A 
ATOM      8  C   UNL     1       2.390   8.992  18.331  0.00  0.00    +0.000 A 
ATOM      9  C   UNL     1       2.389  10.331  17.685  0.00  0.00    +0.000 C 
ATOM     10  N   UNL     1       3.113   8.022  17.765  0.00  0.00    +0.000 NA
ATOM     11  N   UNL     1       2.982   6.932  18.572  0.00  0.00    +0.000 N 
ENDROOT
BRANCH   7  12
ATOM     12  C   UNL     1       0.765   9.242  20.357  0.00  0.00    +0.000 A 
ATOM     13  N   UNL     1       1.145   9.241  21.669  0.00  0.00    +0.000 NA
ATOM     14  C   UNL     1       0.382   9.918  22.559  0.00  0.00    +0.000 A 
ATOM     15  C   UNL     1      -0.786  10.587  22.228  0.00  0.00    +0.000 A 
ATOM     16  C   UNL     1      -1.589  11.339  23.241  0.00  0.00    +0.000 C 
ATOM     17  C   UNL     1      -1.175  10.564  20.889  0.00  0.00    +0.000 A 
ATOM     18  C   UNL     1      -0.387   9.917  19.933  0.00  0.00    +0.000 A 
ATOM     19 CL   UNL     1      -0.861  10.153  18.286  0.00  0.00    +0.000 Cl
ENDBRANCH   7  12
BRANCH   1  20
ATOM     20  N   UNL     1       4.311   5.215  17.269  0.00  0.00    +0.000 N 
BRANCH  20  21
ATOM     21  C   UNL     1       5.079   6.177  16.436  0.00  0.00    +0.000 C 
BRANCH  21  23
ATOM     22  C   UNL     1       7.224   6.521  17.830  0.00  0.00    +0.000 C 
ATOM     23  C   UNL     1       6.608   6.047  16.526  0.00  0.00    +0.000 C 
ENDBRANCH  21  23
ENDBRANCH  20  21
BRANCH  20  24
ATOM     24  C   UNL     1       4.308   3.834  16.726  0.00  0.00    +0.000 C 
BRANCH  24  25
ATOM     25  C   UNL     1       2.938   3.150  16.829  0.00  0.00    +0.000 C 
ATOM     26  C   UNL     1       2.915   1.936  17.746  0.00  0.00    +0.000 C 
ENDBRANCH  24  25
ENDBRANCH  20  24
ENDBRANCH   1  20
TORSDOF 6
ENDMDL
MODEL 8
REMARK VINA RESULT:      -6.1      3.775      6.688
REMARK  Name = 
REMARK  11 active torsions:
REMARK  status: ('A' for Active; 'I' for Inactive)
REMARK    1  A    between atoms: C_1  and  C_2
REMARK    2  A    between atoms: C_2  and  C_3
REMARK    3  A    between atoms: C_3  and  N_4
REMARK    4  A    between atoms: N_4  and  C_5
REMARK    5  A    between atoms: N_4  and  C_8
REMARK    6  A    between atoms: C_5  and  C_6
REMARK    7  A    between atoms: C_6  and  C_7
REMARK    8  A    between atoms: C_10  and  C_11
REMARK    9  A    between atoms: C_14  and  C_15
REMARK   10  A    between atoms: C_18  and  C_19
REMARK   11  A    between atoms: C_23  and  C_24
REMARK                            x       y       z     vdW  Elec       q    Type
REMARK                         _______ _______ _______ _____ _____    ______ ____
ROOT
ATOM      1  C   UNL     1       0.249  10.700  19.960  0.00  0.00    +0.000 A 
ATOM      2  C   UNL     1       0.256   9.876  21.031  0.00  0.00    +0.000 A 
ATOM      3  C   UNL     1      -0.095  10.418  22.366  0.00  0.00    +0.000 A 
ATOM      4  C   UNL     1      -0.283   9.429  23.486  0.00  0.00    +0.000 C 
ATOM      5  N   UNL     1      -0.293  11.672  22.627  0.00  0.00    +0.000 NA
ATOM      6  C   UNL     1      -0.283  12.528  21.563  0.00  0.00    +0.000 A 
ATOM      7  C   UNL     1      -0.590  13.878  21.489  0.00  0.00    +0.000 A 
ATOM      8  C   UNL     1      -0.299  14.230  20.147  0.00  0.00    +0.000 A 
ATOM      9  C   UNL     1      -0.317  15.562  19.488  0.00  0.00    +0.000 C 
ATOM     10  N   UNL     1       0.003  13.164  19.401  0.00  0.00    +0.000 NA
ATOM     11  N   UNL     1      -0.002  12.095  20.247  0.00  0.00    +0.000 N 
ENDROOT
BRANCH   7  12
ATOM     12  C   UNL     1      -1.016  14.709  22.610  0.00  0.00    +0.000 A 
ATOM     13  N   UNL     1      -0.005  15.453  23.149  0.00  0.00    +0.000 NA
ATOM     14  C   UNL     1      -0.303  16.307  24.157  0.00  0.00    +0.000 A 
ATOM     15  C   UNL     1      -1.569  16.450  24.702  0.00  0.00    +0.000 A 
ATOM     16  C   UNL     1      -1.858  17.420  25.802  0.00  0.00    +0.000 C 
ATOM     17  C   UNL     1      -2.590  15.671  24.157  0.00  0.00    +0.000 A 
ATOM     18  C   UNL     1      -2.330  14.813  23.083  0.00  0.00    +0.000 A 
ATOM     19 CL   UNL     1      -3.718  14.076  22.360  0.00  0.00    +0.000 Cl
ENDBRANCH   7  12
BRANCH   1  20
ATOM     20  N   UNL     1       0.468  10.206  18.628  0.00  0.00    +0.000 N 
BRANCH  20  21
ATOM     21  C   UNL     1       1.819  10.074  18.023  0.00  0.00    +0.000 C 
BRANCH  21  23
ATOM     22  C   UNL     1       2.348   7.667  18.790  0.00  0.00    +0.000 C 
ATOM     23  C   UNL     1       2.226   8.644  17.635  0.00  0.00    +0.000 C 
ENDBRANCH  21  23
ENDBRANCH  20  21
BRANCH  20  24
ATOM     24  C   UNL     1      -0.636   9.898  17.685  0.00  0.00    +0.000 C 
BRANCH  24  25
ATOM     25  C   UNL     1      -1.995  10.433  18.155  0.00  0.00    +0.000 C 
ATOM     26  C   UNL     1      -3.189   9.662  17.611  0.00  0.00    +0.000 C 
ENDBRANCH  24  25
ENDBRANCH  20  24
ENDBRANCH   1  20
TORSDOF 6
ENDMDL
MODEL 9
REMARK VINA RESULT:      -6.0      2.148      4.113
REMARK  Name = 
REMARK  11 active torsions:
REMARK  status: ('A' for Active; 'I' for Inactive)
REMARK    1  A    between atoms: C_1  and  C_2
REMARK    2  A    between atoms: C_2  and  C_3
REMARK    3  A    between atoms: C_3  and  N_4
REMARK    4  A    between atoms: N_4  and  C_5
REMARK    5  A    between atoms: N_4  and  C_8
REMARK    6  A    between atoms: C_5  and  C_6
REMARK    7  A    between atoms: C_6  and  C_7
REMARK    8  A    between atoms: C_10  and  C_11
REMARK    9  A    between atoms: C_14  and  C_15
REMARK   10  A    between atoms: C_18  and  C_19
REMARK   11  A    between atoms: C_23  and  C_24
REMARK                            x       y       z     vdW  Elec       q    Type
REMARK                         _______ _______ _______ _____ _____    ______ ____
ROOT
ATOM      1  C   UNL     1       2.793   5.973  19.543  0.00  0.00    +0.000 A 
ATOM      2  C   UNL     1       3.384   6.170  18.344  0.00  0.00    +0.000 A 
ATOM      3  C   UNL     1       3.251   7.489  17.677  0.00  0.00    +0.000 A 
ATOM      4  C   UNL     1       4.098   7.734  16.456  0.00  0.00    +0.000 C 
ATOM      5  N   UNL     1       2.496   8.457  18.094  0.00  0.00    +0.000 NA
ATOM      6  C   UNL     1       1.870   8.271  19.293  0.00  0.00    +0.000 A 
ATOM      7  C   UNL     1       1.121   9.147  20.063  0.00  0.00    +0.000 A 
ATOM      8  C   UNL     1       0.656   8.355  21.142  0.00  0.00    +0.000 A 
ATOM      9  C   UNL     1      -0.288   8.699  22.239  0.00  0.00    +0.000 C 
ATOM     10  N   UNL     1       1.201   7.135  21.143  0.00  0.00    +0.000 NA
ATOM     11  N   UNL     1       1.973   7.065  20.022  0.00  0.00    +0.000 N 
ENDROOT
BRANCH   7  12
ATOM     12  C   UNL     1       0.833  10.536  19.722  0.00  0.00    +0.000 A 
ATOM     13  N   UNL     1       1.600  11.434  20.409  0.00  0.00    +0.000 NA
ATOM     14  C   UNL     1       1.457  12.750  20.125  0.00  0.00    +0.000 A 
ATOM     15  C   UNL     1       0.554  13.250  19.201  0.00  0.00    +0.000 A 
ATOM     16  C   UNL     1       0.443  14.711  18.903  0.00  0.00    +0.000 C 
ATOM     17  C   UNL     1      -0.237  12.326  18.519  0.00  0.00    +0.000 A 
ATOM     18  C   UNL     1      -0.085  10.955  18.750  0.00  0.00    +0.000 A 
ATOM     19 CL   UNL     1      -0.962   9.912  17.685  0.00  0.00    +0.000 Cl
ENDBRANCH   7  12
BRANCH   1  20
ATOM     20  N   UNL     1       2.983   4.757  20.286  0.00  0.00    +0.000 N 
BRANCH  20  21
ATOM     21  C   UNL     1       4.262   4.002  20.294  0.00  0.00    +0.000 C 
BRANCH  21  23
ATOM     22  C   UNL     1       4.031   2.696  18.080  0.00  0.00    +0.000 C 
ATOM     23  C   UNL     1       4.223   2.640  19.585  0.00  0.00    +0.000 C 
ENDBRANCH  21  23
ENDBRANCH  20  21
BRANCH  20  24
ATOM     24  C   UNL     1       1.887   4.074  21.017  0.00  0.00    +0.000 C 
BRANCH  24  25
ATOM     25  C   UNL     1       0.650   3.819  20.147  0.00  0.00    +0.000 C 
ATOM     26  C   UNL     1       0.729   2.551  19.308  0.00  0.00    +0.000 C 
ENDBRANCH  24  25
ENDBRANCH  20  24
ENDBRANCH   1  20
TORSDOF 6
ENDMDL
