MODEL 1
REMARK VINA RESULT:      -6.7      0.000      0.000
REMARK  Name = 
REMARK  6 active torsions:
REMARK  status: ('A' for Active; 'I' for Inactive)
REMARK    1  A    between atoms: O_1  and  C_2
REMARK    2  A    between atoms: N_4  and  C_5
REMARK    3  A    between atoms: C_13  and  N_14
REMARK    4  A    between atoms: N_17  and  C_18
REMARK    5  A    between atoms: C_18  and  C_19
REMARK    6  A    between atoms: C_19  and  C_20
REMARK                            x       y       z     vdW  Elec       q    Type
REMARK                         _______ _______ _______ _____ _____    ______ ____
ROOT
ATOM      1  C   UNL     1       1.482   9.033  18.034  0.00  0.00    +0.000 C 
ATOM      2  C   UNL     1       0.169   9.839  18.172  0.00  0.00    +0.000 C 
ATOM      3  N   UNL     1      -0.009  10.565  19.451  0.00  0.00    +0.000 NA
ATOM      4  C   UNL     1       0.024   9.537  20.507  0.00  0.00    +0.000 C 
ATOM      5  C   UNL     1       1.358   8.799  20.619  0.00  0.00    +0.000 C 
ATOM      6  C   UNL     1       1.895   8.202  19.295  0.00  0.00    +0.000 C 
ENDROOT
BRANCH   3   7
ATOM      7  C   UNL     1       0.966  11.680  19.618  0.00  0.00    +0.000 C 
ATOM      8  C   UNL     1       0.847  12.716  18.475  0.00  0.00    +0.000 C 
ATOM      9  C   UNL     1      -0.412  13.569  18.581  0.00  0.00    +0.000 C 
ATOM     10  C   UNL     1      -0.433  14.353  19.885  0.00  0.00    +0.000 C 
ATOM     11  C   UNL     1      -0.210  13.476  21.112  0.00  0.00    +0.000 C 
ATOM     12  C   UNL     1       0.918  12.457  20.959  0.00  0.00    +0.000 C 
ENDBRANCH   3   7
BRANCH   6  13
ATOM     13  N   UNL     1       1.669   6.730  19.200  0.00  0.00    +0.000 NA
ATOM     14  C   UNL     1       1.823   6.078  20.521  0.00  0.00    +0.000 C 
ATOM     15  C   UNL     1       1.999   4.544  20.502  0.00  0.00    +0.000 C 
ATOM     16  N   UNL     1       2.987   4.052  19.518  0.00  0.00    +0.000 NA
ATOM     17  C   UNL     1       2.513   4.531  18.202  0.00  0.00    +0.000 C 
ATOM     18  C   UNL     1       2.377   6.074  18.094  0.00  0.00    +0.000 C 
BRANCH  16  19
ATOM     19  C   UNL     1       4.368   4.525  19.780  0.00  0.00    +0.000 C 
BRANCH  19  20
ATOM     20  C   UNL     1       5.363   4.222  18.648  0.00  0.00    +0.000 C 
BRANCH  20  21
ATOM     21  C   UNL     1       6.242   5.410  18.317  0.00  0.00    +0.000 A 
ATOM     22  C   UNL     1       5.887   6.289  17.283  0.00  0.00    +0.000 A 
ATOM     23  C   UNL     1       6.667   7.416  17.014  0.00  0.00    +0.000 A 
ATOM     24  C   UNL     1       7.810   7.668  17.771  0.00  0.00    +0.000 A 
ATOM     25  C   UNL     1       8.182   6.791  18.789  0.00  0.00    +0.000 A 
ATOM     26  C   UNL     1       7.408   5.657  19.052  0.00  0.00    +0.000 A 
ENDBRANCH  20  21
ENDBRANCH  19  20
ENDBRANCH  16  19
ENDBRANCH   6  13
BRANCH   1  27
ATOM     27  O   UNL     1       2.580   9.881  17.654  0.00  0.00    +0.000 OA
ATOM     28  H   UNL     1       2.239  10.534  17.020  0.00  0.00    +0.000 HD
ENDBRANCH   1  27
TORSDOF 6
ENDMDL
MODEL 2
REMARK VINA RESULT:      -6.6      2.119      4.265
REMARK  Name = 
REMARK  6 active torsions:
REMARK  status: ('A' for Active; 'I' for Inactive)
REMARK    1  A    between atoms: O_1  and  C_2
REMARK    2  A    between atoms: N_4  and  C_5
REMARK    3  A    between atoms: C_13  and  N_14
REMARK    4  A    between atoms: N_17  and  C_18
REMARK    5  A    between atoms: C_18  and  C_19
REMARK    6  A    between atoms: C_19  and  C_20
REMARK                            x       y       z     vdW  Elec       q    Type
REMARK                         _______ _______ _______ _____ _____    ______ ____
ROOT
ATOM      1  C   UNL     1       1.878   8.067  20.325  0.00  0.00    +0.000 C 
ATOM      2  C   UNL     1       1.822   9.602  20.512  0.00  0.00    +0.000 C 
ATOM      3  N   UNL     1       1.056  10.347  19.487  0.00  0.00    +0.000 NA
ATOM      4  C   UNL     1       1.713  10.056  18.200  0.00  0.00    +0.000 C 
ATOM      5  C   UNL     1       1.654   8.584  17.789  0.00  0.00    +0.000 C 
ATOM      6  C   UNL     1       2.141   7.579  18.861  0.00  0.00    +0.000 C 
ENDROOT
BRANCH   3   7
ATOM      7  C   UNL     1      -0.405  10.055  19.536  0.00  0.00    +0.000 C 
ATOM      8  C   UNL     1      -1.049  10.593  20.836  0.00  0.00    +0.000 C 
ATOM      9  C   UNL     1      -1.176  12.111  20.847  0.00  0.00    +0.000 C 
ATOM     10  C   UNL     1      -2.046  12.595  19.696  0.00  0.00    +0.000 C 
ATOM     11  C   UNL     1      -1.603  12.050  18.343  0.00  0.00    +0.000 C 
ATOM     12  C   UNL     1      -1.261  10.561  18.348  0.00  0.00    +0.000 C 
ENDBRANCH   3   7
BRANCH   6  13
ATOM     13  N   UNL     1       3.518   7.075  18.587  0.00  0.00    +0.000 NA
ATOM     14  C   UNL     1       3.767   6.961  17.131  0.00  0.00    +0.000 C 
ATOM     15  C   UNL     1       4.981   6.103  16.716  0.00  0.00    +0.000 C 
ATOM     16  N   UNL     1       5.071   4.795  17.403  0.00  0.00    +0.000 NA
ATOM     17  C   UNL     1       5.129   5.105  18.846  0.00  0.00    +0.000 C 
ATOM     18  C   UNL     1       3.908   5.902  19.380  0.00  0.00    +0.000 C 
BRANCH  16  19
ATOM     19  C   UNL     1       3.932   3.894  17.106  0.00  0.00    +0.000 C 
BRANCH  19  20
ATOM     20  C   UNL     1       3.920   2.599  17.935  0.00  0.00    +0.000 C 
BRANCH  20  21
ATOM     21  C   UNL     1       2.958   2.667  19.102  0.00  0.00    +0.000 A 
ATOM     22  C   UNL     1       3.411   2.438  20.410  0.00  0.00    +0.000 A 
ATOM     23  C   UNL     1       2.534   2.556  21.492  0.00  0.00    +0.000 A 
ATOM     24  C   UNL     1       1.201   2.897  21.274  0.00  0.00    +0.000 A 
ATOM     25  C   UNL     1       0.736   3.108  19.977  0.00  0.00    +0.000 A 
ATOM     26  C   UNL     1       1.609   2.979  18.892  0.00  0.00    +0.000 A 
ENDBRANCH  20  21
ENDBRANCH  19  20
ENDBRANCH  16  19
ENDBRANCH   6  13
BRANCH   1  27
ATOM     27  O   UNL     1       0.686   7.435  20.821  0.00  0.00    +0.000 OA
ATOM     28  H   UNL     1       0.478   7.837  21.682  0.00  0.00    +0.000 HD
ENDBRANCH   1  27
TORSDOF 6
ENDMDL
MODEL 3
REMARK VINA RESULT:      -6.4      2.615      4.421
REMARK  Name = 
REMARK  6 active torsions:
REMARK  status: ('A' for Active; 'I' for Inactive)
REMARK    1  A    between atoms: O_1  and  C_2
REMARK    2  A    between atoms: N_4  and  C_5
REMARK    3  A    between atoms: C_13  and  N_14
REMARK    4  A    between atoms: N_17  and  C_18
REMARK    5  A    between atoms: C_18  and  C_19
REMARK    6  A    between atoms: C_19  and  C_20
REMARK                            x       y       z     vdW  Elec       q    Type
REMARK                         _______ _______ _______ _____ _____    ______ ____
ROOT
ATOM      1  C   UNL     1       0.441   8.801  21.519  0.00  0.00    +0.000 C 
ATOM      2  C   UNL     1       0.682  10.064  22.379  0.00  0.00    +0.000 C 
ATOM      3  N   UNL     1       0.208  11.341  21.795  0.00  0.00    +0.000 NA
ATOM      4  C   UNL     1       0.933  11.496  20.522  0.00  0.00    +0.000 C 
ATOM      5  C   UNL     1       0.619  10.413  19.489  0.00  0.00    +0.000 C 
ATOM      6  C   UNL     1       0.763   8.957  19.995  0.00  0.00    +0.000 C 
ENDROOT
BRANCH   3   7
ATOM      7  C   UNL     1      -1.278  11.409  21.694  0.00  0.00    +0.000 C 
ATOM      8  C   UNL     1      -1.924  11.780  23.051  0.00  0.00    +0.000 C 
ATOM      9  C   UNL     1      -1.708  13.241  23.427  0.00  0.00    +0.000 C 
ATOM     10  C   UNL     1      -2.316  14.169  22.386  0.00  0.00    +0.000 C 
ATOM     11  C   UNL     1      -1.861  13.852  20.966  0.00  0.00    +0.000 C 
ATOM     12  C   UNL     1      -1.863  12.363  20.623  0.00  0.00    +0.000 C 
ENDBRANCH   3   7
BRANCH   6  13
ATOM     13  N   UNL     1       2.028   8.315  19.534  0.00  0.00    +0.000 NA
ATOM     14  C   UNL     1       2.143   8.355  18.057  0.00  0.00    +0.000 C 
ATOM     15  C   UNL     1       3.187   7.404  17.433  0.00  0.00    +0.000 C 
ATOM     16  N   UNL     1       3.144   6.020  17.953  0.00  0.00    +0.000 NA
ATOM     17  C   UNL     1       3.359   6.134  19.411  0.00  0.00    +0.000 C 
ATOM     18  C   UNL     1       2.310   7.011  20.147  0.00  0.00    +0.000 C 
BRANCH  16  19
ATOM     19  C   UNL     1       1.869   5.320  17.666  0.00  0.00    +0.000 C 
BRANCH  19  20
ATOM     20  C   UNL     1       1.966   3.787  17.709  0.00  0.00    +0.000 C 
BRANCH  20  21
ATOM     21  C   UNL     1       2.102   3.255  19.120  0.00  0.00    +0.000 A 
ATOM     22  C   UNL     1       3.312   2.693  19.553  0.00  0.00    +0.000 A 
ATOM     23  C   UNL     1       3.455   2.253  20.872  0.00  0.00    +0.000 A 
ATOM     24  C   UNL     1       2.390   2.366  21.763  0.00  0.00    +0.000 A 
ATOM     25  C   UNL     1       1.177   2.906  21.338  0.00  0.00    +0.000 A 
ATOM     26  C   UNL     1       1.029   3.336  20.015  0.00  0.00    +0.000 A 
ENDBRANCH  20  21
ENDBRANCH  19  20
ENDBRANCH  16  19
ENDBRANCH   6  13
BRANCH   1  27
ATOM     27  O   UNL     1      -0.905   8.317  21.665  0.00  0.00    +0.000 OA
ATOM     28  H   UNL     1      -1.503   9.024  21.368  0.00  0.00    +0.000 HD
ENDBRANCH   1  27
TORSDOF 6
ENDMDL
MODEL 4
REMARK VINA RESULT:      -6.4      0.415      1.009
REMARK  Name = 
REMARK  6 active torsions:
REMARK  status: ('A' for Active; 'I' for Inactive)
REMARK    1  A    between atoms: O_1  and  C_2
REMARK    2  A    between atoms: N_4  and  C_5
REMARK    3  A    between atoms: C_13  and  N_14
REMARK    4  A    between atoms: N_17  and  C_18
REMARK    5  A    between atoms: C_18  and  C_19
REMARK    6  A    between atoms: C_19  and  C_20
REMARK                            x       y       z     vdW  Elec       q    Type
REMARK                         _______ _______ _______ _____ _____    ______ ____
ROOT
ATOM      1  C   UNL     1       1.717   8.685  18.013  0.00  0.00    +0.000 C 
ATOM      2  C   UNL     1       0.441   9.554  18.106  0.00  0.00    +0.000 C 
ATOM      3  N   UNL     1       0.264  10.305  19.370  0.00  0.00    +0.000 NA
ATOM      4  C   UNL     1       0.219   9.291  20.439  0.00  0.00    +0.000 C 
ATOM      5  C   UNL     1       1.514   8.493  20.596  0.00  0.00    +0.000 C 
ATOM      6  C   UNL     1       2.056   7.853  19.295  0.00  0.00    +0.000 C 
ENDROOT
BRANCH   3   7
ATOM      7  C   UNL     1       1.286  11.375  19.550  0.00  0.00    +0.000 C 
ATOM      8  C   UNL     1       1.205  12.434  18.425  0.00  0.00    +0.000 C 
ATOM      9  C   UNL     1      -0.016  13.337  18.551  0.00  0.00    +0.000 C 
ATOM     10  C   UNL     1       0.002  14.100  19.868  0.00  0.00    +0.000 C 
ATOM     11  C   UNL     1       0.194  13.194  21.079  0.00  0.00    +0.000 C 
ATOM     12  C   UNL     1       1.276  12.131  20.903  0.00  0.00    +0.000 C 
ENDBRANCH   3   7
BRANCH   6  13
ATOM     13  N   UNL     1       1.763   6.392  19.212  0.00  0.00    +0.000 NA
ATOM     14  C   UNL     1       2.058   5.713  20.495  0.00  0.00    +0.000 C 
ATOM     15  C   UNL     1       2.171   4.174  20.436  0.00  0.00    +0.000 C 
ATOM     16  N   UNL     1       3.006   3.662  19.327  0.00  0.00    +0.000 NA
ATOM     17  C   UNL     1       2.388   4.181  18.089  0.00  0.00    +0.000 C 
ATOM     18  C   UNL     1       2.300   5.729  18.017  0.00  0.00    +0.000 C 
BRANCH  16  19
ATOM     19  C   UNL     1       4.426   4.079  19.417  0.00  0.00    +0.000 C 
BRANCH  19  20
ATOM     20  C   UNL     1       5.113   4.277  18.056  0.00  0.00    +0.000 C 
BRANCH  20  21
ATOM     21  C   UNL     1       6.068   5.452  18.054  0.00  0.00    +0.000 A 
ATOM     22  C   UNL     1       7.192   5.454  18.892  0.00  0.00    +0.000 A 
ATOM     23  C   UNL     1       8.103   6.513  18.850  0.00  0.00    +0.000 A 
ATOM     24  C   UNL     1       7.894   7.577  17.976  0.00  0.00    +0.000 A 
ATOM     25  C   UNL     1       6.770   7.594  17.152  0.00  0.00    +0.000 A 
ATOM     26  C   UNL     1       5.851   6.541  17.201  0.00  0.00    +0.000 A 
ENDBRANCH  20  21
ENDBRANCH  19  20
ENDBRANCH  16  19
ENDBRANCH   6  13
BRANCH   1  27
ATOM     27  O   UNL     1       2.864   9.475  17.653  0.00  0.00    +0.000 OA
ATOM     28  H   UNL     1       3.496   9.425  18.390  0.00  0.00    +0.000 HD
ENDBRANCH   1  27
TORSDOF 6
ENDMDL
MODEL 5
REMARK VINA RESULT:      -6.4      8.206     10.516
REMARK  Name = 
REMARK  6 active torsions:
REMARK  status: ('A' for Active; 'I' for Inactive)
REMARK    1  A    between atoms: O_1  and  C_2
REMARK    2  A    between atoms: N_4  and  C_5
REMARK    3  A    between atoms: C_13  and  N_14
REMARK    4  A    between atoms: N_17  and  C_18
REMARK    5  A    between atoms: C_18  and  C_19
REMARK    6  A    between atoms: C_19  and  C_20
REMARK                            x       y       z     vdW  Elec       q    Type
REMARK                         _______ _______ _______ _____ _____    ______ ____
ROOT
ATOM      1  C   UNL     1       7.926  15.527  20.080  0.00  0.00    +0.000 C 
ATOM      2  C   UNL     1       8.208  14.053  20.459  0.00  0.00    +0.000 C 
ATOM      3  N   UNL     1       8.816  13.836  21.792  0.00  0.00    +0.000 NA
ATOM      4  C   UNL     1      10.094  14.569  21.777  0.00  0.00    +0.000 C 
ATOM      5  C   UNL     1       9.945  16.082  21.619  0.00  0.00    +0.000 C 
ATOM      6  C   UNL     1       9.071  16.538  20.425  0.00  0.00    +0.000 C 
ENDROOT
BRANCH   3   7
ATOM      7  C   UNL     1       7.893  14.190  22.908  0.00  0.00    +0.000 C 
ATOM      8  C   UNL     1       6.589  13.359  22.853  0.00  0.00    +0.000 C 
ATOM      9  C   UNL     1       6.799  11.904  23.257  0.00  0.00    +0.000 C 
ATOM     10  C   UNL     1       7.323  11.802  24.682  0.00  0.00    +0.000 C 
ATOM     11  C   UNL     1       8.554  12.667  24.929  0.00  0.00    +0.000 C 
ATOM     12  C   UNL     1       8.458  14.076  24.346  0.00  0.00    +0.000 C 
ENDBRANCH   3   7
BRANCH   6  13
ATOM     13  N   UNL     1       9.885  17.009  19.268  0.00  0.00    +0.000 NA
ATOM     14  C   UNL     1       9.583  16.226  18.046  0.00  0.00    +0.000 C 
ATOM     15  C   UNL     1      10.608  16.341  16.897  0.00  0.00    +0.000 C 
ATOM     16  N   UNL     1      12.019  16.198  17.318  0.00  0.00    +0.000 NA
ATOM     17  C   UNL     1      12.247  17.260  18.319  0.00  0.00    +0.000 C 
ATOM     18  C   UNL     1      11.314  17.186  19.557  0.00  0.00    +0.000 C 
BRANCH  16  19
ATOM     19  C   UNL     1      12.332  14.865  17.889  0.00  0.00    +0.000 C 
BRANCH  19  20
ATOM     20  C   UNL     1      11.747  13.685  17.096  0.00  0.00    +0.000 C 
BRANCH  20  21
ATOM     21  C   UNL     1      11.027  12.692  17.983  0.00  0.00    +0.000 A 
ATOM     22  C   UNL     1       9.843  12.079  17.547  0.00  0.00    +0.000 A 
ATOM     23  C   UNL     1       9.210  11.120  18.342  0.00  0.00    +0.000 A 
ATOM     24  C   UNL     1       9.751  10.773  19.578  0.00  0.00    +0.000 A 
ATOM     25  C   UNL     1      10.918  11.389  20.029  0.00  0.00    +0.000 A 
ATOM     26  C   UNL     1      11.547  12.356  19.239  0.00  0.00    +0.000 A 
ENDBRANCH  20  21
ENDBRANCH  19  20
ENDBRANCH  16  19
ENDBRANCH   6  13
BRANCH   1  27
ATOM     27  O   UNL     1       6.699  15.993  20.667  0.00  0.00    +0.000 OA
ATOM     28  H   UNL     1       6.050  15.272  20.600  0.00  0.00    +0.000 HD
ENDBRANCH   1  27
TORSDOF 6
ENDMDL
MODEL 6
REMARK VINA RESULT:      -6.3      0.943      1.101
REMARK  Name = 
REMARK  6 active torsions:
REMARK  status: ('A' for Active; 'I' for Inactive)
REMARK    1  A    between atoms: O_1  and  C_2
REMARK    2  A    between atoms: N_4  and  C_5
REMARK    3  A    between atoms: C_13  and  N_14
REMARK    4  A    between atoms: N_17  and  C_18
REMARK    5  A    between atoms: C_18  and  C_19
REMARK    6  A    between atoms: C_19  and  C_20
REMARK                            x       y       z     vdW  Elec       q    Type
REMARK                         _______ _______ _______ _____ _____    ______ ____
ROOT
ATOM      1  C   UNL     1       1.690   8.627  18.021  0.00  0.00    +0.000 C 
ATOM      2  C   UNL     1       0.308   9.295  18.213  0.00  0.00    +0.000 C 
ATOM      3  N   UNL     1       0.116  10.021  19.489  0.00  0.00    +0.000 NA
ATOM      4  C   UNL     1       0.305   9.022  20.555  0.00  0.00    +0.000 C 
ATOM      5  C   UNL     1       1.713   8.428  20.611  0.00  0.00    +0.000 C 
ATOM      6  C   UNL     1       2.246   7.866  19.271  0.00  0.00    +0.000 C 
ENDROOT
BRANCH   3   7
ATOM      7  C   UNL     1       0.976  11.235  19.595  0.00  0.00    +0.000 C 
ATOM      8  C   UNL     1       0.634  12.271  18.498  0.00  0.00    +0.000 C 
ATOM      9  C   UNL     1      -0.693  12.978  18.748  0.00  0.00    +0.000 C 
ATOM     10  C   UNL     1      -0.671  13.731  20.070  0.00  0.00    +0.000 C 
ATOM     11  C   UNL     1      -0.235  12.862  21.244  0.00  0.00    +0.000 C 
ATOM     12  C   UNL     1       0.976  11.977  20.955  0.00  0.00    +0.000 C 
ENDBRANCH   3   7
BRANCH   6  13
ATOM     13  N   UNL     1       2.170   6.377  19.206  0.00  0.00    +0.000 NA
ATOM     14  C   UNL     1       3.446   5.757  19.634  0.00  0.00    +0.000 C 
ATOM     15  C   UNL     1       3.638   4.273  19.253  0.00  0.00    +0.000 C 
ATOM     16  N   UNL     1       3.305   3.952  17.849  0.00  0.00    +0.000 NA
ATOM     17  C   UNL     1       1.892   4.349  17.673  0.00  0.00    +0.000 C 
ATOM     18  C   UNL     1       1.608   5.848  17.957  0.00  0.00    +0.000 C 
BRANCH  16  19
ATOM     19  C   UNL     1       4.169   4.645  16.863  0.00  0.00    +0.000 C 
BRANCH  19  20
ATOM     20  C   UNL     1       5.641   4.201  16.892  0.00  0.00    +0.000 C 
BRANCH  20  21
ATOM     21  C   UNL     1       6.556   5.267  17.455  0.00  0.00    +0.000 A 
ATOM     22  C   UNL     1       6.677   6.509  16.814  0.00  0.00    +0.000 A 
ATOM     23  C   UNL     1       7.479   7.513  17.364  0.00  0.00    +0.000 A 
ATOM     24  C   UNL     1       8.169   7.281  18.552  0.00  0.00    +0.000 A 
ATOM     25  C   UNL     1       8.070   6.044  19.187  0.00  0.00    +0.000 A 
ATOM     26  C   UNL     1       7.278   5.034  18.632  0.00  0.00    +0.000 A 
ENDBRANCH  20  21
ENDBRANCH  19  20
ENDBRANCH  16  19
ENDBRANCH   6  13
BRANCH   1  27
ATOM     27  O   UNL     1       2.674   9.577  17.577  0.00  0.00    +0.000 OA
ATOM     28  H   UNL     1       2.539   9.714  16.624  0.00  0.00    +0.000 HD
ENDBRANCH   1  27
TORSDOF 6
ENDMDL
MODEL 7
REMARK VINA RESULT:      -6.3      3.059      6.817
REMARK  Name = 
REMARK  6 active torsions:
REMARK  status: ('A' for Active; 'I' for Inactive)
REMARK    1  A    between atoms: O_1  and  C_2
REMARK    2  A    between atoms: N_4  and  C_5
REMARK    3  A    between atoms: C_13  and  N_14
REMARK    4  A    between atoms: N_17  and  C_18
REMARK    5  A    between atoms: C_18  and  C_19
REMARK    6  A    between atoms: C_19  and  C_20
REMARK                            x       y       z     vdW  Elec       q    Type
REMARK                         _______ _______ _______ _____ _____    ______ ____
ROOT
ATOM      1  C   UNL     1       4.446   3.529  17.105  0.00  0.00    +0.000 C 
ATOM      2  C   UNL     1       4.289   5.059  16.938  0.00  0.00    +0.000 C 
ATOM      3  N   UNL     1       5.245   5.892  17.703  0.00  0.00    +0.000 NA
ATOM      4  C   UNL     1       5.033   5.552  19.121  0.00  0.00    +0.000 C 
ATOM      5  C   UNL     1       5.359   4.099  19.470  0.00  0.00    +0.000 C 
ATOM      6  C   UNL     1       4.681   3.036  18.573  0.00  0.00    +0.000 C 
ENDROOT
BRANCH   3   7
ATOM      7  C   UNL     1       6.647   5.749  17.217  0.00  0.00    +0.000 C 
ATOM      8  C   UNL     1       7.148   7.045  16.536  0.00  0.00    +0.000 C 
ATOM      9  C   UNL     1       7.423   8.166  17.531  0.00  0.00    +0.000 C 
ATOM     10  C   UNL     1       8.494   7.757  18.533  0.00  0.00    +0.000 C 
ATOM     11  C   UNL     1       8.197   6.425  19.212  0.00  0.00    +0.000 C 
ATOM     12  C   UNL     1       7.711   5.330  18.263  0.00  0.00    +0.000 C 
ENDBRANCH   3   7
BRANCH   6  13
ATOM     13  N   UNL     1       3.505   2.398  19.234  0.00  0.00    +0.000 NA
ATOM     14  C   UNL     1       2.337   2.353  18.323  0.00  0.00    +0.000 C 
ATOM     15  C   UNL     1       0.970   2.081  18.987  0.00  0.00    +0.000 C 
ATOM     16  N   UNL     1       0.705   2.890  20.197  0.00  0.00    +0.000 NA
ATOM     17  C   UNL     1       1.804   2.578  21.135  0.00  0.00    +0.000 C 
ATOM     18  C   UNL     1       3.222   2.891  20.587  0.00  0.00    +0.000 C 
BRANCH  16  19
ATOM     19  C   UNL     1       0.642   4.347  19.931  0.00  0.00    +0.000 C 
BRANCH  19  20
ATOM     20  C   UNL     1       1.648   5.180  20.743  0.00  0.00    +0.000 C 
BRANCH  20  21
ATOM     21  C   UNL     1       1.592   6.653  20.397  0.00  0.00    +0.000 A 
ATOM     22  C   UNL     1       2.091   7.114  19.170  0.00  0.00    +0.000 A 
ATOM     23  C   UNL     1       1.989   8.465  18.827  0.00  0.00    +0.000 A 
ATOM     24  C   UNL     1       1.394   9.363  19.710  0.00  0.00    +0.000 A 
ATOM     25  C   UNL     1       0.911   8.920  20.940  0.00  0.00    +0.000 A 
ATOM     26  C   UNL     1       1.023   7.570  21.289  0.00  0.00    +0.000 A 
ENDBRANCH  20  21
ENDBRANCH  19  20
ENDBRANCH  16  19
ENDBRANCH   6  13
BRANCH   1  27
ATOM     27  O   UNL     1       5.495   3.016  16.267  0.00  0.00    +0.000 OA
ATOM     28  H   UNL     1       6.328   3.427  16.556  0.00  0.00    +0.000 HD
ENDBRANCH   1  27
TORSDOF 6
ENDMDL
MODEL 8
REMARK VINA RESULT:      -6.2      1.226      1.574
REMARK  Name = 
REMARK  6 active torsions:
REMARK  status: ('A' for Active; 'I' for Inactive)
REMARK    1  A    between atoms: O_1  and  C_2
REMARK    2  A    between atoms: N_4  and  C_5
REMARK    3  A    between atoms: C_13  and  N_14
REMARK    4  A    between atoms: N_17  and  C_18
REMARK    5  A    between atoms: C_18  and  C_19
REMARK    6  A    between atoms: C_19  and  C_20
REMARK                            x       y       z     vdW  Elec       q    Type
REMARK                         _______ _______ _______ _____ _____    ______ ____
ROOT
ATOM      1  C   UNL     1       1.146   9.523  18.037  0.00  0.00    +0.000 C 
ATOM      2  C   UNL     1      -0.152  10.308  18.342  0.00  0.00    +0.000 C 
ATOM      3  N   UNL     1      -0.157  11.076  19.609  0.00  0.00    +0.000 NA
ATOM      4  C   UNL     1       0.057  10.087  20.681  0.00  0.00    +0.000 C 
ATOM      5  C   UNL     1       1.410   9.380  20.618  0.00  0.00    +0.000 C 
ATOM      6  C   UNL     1       1.760   8.746  19.249  0.00  0.00    +0.000 C 
ENDROOT
BRANCH   3   7
ATOM      7  C   UNL     1       0.805  12.215  19.594  0.00  0.00    +0.000 C 
ATOM      8  C   UNL     1       0.337  13.341  18.641  0.00  0.00    +0.000 C 
ATOM      9  C   UNL     1      -0.850  14.123  19.190  0.00  0.00    +0.000 C 
ATOM     10  C   UNL     1      -0.502  14.788  20.514  0.00  0.00    +0.000 C 
ATOM     11  C   UNL     1       0.087  13.818  21.531  0.00  0.00    +0.000 C 
ATOM     12  C   UNL     1       1.138  12.868  20.959  0.00  0.00    +0.000 C 
ENDBRANCH   3   7
BRANCH   6  13
ATOM     13  N   UNL     1       1.559   7.268  19.236  0.00  0.00    +0.000 NA
ATOM     14  C   UNL     1       1.964   6.661  20.526  0.00  0.00    +0.000 C 
ATOM     15  C   UNL     1       2.173   5.131  20.518  0.00  0.00    +0.000 C 
ATOM     16  N   UNL     1       2.980   4.628  19.385  0.00  0.00    +0.000 NA
ATOM     17  C   UNL     1       2.267   5.056  18.164  0.00  0.00    +0.000 C 
ATOM     18  C   UNL     1       2.074   6.591  18.039  0.00  0.00    +0.000 C 
BRANCH  16  19
ATOM     19  C   UNL     1       4.373   5.137  19.382  0.00  0.00    +0.000 C 
BRANCH  19  20
ATOM     20  C   UNL     1       5.418   4.113  18.907  0.00  0.00    +0.000 C 
BRANCH  20  21
ATOM     21  C   UNL     1       5.838   4.338  17.471  0.00  0.00    +0.000 A 
ATOM     22  C   UNL     1       4.995   3.957  16.416  0.00  0.00    +0.000 A 
ATOM     23  C   UNL     1       5.358   4.216  15.092  0.00  0.00    +0.000 A 
ATOM     24  C   UNL     1       6.567   4.851  14.813  0.00  0.00    +0.000 A 
ATOM     25  C   UNL     1       7.421   5.217  15.852  0.00  0.00    +0.000 A 
ATOM     26  C   UNL     1       7.064   4.949  17.177  0.00  0.00    +0.000 A 
ENDBRANCH  20  21
ENDBRANCH  19  20
ENDBRANCH  16  19
ENDBRANCH   6  13
BRANCH   1  27
ATOM     27  O   UNL     1       2.154  10.378  17.471  0.00  0.00    +0.000 OA
ATOM     28  H   UNL     1       2.404  11.025  18.152  0.00  0.00    +0.000 HD
ENDBRANCH   1  27
TORSDOF 6
ENDMDL
MODEL 9
REMARK VINA RESULT:      -6.1      2.481      8.322
REMARK  Name = 
REMARK  6 active torsions:
REMARK  status: ('A' for Active; 'I' for Inactive)
REMARK    1  A    between atoms: O_1  and  C_2
REMARK    2  A    between atoms: N_4  and  C_5
REMARK    3  A    between atoms: C_13  and  N_14
REMARK    4  A    between atoms: N_17  and  C_18
REMARK    5  A    between atoms: C_18  and  C_19
REMARK    6  A    between atoms: C_19  and  C_20
REMARK                            x       y       z     vdW  Elec       q    Type
REMARK                         _______ _______ _______ _____ _____    ______ ____
ROOT
ATOM      1  C   UNL     1       2.413   7.680  18.835  0.00  0.00    +0.000 C 
ATOM      2  C   UNL     1       3.461   6.581  19.130  0.00  0.00    +0.000 C 
ATOM      3  N   UNL     1       2.918   5.280  19.585  0.00  0.00    +0.000 NA
ATOM      4  C   UNL     1       2.174   5.563  20.825  0.00  0.00    +0.000 C 
ATOM      5  C   UNL     1       0.968   6.484  20.633  0.00  0.00    +0.000 C 
ATOM      6  C   UNL     1       1.261   7.809  19.888  0.00  0.00    +0.000 C 
ENDROOT
BRANCH   3   7
ATOM      7  C   UNL     1       2.141   4.580  18.522  0.00  0.00    +0.000 C 
ATOM      8  C   UNL     1       3.050   4.135  17.352  0.00  0.00    +0.000 C 
ATOM      9  C   UNL     1       3.946   2.957  17.716  0.00  0.00    +0.000 C 
ATOM     10  C   UNL     1       3.119   1.743  18.113  0.00  0.00    +0.000 C 
ATOM     11  C   UNL     1       2.084   2.052  19.189  0.00  0.00    +0.000 C 
ATOM     12  C   UNL     1       1.308   3.348  18.961  0.00  0.00    +0.000 C 
ENDBRANCH   3   7
BRANCH   6  13
ATOM     13  N   UNL     1       1.362   8.974  20.814  0.00  0.00    +0.000 NA
ATOM     14  C   UNL     1       0.441   8.824  21.966  0.00  0.00    +0.000 C 
ATOM     15  C   UNL     1       0.161  10.106  22.780  0.00  0.00    +0.000 C 
ATOM     16  N   UNL     1      -0.158  11.295  21.960  0.00  0.00    +0.000 NA
ATOM     17  C   UNL     1       1.007  11.494  21.073  0.00  0.00    +0.000 C 
ATOM     18  C   UNL     1       1.326  10.285  20.153  0.00  0.00    +0.000 C 
BRANCH  16  19
ATOM     19  C   UNL     1      -1.401  11.148  21.165  0.00  0.00    +0.000 C 
BRANCH  19  20
ATOM     20  C   UNL     1      -1.476  12.068  19.935  0.00  0.00    +0.000 C 
BRANCH  20  21
ATOM     21  C   UNL     1      -2.154  11.403  18.756  0.00  0.00    +0.000 A 
ATOM     22  C   UNL     1      -3.484  11.713  18.435  0.00  0.00    +0.000 A 
ATOM     23  C   UNL     1      -4.092  11.142  17.313  0.00  0.00    +0.000 A 
ATOM     24  C   UNL     1      -3.377  10.255  16.510  0.00  0.00    +0.000 A 
ATOM     25  C   UNL     1      -2.062   9.926  16.831  0.00  0.00    +0.000 A 
ATOM     26  C   UNL     1      -1.456  10.488  17.959  0.00  0.00    +0.000 A 
ENDBRANCH  20  21
ENDBRANCH  19  20
ENDBRANCH  16  19
ENDBRANCH   6  13
BRANCH   1  27
ATOM     27  O   UNL     1       1.834   7.516  17.529  0.00  0.00    +0.000 OA
ATOM     28  H   UNL     1       0.918   7.839  17.572  0.00  0.00    +0.000 HD
ENDBRANCH   1  27
TORSDOF 6
ENDMDL
