MODEL 1
REMARK VINA RESULT:      -8.3      0.000      0.000
REMARK  Name = 
REMARK  0 active torsions:
REMARK  status: ('A' for Active; 'I' for Inactive)
REMARK                            x       y       z     vdW  Elec       q    Type
REMARK                         _______ _______ _______ _____ _____    ______ ____
ROOT
ATOM      1  C   UNL     1       4.102  14.911  17.868  0.00  0.00    +0.000 A 
ATOM      2  C   UNL     1       2.772  14.226  17.825  0.00  0.00    +0.000 A 
ATOM      3  C   UNL     1       2.004  13.893  19.000  0.00  0.00    +0.000 A 
ATOM      4  C   UNL     1       2.958  13.843  20.035  0.00  0.00    +0.000 A 
ATOM      5  C   UNL     1       3.931  14.908  20.159  0.00  0.00    +0.000 A 
ATOM      6  C   UNL     1       4.683  15.302  19.091  0.00  0.00    +0.000 A 
ATOM      7  C   UNL     1       3.574  15.975  21.143  0.00  0.00    +0.000 C 
ATOM      8  N   UNL     1       2.772  17.010  20.434  0.00  0.00    +0.000 N 
ATOM      9  C   UNL     1       1.370  16.874  20.429  0.00  0.00    +0.000 A 
ATOM     10  C   UNL     1       0.808  16.341  21.555  0.00  0.00    +0.000 A 
ATOM     11  C   UNL     1      -0.526  16.208  21.693  0.00  0.00    +0.000 A 
ATOM     12  N   UNL     1      -1.349  16.925  20.885  0.00  0.00    +0.000 N 
ATOM     13  C   UNL     1      -0.884  17.428  19.695  0.00  0.00    +0.000 A 
ATOM     14  C   UNL     1      -1.744  18.030  18.755  0.00  0.00    +0.000 A 
ATOM     15  C   UNL     1      -1.278  18.492  17.533  0.00  0.00    +0.000 A 
ATOM     16  C   UNL     1       0.072  18.379  17.203  0.00  0.00    +0.000 A 
ATOM     17  C   UNL     1       0.958  17.816  18.129  0.00  0.00    +0.000 A 
ATOM     18  C   UNL     1       0.519  17.352  19.418  0.00  0.00    +0.000 A 
ATOM     19  C   UNL     1      -2.718  17.206  21.421  0.00  0.00    +0.000 C 
ATOM     20  C   UNL     1      -2.909  16.711  22.871  0.00  0.00    +0.000 A 
ATOM     21  C   UNL     1      -2.208  17.246  23.964  0.00  0.00    +0.000 A 
ATOM     22  C   UNL     1      -2.153  16.539  25.176  0.00  0.00    +0.000 A 
ATOM     23  C   UNL     1      -2.695  15.257  25.286  0.00  0.00    +0.000 A 
ATOM     24  C   UNL     1      -3.311  14.676  24.179  0.00  0.00    +0.000 A 
ATOM     25  C   UNL     1      -3.563  15.487  23.059  0.00  0.00    +0.000 A 
ATOM     26  C   UNL     1      -3.533  13.164  24.181  0.00  0.00    +0.000 C 
ATOM     27  N   UNL     1      -3.333  12.649  22.779  0.00  0.00    +0.000 N 
ATOM     28  C   UNL     1      -2.118  12.153  22.441  0.00  0.00    +0.000 A 
ATOM     29  C   UNL     1      -1.735  11.918  21.133  0.00  0.00    +0.000 A 
ATOM     30  C   UNL     1      -2.236  12.819  20.240  0.00  0.00    +0.000 A 
ATOM     31  C   UNL     1      -3.844  12.996  20.454  0.00  0.00    +0.000 A 
ATOM     32  C   UNL     1      -5.141  13.158  19.700  0.00  0.00    +0.000 A 
ATOM     33  C   UNL     1      -6.538  13.209  20.232  0.00  0.00    +0.000 A 
ATOM     34  C   UNL     1      -6.801  13.159  21.577  0.00  0.00    +0.000 A 
ATOM     35  C   UNL     1      -5.684  12.985  22.358  0.00  0.00    +0.000 A 
ATOM     36  C   UNL     1      -4.302  12.842  21.831  0.00  0.00    +0.000 A 
ATOM     37  N   UNL     1      -1.166  13.503  19.352  0.00  0.00    +0.000 N 
ATOM     38  C   UNL     1       0.539  13.008  19.229  0.00  0.00    +0.000 C 
ATOM     39  H   UNL     1       3.159  17.180  19.509  0.00  0.00    +0.000 HD
ATOM     40  H   UNL     1      -1.503  13.282  18.405  0.00  0.00    +0.000 HD
ENDROOT
TORSDOF 0
ENDMDL
MODEL 2
REMARK VINA RESULT:      -8.0      4.952      8.287
REMARK  Name = 
REMARK  0 active torsions:
REMARK  status: ('A' for Active; 'I' for Inactive)
REMARK                            x       y       z     vdW  Elec       q    Type
REMARK                         _______ _______ _______ _____ _____    ______ ____
ROOT
ATOM      1  C   UNL     1      11.321  12.261  17.898  0.00  0.00    +0.000 A 
ATOM      2  C   UNL     1      10.019  12.679  17.292  0.00  0.00    +0.000 A 
ATOM      3  C   UNL     1       8.792  12.806  18.040  0.00  0.00    +0.000 A 
ATOM      4  C   UNL     1       8.985  11.981  19.166  0.00  0.00    +0.000 A 
ATOM      5  C   UNL     1      10.225  12.069  19.908  0.00  0.00    +0.000 A 
ATOM      6  C   UNL     1      11.431  11.983  19.276  0.00  0.00    +0.000 A 
ATOM      7  C   UNL     1      10.175  12.949  21.116  0.00  0.00    +0.000 C 
ATOM      8  N   UNL     1      10.519  14.335  20.693  0.00  0.00    +0.000 N 
ATOM      9  C   UNL     1       9.467  15.193  20.314  0.00  0.00    +0.000 A 
ATOM     10  C   UNL     1       8.288  15.042  20.989  0.00  0.00    +0.000 A 
ATOM     11  C   UNL     1       7.225  15.836  20.756  0.00  0.00    +0.000 A 
ATOM     12  N   UNL     1       7.412  17.020  20.118  0.00  0.00    +0.000 N 
ATOM     13  C   UNL     1       8.534  17.225  19.353  0.00  0.00    +0.000 A 
ATOM     14  C   UNL     1       8.684  18.369  18.545  0.00  0.00    +0.000 A 
ATOM     15  C   UNL     1       9.796  18.548  17.735  0.00  0.00    +0.000 A 
ATOM     16  C   UNL     1      10.810  17.591  17.707  0.00  0.00    +0.000 A 
ATOM     17  C   UNL     1      10.706  16.458  18.522  0.00  0.00    +0.000 A 
ATOM     18  C   UNL     1       9.583  16.252  19.398  0.00  0.00    +0.000 A 
ATOM     19  C   UNL     1       6.394  18.084  20.391  0.00  0.00    +0.000 C 
ATOM     20  C   UNL     1       5.357  17.664  21.456  0.00  0.00    +0.000 A 
ATOM     21  C   UNL     1       5.688  17.427  22.799  0.00  0.00    +0.000 A 
ATOM     22  C   UNL     1       4.801  16.718  23.626  0.00  0.00    +0.000 A 
ATOM     23  C   UNL     1       3.635  16.149  23.108  0.00  0.00    +0.000 A 
ATOM     24  C   UNL     1       3.342  16.298  21.754  0.00  0.00    +0.000 A 
ATOM     25  C   UNL     1       4.114  17.203  21.005  0.00  0.00    +0.000 A 
ATOM     26  C   UNL     1       2.312  15.361  21.127  0.00  0.00    +0.000 C 
ATOM     27  N   UNL     1       2.751  15.040  19.721  0.00  0.00    +0.000 N 
ATOM     28  C   UNL     1       3.452  13.901  19.507  0.00  0.00    +0.000 A 
ATOM     29  C   UNL     1       4.140  13.645  18.334  0.00  0.00    +0.000 A 
ATOM     30  C   UNL     1       4.693  14.755  17.765  0.00  0.00    +0.000 A 
ATOM     31  C   UNL     1       3.586  15.949  17.655  0.00  0.00    +0.000 A 
ATOM     32  C   UNL     1       3.100  17.049  16.745  0.00  0.00    +0.000 A 
ATOM     33  C   UNL     1       1.931  17.966  16.920  0.00  0.00    +0.000 A 
ATOM     34  C   UNL     1       1.146  17.930  18.044  0.00  0.00    +0.000 A 
ATOM     35  C   UNL     1       1.489  16.939  18.933  0.00  0.00    +0.000 A 
ATOM     36  C   UNL     1       2.592  15.966  18.724  0.00  0.00    +0.000 A 
ATOM     37  N   UNL     1       6.211  14.636  17.478  0.00  0.00    +0.000 N 
ATOM     38  C   UNL     1       7.163  13.136  17.570  0.00  0.00    +0.000 C 
ATOM     39  H   UNL     1      11.280  14.317  20.019  0.00  0.00    +0.000 HD
ATOM     40  H   UNL     1       6.253  14.833  16.469  0.00  0.00    +0.000 HD
ENDROOT
TORSDOF 0
ENDMDL
MODEL 3
REMARK VINA RESULT:      -7.4      1.031      1.246
REMARK  Name = 
REMARK  0 active torsions:
REMARK  status: ('A' for Active; 'I' for Inactive)
REMARK                            x       y       z     vdW  Elec       q    Type
REMARK                         _______ _______ _______ _____ _____    ______ ____
ROOT
ATOM      1  C   UNL     1       4.911  15.521  19.945  0.00  0.00    +0.000 A 
ATOM      2  C   UNL     1       3.753  14.605  19.706  0.00  0.00    +0.000 A 
ATOM      3  C   UNL     1       2.715  14.355  20.677  0.00  0.00    +0.000 A 
ATOM      4  C   UNL     1       3.312  14.672  21.912  0.00  0.00    +0.000 A 
ATOM      5  C   UNL     1       4.061  15.904  22.045  0.00  0.00    +0.000 A 
ATOM      6  C   UNL     1       5.044  16.230  21.157  0.00  0.00    +0.000 A 
ATOM      7  C   UNL     1       3.294  17.047  22.628  0.00  0.00    +0.000 C 
ATOM      8  N   UNL     1       2.619  17.768  21.513  0.00  0.00    +0.000 N 
ATOM      9  C   UNL     1       1.312  17.375  21.164  0.00  0.00    +0.000 A 
ATOM     10  C   UNL     1       0.509  16.961  22.190  0.00  0.00    +0.000 A 
ATOM     11  C   UNL     1      -0.777  16.610  21.993  0.00  0.00    +0.000 A 
ATOM     12  N   UNL     1      -1.402  17.001  20.853  0.00  0.00    +0.000 N 
ATOM     13  C   UNL     1      -0.668  17.357  19.748  0.00  0.00    +0.000 A 
ATOM     14  C   UNL     1      -1.274  17.606  18.501  0.00  0.00    +0.000 A 
ATOM     15  C   UNL     1      -0.524  17.916  17.375  0.00  0.00    +0.000 A 
ATOM     16  C   UNL     1       0.865  17.998  17.454  0.00  0.00    +0.000 A 
ATOM     17  C   UNL     1       1.496  17.788  18.686  0.00  0.00    +0.000 A 
ATOM     18  C   UNL     1       0.751  17.494  19.881  0.00  0.00    +0.000 A 
ATOM     19  C   UNL     1      -2.893  17.116  20.924  0.00  0.00    +0.000 C 
ATOM     20  C   UNL     1      -3.448  16.867  22.344  0.00  0.00    +0.000 A 
ATOM     21  C   UNL     1      -3.181  17.713  23.432  0.00  0.00    +0.000 A 
ATOM     22  C   UNL     1      -3.404  17.262  24.743  0.00  0.00    +0.000 A 
ATOM     23  C   UNL     1      -3.789  15.943  24.994  0.00  0.00    +0.000 A 
ATOM     24  C   UNL     1      -3.966  15.065  23.926  0.00  0.00    +0.000 A 
ATOM     25  C   UNL     1      -3.968  15.597  22.625  0.00  0.00    +0.000 A 
ATOM     26  C   UNL     1      -3.987  13.565  24.213  0.00  0.00    +0.000 C 
ATOM     27  N   UNL     1      -3.311  12.849  23.072  0.00  0.00    +0.000 N 
ATOM     28  C   UNL     1      -1.999  12.535  23.193  0.00  0.00    +0.000 A 
ATOM     29  C   UNL     1      -1.214  12.141  22.124  0.00  0.00    +0.000 A 
ATOM     30  C   UNL     1      -1.532  12.755  20.949  0.00  0.00    +0.000 A 
ATOM     31  C   UNL     1      -3.139  12.665  20.679  0.00  0.00    +0.000 A 
ATOM     32  C   UNL     1      -4.158  12.443  19.589  0.00  0.00    +0.000 A 
ATOM     33  C   UNL     1      -5.645  12.329  19.702  0.00  0.00    +0.000 A 
ATOM     34  C   UNL     1      -6.293  12.477  20.903  0.00  0.00    +0.000 A 
ATOM     35  C   UNL     1      -5.449  12.659  21.972  0.00  0.00    +0.000 A 
ATOM     36  C   UNL     1      -3.967  12.682  21.881  0.00  0.00    +0.000 A 
ATOM     37  N   UNL     1      -0.339  13.452  20.248  0.00  0.00    +0.000 N 
ATOM     38  C   UNL     1       1.372  13.269  20.701  0.00  0.00    +0.000 C 
ATOM     39  H   UNL     1       3.242  17.835  20.712  0.00  0.00    +0.000 HD
ATOM     40  H   UNL     1      -0.345  13.004  19.321  0.00  0.00    +0.000 HD
ENDROOT
TORSDOF 0
ENDMDL
MODEL 4
REMARK VINA RESULT:      -7.2      8.231     10.851
REMARK  Name = 
REMARK  0 active torsions:
REMARK  status: ('A' for Active; 'I' for Inactive)
REMARK                            x       y       z     vdW  Elec       q    Type
REMARK                         _______ _______ _______ _____ _____    ______ ____
ROOT
ATOM      1  C   UNL     1      10.096  11.128  17.919  0.00  0.00    +0.000 A 
ATOM      2  C   UNL     1       9.125  11.225  19.054  0.00  0.00    +0.000 A 
ATOM      3  C   UNL     1       9.475  11.709  20.367  0.00  0.00    +0.000 A 
ATOM      4  C   UNL     1      10.867  11.517  20.448  0.00  0.00    +0.000 A 
ATOM      5  C   UNL     1      11.709  11.930  19.345  0.00  0.00    +0.000 A 
ATOM      6  C   UNL     1      11.437  11.538  18.067  0.00  0.00    +0.000 A 
ATOM      7  C   UNL     1      12.333  13.280  19.501  0.00  0.00    +0.000 C 
ATOM      8  N   UNL     1      11.391  14.293  18.951  0.00  0.00    +0.000 N 
ATOM      9  C   UNL     1      10.461  14.881  19.831  0.00  0.00    +0.000 A 
ATOM     10  C   UNL     1      10.886  15.085  21.114  0.00  0.00    +0.000 A 
ATOM     11  C   UNL     1      10.109  15.687  22.037  0.00  0.00    +0.000 A 
ATOM     12  N   UNL     1       9.045  16.422  21.626  0.00  0.00    +0.000 N 
ATOM     13  C   UNL     1       8.506  16.223  20.378  0.00  0.00    +0.000 A 
ATOM     14  C   UNL     1       7.305  16.843  19.979  0.00  0.00    +0.000 A 
ATOM     15  C   UNL     1       6.738  16.600  18.736  0.00  0.00    +0.000 A 
ATOM     16  C   UNL     1       7.354  15.732  17.837  0.00  0.00    +0.000 A 
ATOM     17  C   UNL     1       8.565  15.125  18.190  0.00  0.00    +0.000 A 
ATOM     18  C   UNL     1       9.200  15.375  19.457  0.00  0.00    +0.000 A 
ATOM     19  C   UNL     1       8.589  17.501  22.559  0.00  0.00    +0.000 C 
ATOM     20  C   UNL     1       9.502  17.652  23.795  0.00  0.00    +0.000 A 
ATOM     21  C   UNL     1      10.838  18.078  23.715  0.00  0.00    +0.000 A 
ATOM     22  C   UNL     1      11.709  17.859  24.795  0.00  0.00    +0.000 A 
ATOM     23  C   UNL     1      11.300  17.129  25.912  0.00  0.00    +0.000 A 
ATOM     24  C   UNL     1      10.004  16.619  25.962  0.00  0.00    +0.000 A 
ATOM     25  C   UNL     1       9.086  17.048  24.988  0.00  0.00    +0.000 A 
ATOM     26  C   UNL     1       9.697  15.510  26.966  0.00  0.00    +0.000 C 
ATOM     27  N   UNL     1       8.717  14.553  26.338  0.00  0.00    +0.000 N 
ATOM     28  C   UNL     1       9.197  13.440  25.733  0.00  0.00    +0.000 A 
ATOM     29  C   UNL     1       8.436  12.648  24.892  0.00  0.00    +0.000 A 
ATOM     30  C   UNL     1       7.537  13.346  24.141  0.00  0.00    +0.000 A 
ATOM     31  C   UNL     1       6.672  14.358  25.084  0.00  0.00    +0.000 A 
ATOM     32  C   UNL     1       5.280  14.899  25.298  0.00  0.00    +0.000 A 
ATOM     33  C   UNL     1       4.778  15.804  26.378  0.00  0.00    +0.000 A 
ATOM     34  C   UNL     1       5.614  16.318  27.337  0.00  0.00    +0.000 A 
ATOM     35  C   UNL     1       6.909  15.865  27.249  0.00  0.00    +0.000 A 
ATOM     36  C   UNL     1       7.395  14.895  26.234  0.00  0.00    +0.000 A 
ATOM     37  N   UNL     1       7.638  13.085  22.617  0.00  0.00    +0.000 N 
ATOM     38  C   UNL     1       8.599  11.797  21.853  0.00  0.00    +0.000 C 
ATOM     39  H   UNL     1      10.965  13.946  18.095  0.00  0.00    +0.000 HD
ATOM     40  H   UNL     1       6.682  12.777  22.389  0.00  0.00    +0.000 HD
ENDROOT
TORSDOF 0
ENDMDL
MODEL 5
REMARK VINA RESULT:      -7.0      2.437      4.469
REMARK  Name = 
REMARK  0 active torsions:
REMARK  status: ('A' for Active; 'I' for Inactive)
REMARK                            x       y       z     vdW  Elec       q    Type
REMARK                         _______ _______ _______ _____ _____    ______ ____
ROOT
ATOM      1  C   UNL     1       1.537   9.494  18.312  0.00  0.00    +0.000 A 
ATOM      2  C   UNL     1       0.309  10.234  17.884  0.00  0.00    +0.000 A 
ATOM      3  C   UNL     1      -0.916  10.262  18.645  0.00  0.00    +0.000 A 
ATOM      4  C   UNL     1      -0.851   9.107  19.449  0.00  0.00    +0.000 A 
ATOM      5  C   UNL     1       0.369   8.808  20.168  0.00  0.00    +0.000 A 
ATOM      6  C   UNL     1       1.574   8.784  19.530  0.00  0.00    +0.000 A 
ATOM      7  C   UNL     1       0.387   9.261  21.593  0.00  0.00    +0.000 C 
ATOM      8  N   UNL     1       0.900  10.659  21.628  0.00  0.00    +0.000 N 
ATOM      9  C   UNL     1      -0.035  11.711  21.552  0.00  0.00    +0.000 A 
ATOM     10  C   UNL     1      -1.242  11.494  22.156  0.00  0.00    +0.000 A 
ATOM     11  C   UNL     1      -2.199  12.442  22.197  0.00  0.00    +0.000 A 
ATOM     12  N   UNL     1      -1.859  13.736  21.966  0.00  0.00    +0.000 N 
ATOM     13  C   UNL     1      -0.700  14.037  21.294  0.00  0.00    +0.000 A 
ATOM     14  C   UNL     1      -0.395  15.352  20.889  0.00  0.00    +0.000 A 
ATOM     15  C   UNL     1       0.753  15.645  20.167  0.00  0.00    +0.000 A 
ATOM     16  C   UNL     1       1.649  14.633  19.827  0.00  0.00    +0.000 A 
ATOM     17  C   UNL     1       1.392  13.321  20.242  0.00  0.00    +0.000 A 
ATOM     18  C   UNL     1       0.229  12.983  21.018  0.00  0.00    +0.000 A 
ATOM     19  C   UNL     1      -2.754  14.772  22.572  0.00  0.00    +0.000 C 
ATOM     20  C   UNL     1      -3.863  14.163  23.458  0.00  0.00    +0.000 A 
ATOM     21  C   UNL     1      -3.599  13.475  24.654  0.00  0.00    +0.000 A 
ATOM     22  C   UNL     1      -4.585  12.651  25.222  0.00  0.00    +0.000 A 
ATOM     23  C   UNL     1      -5.794  12.418  24.562  0.00  0.00    +0.000 A 
ATOM     24  C   UNL     1      -6.030  13.021  23.328  0.00  0.00    +0.000 A 
ATOM     25  C   UNL     1      -5.138  14.018  22.897  0.00  0.00    +0.000 A 
ATOM     26  C   UNL     1      -7.142  12.459  22.446  0.00  0.00    +0.000 C 
ATOM     27  N   UNL     1      -6.704  12.550  21.006  0.00  0.00    +0.000 N 
ATOM     28  C   UNL     1      -6.133  11.462  20.435  0.00  0.00    +0.000 A 
ATOM     29  C   UNL     1      -5.447  11.511  19.235  0.00  0.00    +0.000 A 
ATOM     30  C   UNL     1      -4.753  12.669  19.043  0.00  0.00    +0.000 A 
ATOM     31  C   UNL     1      -5.711  13.959  19.328  0.00  0.00    +0.000 A 
ATOM     32  C   UNL     1      -6.041  15.340  18.818  0.00  0.00    +0.000 A 
ATOM     33  C   UNL     1      -7.101  16.286  19.286  0.00  0.00    +0.000 A 
ATOM     34  C   UNL     1      -7.917  15.990  20.349  0.00  0.00    +0.000 A 
ATOM     35  C   UNL     1      -7.715  14.736  20.874  0.00  0.00    +0.000 A 
ATOM     36  C   UNL     1      -6.727  13.755  20.356  0.00  0.00    +0.000 A 
ATOM     37  N   UNL     1      -3.251  12.468  18.718  0.00  0.00    +0.000 N 
ATOM     38  C   UNL     1      -2.482  10.914  18.319  0.00  0.00    +0.000 C 
ATOM     39  H   UNL     1       1.673  10.764  20.977  0.00  0.00    +0.000 HD
ATOM     40  H   UNL     1      -3.158  12.968  17.822  0.00  0.00    +0.000 HD
ENDROOT
TORSDOF 0
ENDMDL
MODEL 6
REMARK VINA RESULT:      -6.9      1.196      1.361
REMARK  Name = 
REMARK  0 active torsions:
REMARK  status: ('A' for Active; 'I' for Inactive)
REMARK                            x       y       z     vdW  Elec       q    Type
REMARK                         _______ _______ _______ _____ _____    ______ ____
ROOT
ATOM      1  C   UNL     1       3.339  13.981  18.086  0.00  0.00    +0.000 A 
ATOM      2  C   UNL     1       1.888  13.627  18.169  0.00  0.00    +0.000 A 
ATOM      3  C   UNL     1       1.124  13.661  19.393  0.00  0.00    +0.000 A 
ATOM      4  C   UNL     1       2.092  13.543  20.409  0.00  0.00    +0.000 A 
ATOM      5  C   UNL     1       3.287  14.358  20.352  0.00  0.00    +0.000 A 
ATOM      6  C   UNL     1       4.055  14.404  19.226  0.00  0.00    +0.000 A 
ATOM      7  C   UNL     1       3.232  15.614  21.163  0.00  0.00    +0.000 C 
ATOM      8  N   UNL     1       2.653  16.689  20.312  0.00  0.00    +0.000 N 
ATOM      9  C   UNL     1       1.258  16.885  20.348  0.00  0.00    +0.000 A 
ATOM     10  C   UNL     1       0.647  16.671  21.551  0.00  0.00    +0.000 A 
ATOM     11  C   UNL     1      -0.673  16.875  21.727  0.00  0.00    +0.000 A 
ATOM     12  N   UNL     1      -1.350  17.636  20.829  0.00  0.00    +0.000 N 
ATOM     13  C   UNL     1      -0.843  17.834  19.568  0.00  0.00    +0.000 A 
ATOM     14  C   UNL     1      -1.589  18.474  18.559  0.00  0.00    +0.000 A 
ATOM     15  C   UNL     1      -1.091  18.628  17.272  0.00  0.00    +0.000 A 
ATOM     16  C   UNL     1       0.179  18.156  16.946  0.00  0.00    +0.000 A 
ATOM     17  C   UNL     1       0.958  17.545  17.935  0.00  0.00    +0.000 A 
ATOM     18  C   UNL     1       0.490  17.393  19.287  0.00  0.00    +0.000 A 
ATOM     19  C   UNL     1      -2.591  18.305  21.333  0.00  0.00    +0.000 C 
ATOM     20  C   UNL     1      -2.818  18.089  22.846  0.00  0.00    +0.000 A 
ATOM     21  C   UNL     1      -1.960  18.602  23.831  0.00  0.00    +0.000 A 
ATOM     22  C   UNL     1      -2.007  18.089  25.139  0.00  0.00    +0.000 A 
ATOM     23  C   UNL     1      -2.821  17.000  25.454  0.00  0.00    +0.000 A 
ATOM     24  C   UNL     1      -3.608  16.421  24.461  0.00  0.00    +0.000 A 
ATOM     25  C   UNL     1      -3.723  17.093  23.232  0.00  0.00    +0.000 A 
ATOM     26  C   UNL     1      -4.168  15.020  24.701  0.00  0.00    +0.000 C 
ATOM     27  N   UNL     1      -4.161  14.270  23.394  0.00  0.00    +0.000 N 
ATOM     28  C   UNL     1      -3.110  13.460  23.121  0.00  0.00    +0.000 A 
ATOM     29  C   UNL     1      -2.856  12.951  21.860  0.00  0.00    +0.000 A 
ATOM     30  C   UNL     1      -3.183  13.801  20.845  0.00  0.00    +0.000 A 
ATOM     31  C   UNL     1      -4.695  14.378  21.051  0.00  0.00    +0.000 A 
ATOM     32  C   UNL     1      -5.956  14.724  20.299  0.00  0.00    +0.000 A 
ATOM     33  C   UNL     1      -7.276  15.177  20.836  0.00  0.00    +0.000 A 
ATOM     34  C   UNL     1      -7.477  15.391  22.176  0.00  0.00    +0.000 A 
ATOM     35  C   UNL     1      -6.391  15.078  22.959  0.00  0.00    +0.000 A 
ATOM     36  C   UNL     1      -5.107  14.541  22.442  0.00  0.00    +0.000 A 
ATOM     37  N   UNL     1      -2.030  14.077  19.846  0.00  0.00    +0.000 N 
ATOM     38  C   UNL     1      -0.491  13.186  19.777  0.00  0.00    +0.000 C 
ATOM     39  H   UNL     1       3.023  16.625  19.367  0.00  0.00    +0.000 HD
ATOM     40  H   UNL     1      -2.455  13.803  18.949  0.00  0.00    +0.000 HD
ENDROOT
TORSDOF 0
ENDMDL
MODEL 7
REMARK VINA RESULT:      -6.8      6.493      9.026
REMARK  Name = 
REMARK  0 active torsions:
REMARK  status: ('A' for Active; 'I' for Inactive)
REMARK                            x       y       z     vdW  Elec       q    Type
REMARK                         _______ _______ _______ _____ _____    ______ ____
ROOT
ATOM      1  C   UNL     1       9.788  13.770  17.594  0.00  0.00    +0.000 A 
ATOM      2  C   UNL     1       9.306  12.852  18.672  0.00  0.00    +0.000 A 
ATOM      3  C   UNL     1       9.369  13.167  20.079  0.00  0.00    +0.000 A 
ATOM      4  C   UNL     1      10.389  14.134  20.172  0.00  0.00    +0.000 A 
ATOM      5  C   UNL     1      10.403  15.245  19.244  0.00  0.00    +0.000 A 
ATOM      6  C   UNL     1      10.323  15.039  17.898  0.00  0.00    +0.000 A 
ATOM      7  C   UNL     1       9.776  16.502  19.756  0.00  0.00    +0.000 C 
ATOM      8  N   UNL     1       8.323  16.460  19.431  0.00  0.00    +0.000 N 
ATOM      9  C   UNL     1       7.445  15.911  20.388  0.00  0.00    +0.000 A 
ATOM     10  C   UNL     1       7.766  16.126  21.698  0.00  0.00    +0.000 A 
ATOM     11  C   UNL     1       6.979  15.698  22.705  0.00  0.00    +0.000 A 
ATOM     12  N   UNL     1       5.688  15.370  22.441  0.00  0.00    +0.000 N 
ATOM     13  C   UNL     1       5.300  15.061  21.160  0.00  0.00    +0.000 A 
ATOM     14  C   UNL     1       4.016  14.557  20.874  0.00  0.00    +0.000 A 
ATOM     15  C   UNL     1       3.645  14.199  19.585  0.00  0.00    +0.000 A 
ATOM     16  C   UNL     1       4.542  14.340  18.528  0.00  0.00    +0.000 A 
ATOM     17  C   UNL     1       5.815  14.870  18.774  0.00  0.00    +0.000 A 
ATOM     18  C   UNL     1       6.226  15.280  20.091  0.00  0.00    +0.000 A 
ATOM     19  C   UNL     1       4.733  15.473  23.591  0.00  0.00    +0.000 C 
ATOM     20  C   UNL     1       5.387  16.049  24.865  0.00  0.00    +0.000 A 
ATOM     21  C   UNL     1       5.869  17.366  24.952  0.00  0.00    +0.000 A 
ATOM     22  C   UNL     1       6.755  17.721  25.983  0.00  0.00    +0.000 A 
ATOM     23  C   UNL     1       7.253  16.761  26.866  0.00  0.00    +0.000 A 
ATOM     24  C   UNL     1       6.855  15.432  26.731  0.00  0.00    +0.000 A 
ATOM     25  C   UNL     1       5.796  15.145  25.852  0.00  0.00    +0.000 A 
ATOM     26  C   UNL     1       7.688  14.350  27.415  0.00  0.00    +0.000 C 
ATOM     27  N   UNL     1       7.715  13.133  26.527  0.00  0.00    +0.000 N 
ATOM     28  C   UNL     1       8.766  12.968  25.688  0.00  0.00    +0.000 A 
ATOM     29  C   UNL     1       8.765  12.060  24.645  0.00  0.00    +0.000 A 
ATOM     30  C   UNL     1       7.548  11.904  24.050  0.00  0.00    +0.000 A 
ATOM     31  C   UNL     1       6.395  11.644  25.174  0.00  0.00    +0.000 A 
ATOM     32  C   UNL     1       5.157  10.828  25.452  0.00  0.00    +0.000 A 
ATOM     33  C   UNL     1       4.332  10.765  26.698  0.00  0.00    +0.000 A 
ATOM     34  C   UNL     1       4.613  11.546  27.791  0.00  0.00    +0.000 A 
ATOM     35  C   UNL     1       5.744  12.314  27.652  0.00  0.00    +0.000 A 
ATOM     36  C   UNL     1       6.620  12.314  26.452  0.00  0.00    +0.000 A 
ATOM     37  N   UNL     1       7.556  12.114  22.514  0.00  0.00    +0.000 N 
ATOM     38  C   UNL     1       9.011  12.253  21.500  0.00  0.00    +0.000 C 
ATOM     39  H   UNL     1       8.184  16.080  18.498  0.00  0.00    +0.000 HD
ATOM     40  H   UNL     1       7.166  11.223  22.175  0.00  0.00    +0.000 HD
ENDROOT
TORSDOF 0
ENDMDL
MODEL 8
REMARK VINA RESULT:      -6.8      5.786     11.541
REMARK  Name = 
REMARK  0 active torsions:
REMARK  status: ('A' for Active; 'I' for Inactive)
REMARK                            x       y       z     vdW  Elec       q    Type
REMARK                         _______ _______ _______ _____ _____    ______ ____
ROOT
ATOM      1  C   UNL     1       2.206  16.420  22.823  0.00  0.00    +0.000 A 
ATOM      2  C   UNL     1       2.931  15.610  21.796  0.00  0.00    +0.000 A 
ATOM      3  C   UNL     1       4.094  16.077  21.081  0.00  0.00    +0.000 A 
ATOM      4  C   UNL     1       4.006  17.480  21.156  0.00  0.00    +0.000 A 
ATOM      5  C   UNL     1       3.713  18.109  22.426  0.00  0.00    +0.000 A 
ATOM      6  C   UNL     1       2.646  17.713  23.178  0.00  0.00    +0.000 A 
ATOM      7  C   UNL     1       4.911  18.588  23.183  0.00  0.00    +0.000 C 
ATOM      8  N   UNL     1       5.399  17.467  24.033  0.00  0.00    +0.000 N 
ATOM      9  C   UNL     1       6.376  16.605  23.497  0.00  0.00    +0.000 A 
ATOM     10  C   UNL     1       7.295  17.174  22.661  0.00  0.00    +0.000 A 
ATOM     11  C   UNL     1       8.309  16.466  22.127  0.00  0.00    +0.000 A 
ATOM     12  N   UNL     1       8.651  15.277  22.685  0.00  0.00    +0.000 N 
ATOM     13  C   UNL     1       7.755  14.599  23.475  0.00  0.00    +0.000 A 
ATOM     14  C   UNL     1       8.008  13.292  23.934  0.00  0.00    +0.000 A 
ATOM     15  C   UNL     1       7.078  12.592  24.690  0.00  0.00    +0.000 A 
ATOM     16  C   UNL     1       5.858  13.177  25.026  0.00  0.00    +0.000 A 
ATOM     17  C   UNL     1       5.590  14.487  24.613  0.00  0.00    +0.000 A 
ATOM     18  C   UNL     1       6.540  15.255  23.854  0.00  0.00    +0.000 A 
ATOM     19  C   UNL     1      10.065  14.830  22.472  0.00  0.00    +0.000 C 
ATOM     20  C   UNL     1      10.921  15.880  21.731  0.00  0.00    +0.000 A 
ATOM     21  C   UNL     1      11.241  17.134  22.277  0.00  0.00    +0.000 A 
ATOM     22  C   UNL     1      11.706  18.164  21.442  0.00  0.00    +0.000 A 
ATOM     23  C   UNL     1      11.756  17.999  20.057  0.00  0.00    +0.000 A 
ATOM     24  C   UNL     1      11.351  16.790  19.494  0.00  0.00    +0.000 A 
ATOM     25  C   UNL     1      11.118  15.704  20.356  0.00  0.00    +0.000 A 
ATOM     26  C   UNL     1      11.029  16.754  18.002  0.00  0.00    +0.000 C 
ATOM     27  N   UNL     1       9.871  15.815  17.784  0.00  0.00    +0.000 N 
ATOM     28  C   UNL     1       8.622  16.335  17.719  0.00  0.00    +0.000 A 
ATOM     29  C   UNL     1       7.476  15.563  17.805  0.00  0.00    +0.000 A 
ATOM     30  C   UNL     1       7.592  14.495  18.645  0.00  0.00    +0.000 A 
ATOM     31  C   UNL     1       8.951  13.655  18.312  0.00  0.00    +0.000 A 
ATOM     32  C   UNL     1       9.494  12.252  18.201  0.00  0.00    +0.000 A 
ATOM     33  C   UNL     1      10.851  11.801  17.762  0.00  0.00    +0.000 A 
ATOM     34  C   UNL     1      11.840  12.694  17.436  0.00  0.00    +0.000 A 
ATOM     35  C   UNL     1      11.440  14.009  17.480  0.00  0.00    +0.000 A 
ATOM     36  C   UNL     1      10.068  14.461  17.826  0.00  0.00    +0.000 A 
ATOM     37  N   UNL     1       6.495  14.417  19.736  0.00  0.00    +0.000 N 
ATOM     38  C   UNL     1       5.017  15.407  19.784  0.00  0.00    +0.000 C 
ATOM     39  H   UNL     1       4.613  16.972  24.446  0.00  0.00    +0.000 HD
ATOM     40  H   UNL     1       6.097  13.481  19.572  0.00  0.00    +0.000 HD
ENDROOT
TORSDOF 0
ENDMDL
MODEL 9
REMARK VINA RESULT:      -6.7      2.141      6.632
REMARK  Name = 
REMARK  0 active torsions:
REMARK  status: ('A' for Active; 'I' for Inactive)
REMARK                            x       y       z     vdW  Elec       q    Type
REMARK                         _______ _______ _______ _____ _____    ______ ____
ROOT
ATOM      1  C   UNL     1      -6.696  17.877  21.305  0.00  0.00    +0.000 A 
ATOM      2  C   UNL     1      -6.280  16.470  21.597  0.00  0.00    +0.000 A 
ATOM      3  C   UNL     1      -5.274  15.761  20.845  0.00  0.00    +0.000 A 
ATOM      4  C   UNL     1      -5.239  16.422  19.602  0.00  0.00    +0.000 A 
ATOM      5  C   UNL     1      -5.195  17.868  19.566  0.00  0.00    +0.000 A 
ATOM      6  C   UNL     1      -6.094  18.618  20.266  0.00  0.00    +0.000 A 
ATOM      7  C   UNL     1      -3.827  18.453  19.414  0.00  0.00    +0.000 C 
ATOM      8  N   UNL     1      -3.246  18.631  20.773  0.00  0.00    +0.000 N 
ATOM      9  C   UNL     1      -2.479  17.577  21.309  0.00  0.00    +0.000 A 
ATOM     10  C   UNL     1      -1.730  16.859  20.420  0.00  0.00    +0.000 A 
ATOM     11  C   UNL     1      -0.915  15.861  20.816  0.00  0.00    +0.000 A 
ATOM     12  N   UNL     1      -0.546  15.787  22.120  0.00  0.00    +0.000 N 
ATOM     13  C   UNL     1      -1.292  16.415  23.088  0.00  0.00    +0.000 A 
ATOM     14  C   UNL     1      -1.040  16.225  24.460  0.00  0.00    +0.000 A 
ATOM     15  C   UNL     1      -1.827  16.822  25.435  0.00  0.00    +0.000 A 
ATOM     16  C   UNL     1      -2.895  17.641  25.074  0.00  0.00    +0.000 A 
ATOM     17  C   UNL     1      -3.152  17.876  23.719  0.00  0.00    +0.000 A 
ATOM     18  C   UNL     1      -2.340  17.300  22.680  0.00  0.00    +0.000 A 
ATOM     19  C   UNL     1       0.748  15.086  22.401  0.00  0.00    +0.000 C 
ATOM     20  C   UNL     1       1.493  14.663  21.116  0.00  0.00    +0.000 A 
ATOM     21  C   UNL     1       2.018  15.584  20.195  0.00  0.00    +0.000 A 
ATOM     22  C   UNL     1       2.360  15.162  18.899  0.00  0.00    +0.000 A 
ATOM     23  C   UNL     1       2.089  13.860  18.472  0.00  0.00    +0.000 A 
ATOM     24  C   UNL     1       1.481  12.963  19.348  0.00  0.00    +0.000 A 
ATOM     25  C   UNL     1       1.366  13.332  20.699  0.00  0.00    +0.000 A 
ATOM     26  C   UNL     1       0.834  11.707  18.769  0.00  0.00    +0.000 C 
ATOM     27  N   UNL     1      -0.410  11.400  19.562  0.00  0.00    +0.000 N 
ATOM     28  C   UNL     1      -1.601  11.847  19.096  0.00  0.00    +0.000 A 
ATOM     29  C   UNL     1      -2.752  11.873  19.863  0.00  0.00    +0.000 A 
ATOM     30  C   UNL     1      -2.531  12.149  21.180  0.00  0.00    +0.000 A 
ATOM     31  C   UNL     1      -1.346  11.195  21.770  0.00  0.00    +0.000 A 
ATOM     32  C   UNL     1      -0.947  10.396  22.985  0.00  0.00    +0.000 A 
ATOM     33  C   UNL     1       0.241   9.508  23.178  0.00  0.00    +0.000 A 
ATOM     34  C   UNL     1       1.196   9.356  22.204  0.00  0.00    +0.000 A 
ATOM     35  C   UNL     1       0.914  10.026  21.038  0.00  0.00    +0.000 A 
ATOM     36  C   UNL     1      -0.310  10.836  20.806  0.00  0.00    +0.000 A 
ATOM     37  N   UNL     1      -3.362  13.335  21.733  0.00  0.00    +0.000 N 
ATOM     38  C   UNL     1      -4.714  14.127  20.890  0.00  0.00    +0.000 C 
ATOM     39  H   UNL     1      -3.955  18.974  21.415  0.00  0.00    +0.000 HD
ATOM     40  H   UNL     1      -3.854  12.900  22.526  0.00  0.00    +0.000 HD
ENDROOT
TORSDOF 0
ENDMDL
