MODEL 1
REMARK VINA RESULT:      -8.1      0.000      0.000
REMARK  Name = 
REMARK  6 active torsions:
REMARK  status: ('A' for Active; 'I' for Inactive)
REMARK    1  A    between atoms: N_1  and  C_2
REMARK    2  A    between atoms: C_2  and  C_3
REMARK    3  A    between atoms: C_6  and  C_7
REMARK    4  A    between atoms: C_12  and  C_13
REMARK    5  A    between atoms: N_15  and  C_16
REMARK    6  A    between atoms: C_16  and  C_17
REMARK                            x       y       z     vdW  Elec       q    Type
REMARK                         _______ _______ _______ _____ _____    ______ ____
ROOT
ATOM      1  C   UNL     1      -1.195  11.472  22.204  0.00  0.00    +0.000 A 
ATOM      2  C   UNL     1      -0.977  10.542  23.237  0.00  0.00    +0.000 A 
ATOM      3  C   UNL     1      -0.164   9.418  23.093  0.00  0.00    +0.000 A 
ATOM      4  C   UNL     1       0.438   9.169  21.856  0.00  0.00    +0.000 A 
ATOM      5  C   UNL     1       1.263   8.115  21.396  0.00  0.00    +0.000 A 
ATOM      6  C   UNL     1       1.547   8.327  20.061  0.00  0.00    +0.000 A 
ATOM      7  N   UNL     1       0.937   9.532  19.728  0.00  0.00    +0.000 N 
ATOM      8  C   UNL     1       0.236  10.059  20.803  0.00  0.00    +0.000 A 
ATOM      9  C   UNL     1      -0.566  11.223  20.952  0.00  0.00    +0.000 A 
ATOM     10  H   UNL     1       0.980   9.941  18.803  0.00  0.00    +0.000 HD
ENDROOT
BRANCH   1  14
ATOM     11  C   UNL     1      -3.934  14.667  23.336  0.00  0.00    +0.000 A 
ATOM     12  C   UNL     1      -2.653  14.582  23.883  0.00  0.00    +0.000 A 
ATOM     13  C   UNL     1      -1.758  13.597  23.448  0.00  0.00    +0.000 A 
ATOM     14  C   UNL     1      -2.107  12.623  22.485  0.00  0.00    +0.000 A 
ATOM     15  C   UNL     1      -3.384  12.746  21.916  0.00  0.00    +0.000 A 
ATOM     16  C   UNL     1      -4.282  13.750  22.335  0.00  0.00    +0.000 A 
BRANCH  11  17
ATOM     17  C   UNL     1      -4.915  15.691  23.851  0.00  0.00    +0.000 C 
BRANCH  17  18
ATOM     18  N   UNL     1      -6.186  15.083  24.231  0.00  0.00    +0.000 NA
ATOM     19  H   UNL     1      -6.374  15.284  25.210  0.00  0.00    +0.000 HD
ATOM     20  H   UNL     1      -6.098  14.070  24.155  0.00  0.00    +0.000 HD
ENDBRANCH  17  18
ENDBRANCH  11  17
ENDBRANCH   1  14
BRANCH   6  21
ATOM     21  C   UNL     1       2.296   7.504  19.120  0.00  0.00    +0.000 C 
ATOM     22  O   UNL     1       2.675   7.937  18.035  0.00  0.00    +0.000 OA
ATOM     23  N   UNL     1       2.538   6.203  19.532  0.00  0.00    +0.000 N 
ATOM     24  H   UNL     1       2.271   5.935  20.468  0.00  0.00    +0.000 HD
BRANCH  23  25
ATOM     25  C   UNL     1       3.309   5.238  18.759  0.00  0.00    +0.000 C 
BRANCH  25  26
ATOM     26  C   UNL     1       2.454   4.423  17.761  0.00  0.00    +0.000 C 
ATOM     27  C   UNL     1       1.227   3.797  18.457  0.00  0.00    +0.000 C 
ATOM     28  C   UNL     1       1.595   2.596  19.334  0.00  0.00    +0.000 C 
ATOM     29  N   UNL     1       2.354   1.587  18.595  0.00  0.00    +0.000 NA
ATOM     30  C   UNL     1       3.571   2.157  18.013  0.00  0.00    +0.000 C 
ATOM     31  C   UNL     1       3.245   3.307  17.061  0.00  0.00    +0.000 C 
ATOM     32  H   UNL     1       1.773   1.211  17.846  0.00  0.00    +0.000 HD
ENDBRANCH  25  26
ENDBRANCH  23  25
ENDBRANCH   6  21
TORSDOF 6
ENDMDL
MODEL 2
REMARK VINA RESULT:      -8.0      2.606     10.849
REMARK  Name = 
REMARK  6 active torsions:
REMARK  status: ('A' for Active; 'I' for Inactive)
REMARK    1  A    between atoms: N_1  and  C_2
REMARK    2  A    between atoms: C_2  and  C_3
REMARK    3  A    between atoms: C_6  and  C_7
REMARK    4  A    between atoms: C_12  and  C_13
REMARK    5  A    between atoms: N_15  and  C_16
REMARK    6  A    between atoms: C_16  and  C_17
REMARK                            x       y       z     vdW  Elec       q    Type
REMARK                         _______ _______ _______ _____ _____    ______ ____
ROOT
ATOM      1  C   UNL     1       2.763   6.738  18.680  0.00  0.00    +0.000 A 
ATOM      2  C   UNL     1       2.441   5.919  19.778  0.00  0.00    +0.000 A 
ATOM      3  C   UNL     1       1.644   6.344  20.840  0.00  0.00    +0.000 A 
ATOM      4  C   UNL     1       1.167   7.658  20.847  0.00  0.00    +0.000 A 
ATOM      5  C   UNL     1       0.389   8.381  21.783  0.00  0.00    +0.000 A 
ATOM      6  C   UNL     1       0.238   9.676  21.325  0.00  0.00    +0.000 A 
ATOM      7  N   UNL     1       0.881   9.722  20.092  0.00  0.00    +0.000 N 
ATOM      8  C   UNL     1       1.474   8.506  19.785  0.00  0.00    +0.000 A 
ATOM      9  C   UNL     1       2.260   8.069  18.683  0.00  0.00    +0.000 A 
ATOM     10  H   UNL     1       0.930  10.556  19.521  0.00  0.00    +0.000 HD
ENDROOT
BRANCH   1  14
ATOM     11  C   UNL     1       5.551   4.949  15.849  0.00  0.00    +0.000 A 
ATOM     12  C   UNL     1       4.641   4.169  16.562  0.00  0.00    +0.000 A 
ATOM     13  C   UNL     1       3.699   4.768  17.407  0.00  0.00    +0.000 A 
ATOM     14  C   UNL     1       3.645   6.164  17.617  0.00  0.00    +0.000 A 
ATOM     15  C   UNL     1       4.539   6.938  16.863  0.00  0.00    +0.000 A 
ATOM     16  C   UNL     1       5.476   6.341  15.994  0.00  0.00    +0.000 A 
BRANCH  11  17
ATOM     17  C   UNL     1       6.603   4.296  14.987  0.00  0.00    +0.000 C 
BRANCH  17  18
ATOM     18  N   UNL     1       7.524   5.275  14.418  0.00  0.00    +0.000 NA
ATOM     19  H   UNL     1       8.386   4.808  14.149  0.00  0.00    +0.000 HD
ATOM     20  H   UNL     1       7.773   5.947  15.144  0.00  0.00    +0.000 HD
ENDBRANCH  17  18
ENDBRANCH  11  17
ENDBRANCH   1  14
BRANCH   6  21
ATOM     21  C   UNL     1      -0.416  10.819  21.948  0.00  0.00    +0.000 C 
ATOM     22  O   UNL     1      -0.315  11.052  23.150  0.00  0.00    +0.000 OA
ATOM     23  N   UNL     1      -1.163  11.613  21.093  0.00  0.00    +0.000 N 
ATOM     24  H   UNL     1      -1.138  11.414  20.103  0.00  0.00    +0.000 HD
BRANCH  23  25
ATOM     25  C   UNL     1      -1.853  12.827  21.509  0.00  0.00    +0.000 C 
BRANCH  25  26
ATOM     26  C   UNL     1      -3.311  12.584  21.964  0.00  0.00    +0.000 C 
ATOM     27  C   UNL     1      -4.253  13.684  21.432  0.00  0.00    +0.000 C 
ATOM     28  C   UNL     1      -4.097  15.009  22.184  0.00  0.00    +0.000 C 
ATOM     29  N   UNL     1      -4.243  14.842  23.629  0.00  0.00    +0.000 NA
ATOM     30  C   UNL     1      -3.283  13.869  24.152  0.00  0.00    +0.000 C 
ATOM     31  C   UNL     1      -3.461  12.503  23.491  0.00  0.00    +0.000 C 
ATOM     32  H   UNL     1      -5.188  14.520  23.837  0.00  0.00    +0.000 HD
ENDBRANCH  25  26
ENDBRANCH  23  25
ENDBRANCH   6  21
TORSDOF 6
ENDMDL
MODEL 3
REMARK VINA RESULT:      -8.0      2.589     10.786
REMARK  Name = 
REMARK  6 active torsions:
REMARK  status: ('A' for Active; 'I' for Inactive)
REMARK    1  A    between atoms: N_1  and  C_2
REMARK    2  A    between atoms: C_2  and  C_3
REMARK    3  A    between atoms: C_6  and  C_7
REMARK    4  A    between atoms: C_12  and  C_13
REMARK    5  A    between atoms: N_15  and  C_16
REMARK    6  A    between atoms: C_16  and  C_17
REMARK                            x       y       z     vdW  Elec       q    Type
REMARK                         _______ _______ _______ _____ _____    ______ ____
ROOT
ATOM      1  C   UNL     1       2.813   7.413  18.320  0.00  0.00    +0.000 A 
ATOM      2  C   UNL     1       2.283   8.443  17.520  0.00  0.00    +0.000 A 
ATOM      3  C   UNL     1       1.465   9.454  18.023  0.00  0.00    +0.000 A 
ATOM      4  C   UNL     1       1.114   9.435  19.376  0.00  0.00    +0.000 A 
ATOM      5  C   UNL     1       0.286  10.278  20.155  0.00  0.00    +0.000 A 
ATOM      6  C   UNL     1       0.237   9.781  21.443  0.00  0.00    +0.000 A 
ATOM      7  N   UNL     1       1.074   8.670  21.456  0.00  0.00    +0.000 N 
ATOM      8  C   UNL     1       1.609   8.425  20.199  0.00  0.00    +0.000 A 
ATOM      9  C   UNL     1       2.469   7.408  19.700  0.00  0.00    +0.000 A 
ATOM     10  H   UNL     1       1.234   8.102  22.279  0.00  0.00    +0.000 HD
ENDROOT
BRANCH   1  14
ATOM     11  C   UNL     1       5.132   4.499  16.055  0.00  0.00    +0.000 A 
ATOM     12  C   UNL     1       5.481   5.850  16.070  0.00  0.00    +0.000 A 
ATOM     13  C   UNL     1       4.773   6.758  16.867  0.00  0.00    +0.000 A 
ATOM     14  C   UNL     1       3.660   6.378  17.650  0.00  0.00    +0.000 A 
ATOM     15  C   UNL     1       3.347   5.010  17.656  0.00  0.00    +0.000 A 
ATOM     16  C   UNL     1       4.070   4.087  16.871  0.00  0.00    +0.000 A 
BRANCH  11  17
ATOM     17  C   UNL     1       5.858   3.536  15.149  0.00  0.00    +0.000 C 
BRANCH  17  18
ATOM     18  N   UNL     1       6.412   4.206  13.977  0.00  0.00    +0.000 NA
ATOM     19  H   UNL     1       6.340   3.587  13.172  0.00  0.00    +0.000 HD
ATOM     20  H   UNL     1       7.406   4.365  14.132  0.00  0.00    +0.000 HD
ENDBRANCH  17  18
ENDBRANCH  11  17
ENDBRANCH   1  14
BRANCH   6  21
ATOM     21  C   UNL     1      -0.522  10.244  22.598  0.00  0.00    +0.000 C 
ATOM     22  O   UNL     1      -0.327   9.798  23.726  0.00  0.00    +0.000 OA
ATOM     23  N   UNL     1      -1.479  11.209  22.330  0.00  0.00    +0.000 N 
ATOM     24  H   UNL     1      -1.532  11.592  21.397  0.00  0.00    +0.000 HD
BRANCH  23  25
ATOM     25  C   UNL     1      -2.307  11.836  23.353  0.00  0.00    +0.000 C 
BRANCH  25  26
ATOM     26  C   UNL     1      -2.786  13.256  22.973  0.00  0.00    +0.000 C 
ATOM     27  C   UNL     1      -3.820  13.787  23.987  0.00  0.00    +0.000 C 
ATOM     28  C   UNL     1      -5.196  13.133  23.825  0.00  0.00    +0.000 C 
ATOM     29  N   UNL     1      -5.697  13.240  22.455  0.00  0.00    +0.000 NA
ATOM     30  C   UNL     1      -4.760  12.648  21.498  0.00  0.00    +0.000 C 
ATOM     31  C   UNL     1      -3.395  13.331  21.564  0.00  0.00    +0.000 C 
ATOM     32  H   UNL     1      -5.833  14.223  22.222  0.00  0.00    +0.000 HD
ENDBRANCH  25  26
ENDBRANCH  23  25
ENDBRANCH   6  21
TORSDOF 6
ENDMDL
MODEL 4
REMARK VINA RESULT:      -8.0      2.542     10.892
REMARK  Name = 
REMARK  6 active torsions:
REMARK  status: ('A' for Active; 'I' for Inactive)
REMARK    1  A    between atoms: N_1  and  C_2
REMARK    2  A    between atoms: C_2  and  C_3
REMARK    3  A    between atoms: C_6  and  C_7
REMARK    4  A    between atoms: C_12  and  C_13
REMARK    5  A    between atoms: N_15  and  C_16
REMARK    6  A    between atoms: C_16  and  C_17
REMARK                            x       y       z     vdW  Elec       q    Type
REMARK                         _______ _______ _______ _____ _____    ______ ____
ROOT
ATOM      1  C   UNL     1       2.648   7.084  18.664  0.00  0.00    +0.000 A 
ATOM      2  C   UNL     1       2.321   6.397  19.848  0.00  0.00    +0.000 A 
ATOM      3  C   UNL     1       1.564   6.962  20.874  0.00  0.00    +0.000 A 
ATOM      4  C   UNL     1       1.136   8.287  20.752  0.00  0.00    +0.000 A 
ATOM      5  C   UNL     1       0.406   9.134  21.620  0.00  0.00    +0.000 A 
ATOM      6  C   UNL     1       0.293  10.378  21.032  0.00  0.00    +0.000 A 
ATOM      7  N   UNL     1       0.909  10.270  19.789  0.00  0.00    +0.000 N 
ATOM      8  C   UNL     1       1.450   9.007  19.600  0.00  0.00    +0.000 A 
ATOM      9  C   UNL     1       2.194   8.426  18.536  0.00  0.00    +0.000 A 
ATOM     10  H   UNL     1       0.976  11.038  19.132  0.00  0.00    +0.000 HD
ENDROOT
BRANCH   1  14
ATOM     11  C   UNL     1       5.315   4.919  15.983  0.00  0.00    +0.000 A 
ATOM     12  C   UNL     1       4.444   4.245  16.839  0.00  0.00    +0.000 A 
ATOM     13  C   UNL     1       3.538   4.956  17.635  0.00  0.00    +0.000 A 
ATOM     14  C   UNL     1       3.484   6.368  17.652  0.00  0.00    +0.000 A 
ATOM     15  C   UNL     1       4.338   7.030  16.757  0.00  0.00    +0.000 A 
ATOM     16  C   UNL     1       5.238   6.318  15.937  0.00  0.00    +0.000 A 
BRANCH  11  17
ATOM     17  C   UNL     1       6.331   4.153  15.172  0.00  0.00    +0.000 C 
BRANCH  17  18
ATOM     18  N   UNL     1       7.421   5.010  14.717  0.00  0.00    +0.000 NA
ATOM     19  H   UNL     1       7.880   5.426  15.524  0.00  0.00    +0.000 HD
ATOM     20  H   UNL     1       7.026   5.780  14.179  0.00  0.00    +0.000 HD
ENDBRANCH  17  18
ENDBRANCH  11  17
ENDBRANCH   1  14
BRANCH   6  21
ATOM     21  C   UNL     1      -0.305  11.605  21.542  0.00  0.00    +0.000 C 
ATOM     22  O   UNL     1       0.379  12.564  21.896  0.00  0.00    +0.000 OA
ATOM     23  N   UNL     1      -1.688  11.608  21.609  0.00  0.00    +0.000 N 
ATOM     24  H   UNL     1      -2.192  10.821  21.227  0.00  0.00    +0.000 HD
BRANCH  23  25
ATOM     25  C   UNL     1      -2.477  12.754  22.043  0.00  0.00    +0.000 C 
BRANCH  25  26
ATOM     26  C   UNL     1      -2.547  12.906  23.581  0.00  0.00    +0.000 C 
ATOM     27  C   UNL     1      -3.879  12.360  24.137  0.00  0.00    +0.000 C 
ATOM     28  C   UNL     1      -5.062  13.290  23.854  0.00  0.00    +0.000 C 
ATOM     29  N   UNL     1      -4.815  14.653  24.323  0.00  0.00    +0.000 NA
ATOM     30  C   UNL     1      -3.602  15.211  23.721  0.00  0.00    +0.000 C 
ATOM     31  C   UNL     1      -2.377  14.359  24.051  0.00  0.00    +0.000 C 
ATOM     32  H   UNL     1      -4.709  14.647  25.337  0.00  0.00    +0.000 HD
ENDBRANCH  25  26
ENDBRANCH  23  25
ENDBRANCH   6  21
TORSDOF 6
ENDMDL
MODEL 5
REMARK VINA RESULT:      -7.9      2.450     10.896
REMARK  Name = 
REMARK  6 active torsions:
REMARK  status: ('A' for Active; 'I' for Inactive)
REMARK    1  A    between atoms: N_1  and  C_2
REMARK    2  A    between atoms: C_2  and  C_3
REMARK    3  A    between atoms: C_6  and  C_7
REMARK    4  A    between atoms: C_12  and  C_13
REMARK    5  A    between atoms: N_15  and  C_16
REMARK    6  A    between atoms: C_16  and  C_17
REMARK                            x       y       z     vdW  Elec       q    Type
REMARK                         _______ _______ _______ _____ _____    ______ ____
ROOT
ATOM      1  C   UNL     1       2.786   6.845  18.558  0.00  0.00    +0.000 A 
ATOM      2  C   UNL     1       2.502   6.201  19.776  0.00  0.00    +0.000 A 
ATOM      3  C   UNL     1       1.733   6.781  20.785  0.00  0.00    +0.000 A 
ATOM      4  C   UNL     1       1.248   8.080  20.607  0.00  0.00    +0.000 A 
ATOM      5  C   UNL     1       0.493   8.935  21.444  0.00  0.00    +0.000 A 
ATOM      6  C   UNL     1       0.321  10.145  20.801  0.00  0.00    +0.000 A 
ATOM      7  N   UNL     1       0.928  10.005  19.556  0.00  0.00    +0.000 N 
ATOM      8  C   UNL     1       1.519   8.758  19.419  0.00  0.00    +0.000 A 
ATOM      9  C   UNL     1       2.276   8.160  18.374  0.00  0.00    +0.000 A 
ATOM     10  H   UNL     1       0.955  10.744  18.864  0.00  0.00    +0.000 HD
ENDROOT
BRANCH   1  14
ATOM     11  C   UNL     1       5.481   4.618  15.955  0.00  0.00    +0.000 A 
ATOM     12  C   UNL     1       4.503   3.971  16.711  0.00  0.00    +0.000 A 
ATOM     13  C   UNL     1       3.594   4.709  17.479  0.00  0.00    +0.000 A 
ATOM     14  C   UNL     1       3.642   6.118  17.569  0.00  0.00    +0.000 A 
ATOM     15  C   UNL     1       4.605   6.756  16.773  0.00  0.00    +0.000 A 
ATOM     16  C   UNL     1       5.509   6.019  15.980  0.00  0.00    +0.000 A 
BRANCH  11  17
ATOM     17  C   UNL     1       6.496   3.817  15.177  0.00  0.00    +0.000 C 
BRANCH  17  18
ATOM     18  N   UNL     1       6.112   3.671  13.776  0.00  0.00    +0.000 NA
ATOM     19  H   UNL     1       6.744   3.015  13.323  0.00  0.00    +0.000 HD
ATOM     20  H   UNL     1       6.240   4.567  13.309  0.00  0.00    +0.000 HD
ENDBRANCH  17  18
ENDBRANCH  11  17
ENDBRANCH   1  14
BRANCH   6  21
ATOM     21  C   UNL     1      -0.321  11.369  21.262  0.00  0.00    +0.000 C 
ATOM     22  O   UNL     1      -0.382  12.376  20.561  0.00  0.00    +0.000 OA
ATOM     23  N   UNL     1      -0.845  11.317  22.544  0.00  0.00    +0.000 N 
ATOM     24  H   UNL     1      -0.834  10.436  23.035  0.00  0.00    +0.000 HD
BRANCH  23  25
ATOM     25  C   UNL     1      -1.568  12.417  23.169  0.00  0.00    +0.000 C 
BRANCH  25  26
ATOM     26  C   UNL     1      -3.104  12.239  23.139  0.00  0.00    +0.000 C 
ATOM     27  C   UNL     1      -3.710  12.826  21.847  0.00  0.00    +0.000 C 
ATOM     28  C   UNL     1      -3.751  14.358  21.857  0.00  0.00    +0.000 C 
ATOM     29  N   UNL     1      -4.428  14.882  23.043  0.00  0.00    +0.000 NA
ATOM     30  C   UNL     1      -3.794  14.403  24.273  0.00  0.00    +0.000 C 
ATOM     31  C   UNL     1      -3.809  12.878  24.347  0.00  0.00    +0.000 C 
ATOM     32  H   UNL     1      -5.403  14.583  23.034  0.00  0.00    +0.000 HD
ENDBRANCH  25  26
ENDBRANCH  23  25
ENDBRANCH   6  21
TORSDOF 6
ENDMDL
MODEL 6
REMARK VINA RESULT:      -7.9      2.562     10.845
REMARK  Name = 
REMARK  6 active torsions:
REMARK  status: ('A' for Active; 'I' for Inactive)
REMARK    1  A    between atoms: N_1  and  C_2
REMARK    2  A    between atoms: C_2  and  C_3
REMARK    3  A    between atoms: C_6  and  C_7
REMARK    4  A    between atoms: C_12  and  C_13
REMARK    5  A    between atoms: N_15  and  C_16
REMARK    6  A    between atoms: C_16  and  C_17
REMARK                            x       y       z     vdW  Elec       q    Type
REMARK                         _______ _______ _______ _____ _____    ______ ____
ROOT
ATOM      1  C   UNL     1       2.878   6.862  18.585  0.00  0.00    +0.000 A 
ATOM      2  C   UNL     1       2.493   6.205  19.768  0.00  0.00    +0.000 A 
ATOM      3  C   UNL     1       1.654   6.781  20.722  0.00  0.00    +0.000 A 
ATOM      4  C   UNL     1       1.198   8.088  20.525  0.00  0.00    +0.000 A 
ATOM      5  C   UNL     1       0.389   8.941  21.313  0.00  0.00    +0.000 A 
ATOM      6  C   UNL     1       0.281  10.161  20.675  0.00  0.00    +0.000 A 
ATOM      7  N   UNL     1       0.982  10.031  19.479  0.00  0.00    +0.000 N 
ATOM      8  C   UNL     1       1.568   8.778  19.371  0.00  0.00    +0.000 A 
ATOM      9  C   UNL     1       2.398   8.185  18.380  0.00  0.00    +0.000 A 
ATOM     10  H   UNL     1       1.071  10.777  18.802  0.00  0.00    +0.000 HD
ENDROOT
BRANCH   1  14
ATOM     11  C   UNL     1       5.349   4.856  15.608  0.00  0.00    +0.000 A 
ATOM     12  C   UNL     1       5.411   6.237  15.790  0.00  0.00    +0.000 A 
ATOM     13  C   UNL     1       4.671   6.855  16.804  0.00  0.00    +0.000 A 
ATOM     14  C   UNL     1       3.800   6.138  17.656  0.00  0.00    +0.000 A 
ATOM     15  C   UNL     1       3.779   4.745  17.487  0.00  0.00    +0.000 A 
ATOM     16  C   UNL     1       4.540   4.115  16.480  0.00  0.00    +0.000 A 
BRANCH  11  17
ATOM     17  C   UNL     1       6.102   4.202  14.475  0.00  0.00    +0.000 C 
BRANCH  17  18
ATOM     18  N   UNL     1       7.110   5.093  13.908  0.00  0.00    +0.000 NA
ATOM     19  H   UNL     1       7.419   4.723  13.013  0.00  0.00    +0.000 HD
ATOM     20  H   UNL     1       7.925   5.093  14.520  0.00  0.00    +0.000 HD
ENDBRANCH  17  18
ENDBRANCH  11  17
ENDBRANCH   1  14
BRANCH   6  21
ATOM     21  C   UNL     1      -0.383  11.387  21.101  0.00  0.00    +0.000 C 
ATOM     22  O   UNL     1      -0.522  12.348  20.348  0.00  0.00    +0.000 OA
ATOM     23  N   UNL     1      -0.832  11.392  22.412  0.00  0.00    +0.000 N 
ATOM     24  H   UNL     1      -0.760  10.542  22.951  0.00  0.00    +0.000 HD
BRANCH  23  25
ATOM     25  C   UNL     1      -1.562  12.500  23.013  0.00  0.00    +0.000 C 
BRANCH  25  26
ATOM     26  C   UNL     1      -3.090  12.267  23.081  0.00  0.00    +0.000 C 
ATOM     27  C   UNL     1      -3.781  12.706  21.773  0.00  0.00    +0.000 C 
ATOM     28  C   UNL     1      -3.882  14.229  21.641  0.00  0.00    +0.000 C 
ATOM     29  N   UNL     1      -4.521  14.841  22.806  0.00  0.00    +0.000 NA
ATOM     30  C   UNL     1      -3.809  14.504  24.041  0.00  0.00    +0.000 C 
ATOM     31  C   UNL     1      -3.760  12.993  24.258  0.00  0.00    +0.000 C 
ATOM     32  H   UNL     1      -5.482  14.508  22.876  0.00  0.00    +0.000 HD
ENDBRANCH  25  26
ENDBRANCH  23  25
ENDBRANCH   6  21
TORSDOF 6
ENDMDL
MODEL 7
REMARK VINA RESULT:      -7.9      2.537      3.751
REMARK  Name = 
REMARK  6 active torsions:
REMARK  status: ('A' for Active; 'I' for Inactive)
REMARK    1  A    between atoms: N_1  and  C_2
REMARK    2  A    between atoms: C_2  and  C_3
REMARK    3  A    between atoms: C_6  and  C_7
REMARK    4  A    between atoms: C_12  and  C_13
REMARK    5  A    between atoms: N_15  and  C_16
REMARK    6  A    between atoms: C_16  and  C_17
REMARK                            x       y       z     vdW  Elec       q    Type
REMARK                         _______ _______ _______ _____ _____    ______ ____
ROOT
ATOM      1  C   UNL     1       0.262  10.612  20.784  0.00  0.00    +0.000 A 
ATOM      2  C   UNL     1       0.304  10.994  19.431  0.00  0.00    +0.000 A 
ATOM      3  C   UNL     1       0.886  10.211  18.434  0.00  0.00    +0.000 A 
ATOM      4  C   UNL     1       1.495   9.004  18.788  0.00  0.00    +0.000 A 
ATOM      5  C   UNL     1       2.191   8.033  18.029  0.00  0.00    +0.000 A 
ATOM      6  C   UNL     1       2.640   7.044  18.883  0.00  0.00    +0.000 A 
ATOM      7  N   UNL     1       2.174   7.390  20.148  0.00  0.00    +0.000 N 
ATOM      8  C   UNL     1       1.487   8.595  20.121  0.00  0.00    +0.000 A 
ATOM      9  C   UNL     1       0.868   9.374  21.137  0.00  0.00    +0.000 A 
ATOM     10  H   UNL     1       2.354   6.839  20.977  0.00  0.00    +0.000 HD
ENDROOT
BRANCH   1  14
ATOM     11  C   UNL     1      -1.886  13.353  23.404  0.00  0.00    +0.000 A 
ATOM     12  C   UNL     1      -2.139  11.982  23.426  0.00  0.00    +0.000 A 
ATOM     13  C   UNL     1      -1.384  11.107  22.636  0.00  0.00    +0.000 A 
ATOM     14  C   UNL     1      -0.374  11.555  21.755  0.00  0.00    +0.000 A 
ATOM     15  C   UNL     1      -0.104  12.932  21.774  0.00  0.00    +0.000 A 
ATOM     16  C   UNL     1      -0.848  13.816  22.584  0.00  0.00    +0.000 A 
BRANCH  11  17
ATOM     17  C   UNL     1      -2.742  14.298  24.211  0.00  0.00    +0.000 C 
BRANCH  17  18
ATOM     18  N   UNL     1      -3.852  13.606  24.858  0.00  0.00    +0.000 NA
ATOM     19  H   UNL     1      -4.229  14.195  25.596  0.00  0.00    +0.000 HD
ATOM     20  H   UNL     1      -3.493  12.767  25.311  0.00  0.00    +0.000 HD
ENDBRANCH  17  18
ENDBRANCH  11  17
ENDBRANCH   1  14
BRANCH   6  21
ATOM     21  C   UNL     1       3.455   5.868  18.608  0.00  0.00    +0.000 C 
ATOM     22  O   UNL     1       3.067   4.965  17.870  0.00  0.00    +0.000 OA
ATOM     23  N   UNL     1       4.686   5.837  19.243  0.00  0.00    +0.000 N 
ATOM     24  H   UNL     1       4.978   6.647  19.770  0.00  0.00    +0.000 HD
BRANCH  23  25
ATOM     25  C   UNL     1       5.666   4.775  19.061  0.00  0.00    +0.000 C 
BRANCH  25  26
ATOM     26  C   UNL     1       7.071   5.292  18.673  0.00  0.00    +0.000 C 
ATOM     27  C   UNL     1       7.001   6.723  18.098  0.00  0.00    +0.000 C 
ATOM     28  C   UNL     1       6.444   6.759  16.672  0.00  0.00    +0.000 C 
ATOM     29  N   UNL     1       7.174   5.865  15.773  0.00  0.00    +0.000 NA
ATOM     30  C   UNL     1       7.160   4.486  16.267  0.00  0.00    +0.000 C 
ATOM     31  C   UNL     1       7.787   4.389  17.657  0.00  0.00    +0.000 C 
ATOM     32  H   UNL     1       8.141   6.180  15.697  0.00  0.00    +0.000 HD
ENDBRANCH  25  26
ENDBRANCH  23  25
ENDBRANCH   6  21
TORSDOF 6
ENDMDL
MODEL 8
REMARK VINA RESULT:      -7.9      1.677      2.972
REMARK  Name = 
REMARK  6 active torsions:
REMARK  status: ('A' for Active; 'I' for Inactive)
REMARK    1  A    between atoms: N_1  and  C_2
REMARK    2  A    between atoms: C_2  and  C_3
REMARK    3  A    between atoms: C_6  and  C_7
REMARK    4  A    between atoms: C_12  and  C_13
REMARK    5  A    between atoms: N_15  and  C_16
REMARK    6  A    between atoms: C_16  and  C_17
REMARK                            x       y       z     vdW  Elec       q    Type
REMARK                         _______ _______ _______ _____ _____    ______ ____
ROOT
ATOM      1  C   UNL     1       0.209  10.176  20.246  0.00  0.00    +0.000 A 
ATOM      2  C   UNL     1       0.548  10.649  18.964  0.00  0.00    +0.000 A 
ATOM      3  C   UNL     1       1.367   9.944  18.083  0.00  0.00    +0.000 A 
ATOM      4  C   UNL     1       1.916   8.726  18.494  0.00  0.00    +0.000 A 
ATOM      5  C   UNL     1       2.797   7.819  17.858  0.00  0.00    +0.000 A 
ATOM      6  C   UNL     1       3.069   6.782  18.730  0.00  0.00    +0.000 A 
ATOM      7  N   UNL     1       2.315   7.036  19.871  0.00  0.00    +0.000 N 
ATOM      8  C   UNL     1       1.615   8.229  19.760  0.00  0.00    +0.000 A 
ATOM      9  C   UNL     1       0.756   8.928  20.652  0.00  0.00    +0.000 A 
ATOM     10  H   UNL     1       2.317   6.434  20.685  0.00  0.00    +0.000 HD
ENDROOT
BRANCH   1  14
ATOM     11  C   UNL     1      -2.563  12.428  22.744  0.00  0.00    +0.000 A 
ATOM     12  C   UNL     1      -1.735  11.444  23.285  0.00  0.00    +0.000 A 
ATOM     13  C   UNL     1      -0.794  10.787  22.483  0.00  0.00    +0.000 A 
ATOM     14  C   UNL     1      -0.662  11.043  21.099  0.00  0.00    +0.000 A 
ATOM     15  C   UNL     1      -1.473  12.063  20.579  0.00  0.00    +0.000 A 
ATOM     16  C   UNL     1      -2.408  12.743  21.388  0.00  0.00    +0.000 A 
BRANCH  11  17
ATOM     17  C   UNL     1      -3.616  13.090  23.598  0.00  0.00    +0.000 C 
BRANCH  17  18
ATOM     18  N   UNL     1      -4.356  12.118  24.397  0.00  0.00    +0.000 NA
ATOM     19  H   UNL     1      -4.509  12.497  25.328  0.00  0.00    +0.000 HD
ATOM     20  H   UNL     1      -3.780  11.286  24.513  0.00  0.00    +0.000 HD
ENDBRANCH  17  18
ENDBRANCH  11  17
ENDBRANCH   1  14
BRANCH   6  21
ATOM     21  C   UNL     1       3.962   5.640  18.579  0.00  0.00    +0.000 C 
ATOM     22  O   UNL     1       5.030   5.565  19.182  0.00  0.00    +0.000 OA
ATOM     23  N   UNL     1       3.526   4.659  17.703  0.00  0.00    +0.000 N 
ATOM     24  H   UNL     1       2.603   4.743  17.304  0.00  0.00    +0.000 HD
BRANCH  23  25
ATOM     25  C   UNL     1       4.248   3.418  17.452  0.00  0.00    +0.000 C 
BRANCH  25  26
ATOM     26  C   UNL     1       3.468   2.153  17.881  0.00  0.00    +0.000 C 
ATOM     27  C   UNL     1       1.965   2.457  18.058  0.00  0.00    +0.000 C 
ATOM     28  C   UNL     1       1.668   3.240  19.340  0.00  0.00    +0.000 C 
ATOM     29  N   UNL     1       2.217   2.582  20.526  0.00  0.00    +0.000 NA
ATOM     30  C   UNL     1       3.662   2.380  20.401  0.00  0.00    +0.000 C 
ATOM     31  C   UNL     1       4.000   1.528  19.179  0.00  0.00    +0.000 C 
ATOM     32  H   UNL     1       1.765   1.676  20.648  0.00  0.00    +0.000 HD
ENDBRANCH  25  26
ENDBRANCH  23  25
ENDBRANCH   6  21
TORSDOF 6
ENDMDL
MODEL 9
REMARK VINA RESULT:      -7.8      4.111     10.961
REMARK  Name = 
REMARK  6 active torsions:
REMARK  status: ('A' for Active; 'I' for Inactive)
REMARK    1  A    between atoms: N_1  and  C_2
REMARK    2  A    between atoms: C_2  and  C_3
REMARK    3  A    between atoms: C_6  and  C_7
REMARK    4  A    between atoms: C_12  and  C_13
REMARK    5  A    between atoms: N_15  and  C_16
REMARK    6  A    between atoms: C_16  and  C_17
REMARK                            x       y       z     vdW  Elec       q    Type
REMARK                         _______ _______ _______ _____ _____    ______ ____
ROOT
ATOM      1  C   UNL     1       2.692   7.462  18.371  0.00  0.00    +0.000 A 
ATOM      2  C   UNL     1       2.281   7.212  19.694  0.00  0.00    +0.000 A 
ATOM      3  C   UNL     1       1.457   8.078  20.413  0.00  0.00    +0.000 A 
ATOM      4  C   UNL     1       1.045   9.274  19.818  0.00  0.00    +0.000 A 
ATOM      5  C   UNL     1       0.260  10.351  20.295  0.00  0.00    +0.000 A 
ATOM      6  C   UNL     1       0.194  11.318  19.312  0.00  0.00    +0.000 A 
ATOM      7  N   UNL     1       0.894  10.806  18.224  0.00  0.00    +0.000 N 
ATOM      8  C   UNL     1       1.440   9.564  18.514  0.00  0.00    +0.000 A 
ATOM      9  C   UNL     1       2.254   8.672  17.764  0.00  0.00    +0.000 A 
ATOM     10  H   UNL     1       1.009  11.305  17.351  0.00  0.00    +0.000 HD
ENDROOT
BRANCH   1  14
ATOM     11  C   UNL     1       5.169   4.636  16.164  0.00  0.00    +0.000 A 
ATOM     12  C   UNL     1       5.455   6.002  16.168  0.00  0.00    +0.000 A 
ATOM     13  C   UNL     1       4.697   6.884  16.947  0.00  0.00    +0.000 A 
ATOM     14  C   UNL     1       3.594   6.461  17.722  0.00  0.00    +0.000 A 
ATOM     15  C   UNL     1       3.344   5.080  17.739  0.00  0.00    +0.000 A 
ATOM     16  C   UNL     1       4.118   4.183  16.973  0.00  0.00    +0.000 A 
BRANCH  11  17
ATOM     17  C   UNL     1       5.950   3.698  15.277  0.00  0.00    +0.000 C 
BRANCH  17  18
ATOM     18  N   UNL     1       6.371   4.346  14.039  0.00  0.00    +0.000 NA
ATOM     19  H   UNL     1       6.756   3.647  13.409  0.00  0.00    +0.000 HD
ATOM     20  H   UNL     1       7.129   4.993  14.252  0.00  0.00    +0.000 HD
ENDBRANCH  17  18
ENDBRANCH  11  17
ENDBRANCH   1  14
BRANCH   6  21
ATOM     21  C   UNL     1      -0.432  12.634  19.333  0.00  0.00    +0.000 C 
ATOM     22  O   UNL     1      -1.515  12.831  19.879  0.00  0.00    +0.000 OA
ATOM     23  N   UNL     1       0.272  13.637  18.686  0.00  0.00    +0.000 N 
ATOM     24  H   UNL     1       1.193  13.427  18.329  0.00  0.00    +0.000 HD
BRANCH  23  25
ATOM     25  C   UNL     1      -0.158  15.028  18.637  0.00  0.00    +0.000 C 
BRANCH  25  26
ATOM     26  C   UNL     1       0.727  15.977  19.478  0.00  0.00    +0.000 C 
ATOM     27  C   UNL     1       0.508  17.450  19.074  0.00  0.00    +0.000 C 
ATOM     28  C   UNL     1       1.169  17.799  17.736  0.00  0.00    +0.000 C 
ATOM     29  N   UNL     1       2.589  17.452  17.717  0.00  0.00    +0.000 NA
ATOM     30  C   UNL     1       2.794  16.031  18.006  0.00  0.00    +0.000 C 
ATOM     31  C   UNL     1       2.226  15.656  19.373  0.00  0.00    +0.000 C 
ATOM     32  H   UNL     1       3.081  18.007  18.417  0.00  0.00    +0.000 HD
ENDBRANCH  25  26
ENDBRANCH  23  25
ENDBRANCH   6  21
TORSDOF 6
ENDMDL
