MODEL 1
REMARK VINA RESULT:      -8.2      0.000      0.000
REMARK  Name = 
REMARK  8 active torsions:
REMARK  status: ('A' for Active; 'I' for Inactive)
REMARK    1  A    between atoms: C_1  and  N_2
REMARK    2  A    between atoms: C_6  and  C_7
REMARK    3  A    between atoms: C_12  and  O_13
REMARK    4  A    between atoms: O_13  and  C_14
REMARK    5  A    between atoms: C_17  and  S_18
REMARK    6  A    between atoms: S_18  and  N_21
REMARK    7  A    between atoms: N_21  and  C_22
REMARK    8  A    between atoms: C_28  and  C_29
REMARK                            x       y       z     vdW  Elec       q    Type
REMARK                         _______ _______ _______ _____ _____    ______ ____
ROOT
ATOM      1  C   UNL     1       2.541   6.908  19.652  0.00  0.00    +0.000 A 
ATOM      2  C   UNL     1       1.576   7.145  20.646  0.00  0.00    +0.000 A 
ATOM      3  C   UNL     1       0.874   8.348  20.671  0.00  0.00    +0.000 A 
ATOM      4  C   UNL     1       1.039   9.268  19.635  0.00  0.00    +0.000 A 
ATOM      5  C   UNL     1       1.859   8.960  18.540  0.00  0.00    +0.000 A 
ATOM      6  C   UNL     1       2.610   7.769  18.544  0.00  0.00    +0.000 A 
ENDROOT
BRANCH   4   7
ATOM      7  S   UNL     1       0.349  10.909  19.841  0.00  0.00    +0.000 S 
ATOM      8  O   UNL     1      -0.786  10.787  20.728  0.00  0.00    +0.000 OA
ATOM      9  O   UNL     1       1.457  11.793  20.153  0.00  0.00    +0.000 OA
BRANCH   7  10
ATOM     10  N   UNL     1      -0.212  11.377  18.317  0.00  0.00    +0.000 N 
ATOM     11  H   UNL     1       0.472  11.051  17.634  0.00  0.00    +0.000 HD
BRANCH  10  12
ATOM     12  C   UNL     1      -1.518  11.066  17.975  0.00  0.00    +0.000 A 
ATOM     13  C   UNL     1      -2.640  11.833  18.221  0.00  0.00    +0.000 A 
ATOM     14  S   UNL     1      -4.038  10.999  17.678  0.00  0.00    +0.000 S 
ATOM     15  C   UNL     1      -3.035   9.714  17.149  0.00  0.00    +0.000 A 
ATOM     16  N   UNL     1      -1.741   9.877  17.327  0.00  0.00    +0.000 NA
ENDBRANCH  10  12
ENDBRANCH   7  10
ENDBRANCH   4   7
BRANCH   6  17
ATOM     17  C   UNL     1       3.450   7.459  17.417  0.00  0.00    +0.000 C 
ATOM     18  N   UNL     1       4.138   7.254  16.511  0.00  0.00    +0.000 NA
ENDBRANCH   6  17
BRANCH   1  19
ATOM     19  O   UNL     1       3.468   5.872  19.780  0.00  0.00    +0.000 OA
BRANCH  19  25
ATOM     20  C   UNL     1       4.078   4.025  18.290  0.00  0.00    +0.000 A 
ATOM     21  C   UNL     1       3.617   2.854  17.634  0.00  0.00    +0.000 A 
ATOM     22  C   UNL     1       2.338   2.326  17.828  0.00  0.00    +0.000 A 
ATOM     23  C   UNL     1       1.485   2.924  18.735  0.00  0.00    +0.000 A 
ATOM     24  C   UNL     1       1.916   4.048  19.431  0.00  0.00    +0.000 A 
ATOM     25  C   UNL     1       3.168   4.659  19.164  0.00  0.00    +0.000 A 
BRANCH  20  31
ATOM     26  C   UNL     1       5.713   3.981  15.473  0.00  0.00    +0.000 C 
ATOM     27  N   UNL     1       6.170   4.362  16.784  0.00  0.00    +0.000 N 
ATOM     28  N   UNL     1       7.483   4.669  16.893  0.00  0.00    +0.000 NA
ATOM     29  C   UNL     1       7.648   4.957  18.178  0.00  0.00    +0.000 A 
ATOM     30  C   UNL     1       6.448   4.849  18.889  0.00  0.00    +0.000 A 
ATOM     31  C   UNL     1       5.480   4.416  17.981  0.00  0.00    +0.000 A 
ENDBRANCH  20  31
ENDBRANCH  19  25
ENDBRANCH   1  19
TORSDOF 7
ENDMDL
MODEL 2
REMARK VINA RESULT:      -8.2      0.742      1.401
REMARK  Name = 
REMARK  8 active torsions:
REMARK  status: ('A' for Active; 'I' for Inactive)
REMARK    1  A    between atoms: C_1  and  N_2
REMARK    2  A    between atoms: C_6  and  C_7
REMARK    3  A    between atoms: C_12  and  O_13
REMARK    4  A    between atoms: O_13  and  C_14
REMARK    5  A    between atoms: C_17  and  S_18
REMARK    6  A    between atoms: S_18  and  N_21
REMARK    7  A    between atoms: N_21  and  C_22
REMARK    8  A    between atoms: C_28  and  C_29
REMARK                            x       y       z     vdW  Elec       q    Type
REMARK                         _______ _______ _______ _____ _____    ______ ____
ROOT
ATOM      1  C   UNL     1       2.394   7.113  19.794  0.00  0.00    +0.000 A 
ATOM      2  C   UNL     1       1.411   7.421  20.749  0.00  0.00    +0.000 A 
ATOM      3  C   UNL     1       0.740   8.640  20.699  0.00  0.00    +0.000 A 
ATOM      4  C   UNL     1       0.954   9.506  19.625  0.00  0.00    +0.000 A 
ATOM      5  C   UNL     1       1.794   9.125  18.568  0.00  0.00    +0.000 A 
ATOM      6  C   UNL     1       2.515   7.918  18.649  0.00  0.00    +0.000 A 
ENDROOT
BRANCH   4   7
ATOM      7  S   UNL     1       0.302  11.171  19.735  0.00  0.00    +0.000 S 
ATOM      8  O   UNL     1      -0.779  11.144  20.694  0.00  0.00    +0.000 OA
ATOM      9  O   UNL     1       1.440  12.056  19.907  0.00  0.00    +0.000 OA
BRANCH   7  10
ATOM     10  N   UNL     1      -0.342  11.523  18.214  0.00  0.00    +0.000 N 
ATOM     11  H   UNL     1       0.328  11.190  17.520  0.00  0.00    +0.000 HD
BRANCH  10  12
ATOM     12  C   UNL     1      -1.645  11.133  17.946  0.00  0.00    +0.000 A 
ATOM     13  C   UNL     1      -2.792  11.852  18.213  0.00  0.00    +0.000 A 
ATOM     14  S   UNL     1      -4.168  10.927  17.771  0.00  0.00    +0.000 S 
ATOM     15  C   UNL     1      -3.124   9.672  17.248  0.00  0.00    +0.000 A 
ATOM     16  N   UNL     1      -1.835   9.907  17.359  0.00  0.00    +0.000 NA
ENDBRANCH  10  12
ENDBRANCH   7  10
ENDBRANCH   4   7
BRANCH   6  17
ATOM     17  C   UNL     1       3.375   7.534  17.561  0.00  0.00    +0.000 C 
ATOM     18  N   UNL     1       4.028   7.211  16.663  0.00  0.00    +0.000 NA
ENDBRANCH   6  17
BRANCH   1  19
ATOM     19  O   UNL     1       3.290   6.061  19.995  0.00  0.00    +0.000 OA
BRANCH  19  25
ATOM     20  C   UNL     1       3.250   3.830  18.984  0.00  0.00    +0.000 A 
ATOM     21  C   UNL     1       2.582   2.578  18.947  0.00  0.00    +0.000 A 
ATOM     22  C   UNL     1       1.523   2.254  19.799  0.00  0.00    +0.000 A 
ATOM     23  C   UNL     1       1.128   3.157  20.766  0.00  0.00    +0.000 A 
ATOM     24  C   UNL     1       1.786   4.377  20.865  0.00  0.00    +0.000 A 
ATOM     25  C   UNL     1       2.786   4.764  19.937  0.00  0.00    +0.000 A 
BRANCH  20  31
ATOM     26  C   UNL     1       6.213   5.127  19.373  0.00  0.00    +0.000 C 
ATOM     27  N   UNL     1       5.615   4.561  18.192  0.00  0.00    +0.000 N 
ATOM     28  N   UNL     1       6.343   4.647  17.055  0.00  0.00    +0.000 NA
ATOM     29  C   UNL     1       5.575   4.086  16.130  0.00  0.00    +0.000 A 
ATOM     30  C   UNL     1       4.367   3.630  16.668  0.00  0.00    +0.000 A 
ATOM     31  C   UNL     1       4.372   3.980  18.020  0.00  0.00    +0.000 A 
ENDBRANCH  20  31
ENDBRANCH  19  25
ENDBRANCH   1  19
TORSDOF 7
ENDMDL
MODEL 3
REMARK VINA RESULT:      -8.0      2.298      3.480
REMARK  Name = 
REMARK  8 active torsions:
REMARK  status: ('A' for Active; 'I' for Inactive)
REMARK    1  A    between atoms: C_1  and  N_2
REMARK    2  A    between atoms: C_6  and  C_7
REMARK    3  A    between atoms: C_12  and  O_13
REMARK    4  A    between atoms: O_13  and  C_14
REMARK    5  A    between atoms: C_17  and  S_18
REMARK    6  A    between atoms: S_18  and  N_21
REMARK    7  A    between atoms: N_21  and  C_22
REMARK    8  A    between atoms: C_28  and  C_29
REMARK                            x       y       z     vdW  Elec       q    Type
REMARK                         _______ _______ _______ _____ _____    ______ ____
ROOT
ATOM      1  C   UNL     1       1.822   8.448  19.619  0.00  0.00    +0.000 A 
ATOM      2  C   UNL     1       1.731   8.655  18.232  0.00  0.00    +0.000 A 
ATOM      3  C   UNL     1       0.703   9.432  17.704  0.00  0.00    +0.000 A 
ATOM      4  C   UNL     1      -0.165  10.110  18.562  0.00  0.00    +0.000 A 
ATOM      5  C   UNL     1       0.033  10.061  19.950  0.00  0.00    +0.000 A 
ATOM      6  C   UNL     1       1.037   9.230  20.483  0.00  0.00    +0.000 A 
ENDROOT
BRANCH   4   7
ATOM      7  S   UNL     1      -1.634  10.859  17.863  0.00  0.00    +0.000 S 
ATOM      8  O   UNL     1      -1.923  10.165  16.629  0.00  0.00    +0.000 OA
ATOM      9  O   UNL     1      -2.614  10.936  18.931  0.00  0.00    +0.000 OA
BRANCH   7  10
ATOM     10  N   UNL     1      -1.217  12.454  17.493  0.00  0.00    +0.000 N 
ATOM     11  H   UNL     1      -2.074  12.932  17.215  0.00  0.00    +0.000 HD
BRANCH  10  12
ATOM     12  C   UNL     1      -0.468  13.168  18.417  0.00  0.00    +0.000 A 
ATOM     13  C   UNL     1      -0.941  13.803  19.547  0.00  0.00    +0.000 A 
ATOM     14  S   UNL     1       0.350  14.614  20.335  0.00  0.00    +0.000 S 
ATOM     15  C   UNL     1       1.417  14.036  19.125  0.00  0.00    +0.000 A 
ATOM     16  N   UNL     1       0.883  13.268  18.200  0.00  0.00    +0.000 NA
ENDBRANCH  10  12
ENDBRANCH   7  10
ENDBRANCH   4   7
BRANCH   6  17
ATOM     17  C   UNL     1       1.234   9.184  21.908  0.00  0.00    +0.000 C 
ATOM     18  N   UNL     1       1.438   9.151  23.045  0.00  0.00    +0.000 NA
ENDBRANCH   6  17
BRANCH   1  19
ATOM     19  O   UNL     1       2.631   7.439  20.145  0.00  0.00    +0.000 OA
BRANCH  19  25
ATOM     20  C   UNL     1       3.009   5.441  18.779  0.00  0.00    +0.000 A 
ATOM     21  C   UNL     1       2.531   4.146  18.450  0.00  0.00    +0.000 A 
ATOM     22  C   UNL     1       1.447   3.547  19.096  0.00  0.00    +0.000 A 
ATOM     23  C   UNL     1       0.831   4.204  20.143  0.00  0.00    +0.000 A 
ATOM     24  C   UNL     1       1.298   5.457  20.526  0.00  0.00    +0.000 A 
ATOM     25  C   UNL     1       2.324   6.123  19.808  0.00  0.00    +0.000 A 
BRANCH  20  31
ATOM     26  C   UNL     1       6.192   5.158  19.412  0.00  0.00    +0.000 C 
ATOM     27  N   UNL     1       5.538   5.798  18.300  0.00  0.00    +0.000 N 
ATOM     28  N   UNL     1       6.343   6.449  17.428  0.00  0.00    +0.000 NA
ATOM     29  C   UNL     1       5.510   6.959  16.530  0.00  0.00    +0.000 A 
ATOM     30  C   UNL     1       4.181   6.628  16.812  0.00  0.00    +0.000 A 
ATOM     31  C   UNL     1       4.192   5.898  18.002  0.00  0.00    +0.000 A 
ENDBRANCH  20  31
ENDBRANCH  19  25
ENDBRANCH   1  19
TORSDOF 7
ENDMDL
MODEL 4
REMARK VINA RESULT:      -7.9      2.557      3.130
REMARK  Name = 
REMARK  8 active torsions:
REMARK  status: ('A' for Active; 'I' for Inactive)
REMARK    1  A    between atoms: C_1  and  N_2
REMARK    2  A    between atoms: C_6  and  C_7
REMARK    3  A    between atoms: C_12  and  O_13
REMARK    4  A    between atoms: O_13  and  C_14
REMARK    5  A    between atoms: C_17  and  S_18
REMARK    6  A    between atoms: S_18  and  N_21
REMARK    7  A    between atoms: N_21  and  C_22
REMARK    8  A    between atoms: C_28  and  C_29
REMARK                            x       y       z     vdW  Elec       q    Type
REMARK                         _______ _______ _______ _____ _____    ______ ____
ROOT
ATOM      1  C   UNL     1       2.057   7.258  20.058  0.00  0.00    +0.000 A 
ATOM      2  C   UNL     1       1.221   7.382  21.180  0.00  0.00    +0.000 A 
ATOM      3  C   UNL     1       0.568   8.585  21.441  0.00  0.00    +0.000 A 
ATOM      4  C   UNL     1       0.644   9.629  20.518  0.00  0.00    +0.000 A 
ATOM      5  C   UNL     1       1.323   9.450  19.304  0.00  0.00    +0.000 A 
ATOM      6  C   UNL     1       2.029   8.255  19.068  0.00  0.00    +0.000 A 
ENDROOT
BRANCH   4   7
ATOM      7  S   UNL     1       0.039  11.241  21.011  0.00  0.00    +0.000 S 
ATOM      8  O   UNL     1       1.188  12.110  21.135  0.00  0.00    +0.000 OA
ATOM      9  O   UNL     1      -1.059  11.568  20.120  0.00  0.00    +0.000 OA
BRANCH   7  10
ATOM     10  N   UNL     1      -0.644  11.038  22.543  0.00  0.00    +0.000 N 
ATOM     11  H   UNL     1       0.122  10.841  23.188  0.00  0.00    +0.000 HD
BRANCH  10  12
ATOM     12  C   UNL     1      -1.514  12.011  23.009  0.00  0.00    +0.000 A 
ATOM     13  C   UNL     1      -1.240  13.354  23.168  0.00  0.00    +0.000 A 
ATOM     14  S   UNL     1      -2.606  14.145  23.842  0.00  0.00    +0.000 S 
ATOM     15  C   UNL     1      -3.440  12.648  23.842  0.00  0.00    +0.000 A 
ATOM     16  N   UNL     1      -2.782  11.618  23.355  0.00  0.00    +0.000 NA
ENDBRANCH  10  12
ENDBRANCH   7  10
ENDBRANCH   4   7
BRANCH   6  17
ATOM     17  C   UNL     1       2.723   8.079  17.820  0.00  0.00    +0.000 C 
ATOM     18  N   UNL     1       3.280   7.891  16.824  0.00  0.00    +0.000 NA
ENDBRANCH   6  17
BRANCH   1  19
ATOM     19  O   UNL     1       2.956   6.197  19.943  0.00  0.00    +0.000 OA
BRANCH  19  25
ATOM     20  C   UNL     1       2.953   4.184  18.546  0.00  0.00    +0.000 A 
ATOM     21  C   UNL     1       2.271   2.977  18.240  0.00  0.00    +0.000 A 
ATOM     22  C   UNL     1       1.151   2.535  18.949  0.00  0.00    +0.000 A 
ATOM     23  C   UNL     1       0.703   3.261  20.035  0.00  0.00    +0.000 A 
ATOM     24  C   UNL     1       1.371   4.426  20.395  0.00  0.00    +0.000 A 
ATOM     25  C   UNL     1       2.439   4.945  19.619  0.00  0.00    +0.000 A 
BRANCH  20  31
ATOM     26  C   UNL     1       5.946   5.170  19.372  0.00  0.00    +0.000 C 
ATOM     27  N   UNL     1       5.398   4.922  18.064  0.00  0.00    +0.000 N 
ATOM     28  N   UNL     1       6.202   5.213  17.014  0.00  0.00    +0.000 NA
ATOM     29  C   UNL     1       5.468   4.922  15.948  0.00  0.00    +0.000 A 
ATOM     30  C   UNL     1       4.207   4.435  16.306  0.00  0.00    +0.000 A 
ATOM     31  C   UNL     1       4.142   4.473  17.701  0.00  0.00    +0.000 A 
ENDBRANCH  20  31
ENDBRANCH  19  25
ENDBRANCH   1  19
TORSDOF 7
ENDMDL
MODEL 5
REMARK VINA RESULT:      -7.9      1.722      2.298
REMARK  Name = 
REMARK  8 active torsions:
REMARK  status: ('A' for Active; 'I' for Inactive)
REMARK    1  A    between atoms: C_1  and  N_2
REMARK    2  A    between atoms: C_6  and  C_7
REMARK    3  A    between atoms: C_12  and  O_13
REMARK    4  A    between atoms: O_13  and  C_14
REMARK    5  A    between atoms: C_17  and  S_18
REMARK    6  A    between atoms: S_18  and  N_21
REMARK    7  A    between atoms: N_21  and  C_22
REMARK    8  A    between atoms: C_28  and  C_29
REMARK                            x       y       z     vdW  Elec       q    Type
REMARK                         _______ _______ _______ _____ _____    ______ ____
ROOT
ATOM      1  C   UNL     1       2.579   6.904  19.660  0.00  0.00    +0.000 A 
ATOM      2  C   UNL     1       1.618   7.153  20.655  0.00  0.00    +0.000 A 
ATOM      3  C   UNL     1       0.933   8.365  20.684  0.00  0.00    +0.000 A 
ATOM      4  C   UNL     1       1.111   9.286  19.650  0.00  0.00    +0.000 A 
ATOM      5  C   UNL     1       1.926   8.968  18.553  0.00  0.00    +0.000 A 
ATOM      6  C   UNL     1       2.660   7.766  18.555  0.00  0.00    +0.000 A 
ENDROOT
BRANCH   4   7
ATOM      7  S   UNL     1       0.445  10.936  19.860  0.00  0.00    +0.000 S 
ATOM      8  O   UNL     1      -0.994  10.814  19.900  0.00  0.00    +0.000 OA
ATOM      9  O   UNL     1       1.180  11.548  20.952  0.00  0.00    +0.000 OA
BRANCH   7  10
ATOM     10  N   UNL     1       0.870  11.794  18.468  0.00  0.00    +0.000 N 
ATOM     11  H   UNL     1       0.255  11.473  17.719  0.00  0.00    +0.000 HD
BRANCH  10  12
ATOM     12  C   UNL     1       0.957  13.175  18.549  0.00  0.00    +0.000 A 
ATOM     13  C   UNL     1       2.111  13.931  18.519  0.00  0.00    +0.000 A 
ATOM     14  S   UNL     1       1.720  15.589  18.725  0.00  0.00    +0.000 S 
ATOM     15  C   UNL     1       0.063  15.159  18.814  0.00  0.00    +0.000 A 
ATOM     16  N   UNL     1      -0.213  13.880  18.677  0.00  0.00    +0.000 NA
ENDBRANCH  10  12
ENDBRANCH   7  10
ENDBRANCH   4   7
BRANCH   6  17
ATOM     17  C   UNL     1       3.495   7.447  17.426  0.00  0.00    +0.000 C 
ATOM     18  N   UNL     1       4.177   7.235  16.517  0.00  0.00    +0.000 NA
ENDBRANCH   6  17
BRANCH   1  19
ATOM     19  O   UNL     1       3.491   5.854  19.785  0.00  0.00    +0.000 OA
BRANCH  19  25
ATOM     20  C   UNL     1       4.089   4.017  18.279  0.00  0.00    +0.000 A 
ATOM     21  C   UNL     1       3.619   2.859  17.606  0.00  0.00    +0.000 A 
ATOM     22  C   UNL     1       2.332   2.345  17.784  0.00  0.00    +0.000 A 
ATOM     23  C   UNL     1       1.480   2.943  18.692  0.00  0.00    +0.000 A 
ATOM     24  C   UNL     1       1.919   4.054  19.404  0.00  0.00    +0.000 A 
ATOM     25  C   UNL     1       3.180   4.652  19.153  0.00  0.00    +0.000 A 
BRANCH  20  31
ATOM     26  C   UNL     1       5.760   3.934  15.484  0.00  0.00    +0.000 C 
ATOM     27  N   UNL     1       6.203   4.323  16.797  0.00  0.00    +0.000 N 
ATOM     28  N   UNL     1       7.517   4.621  16.921  0.00  0.00    +0.000 NA
ATOM     29  C   UNL     1       7.667   4.918  18.205  0.00  0.00    +0.000 A 
ATOM     30  C   UNL     1       6.458   4.827  18.901  0.00  0.00    +0.000 A 
ATOM     31  C   UNL     1       5.498   4.393  17.985  0.00  0.00    +0.000 A 
ENDBRANCH  20  31
ENDBRANCH  19  25
ENDBRANCH   1  19
TORSDOF 7
ENDMDL
MODEL 6
REMARK VINA RESULT:      -7.9      1.848      2.660
REMARK  Name = 
REMARK  8 active torsions:
REMARK  status: ('A' for Active; 'I' for Inactive)
REMARK    1  A    between atoms: C_1  and  N_2
REMARK    2  A    between atoms: C_6  and  C_7
REMARK    3  A    between atoms: C_12  and  O_13
REMARK    4  A    between atoms: O_13  and  C_14
REMARK    5  A    between atoms: C_17  and  S_18
REMARK    6  A    between atoms: S_18  and  N_21
REMARK    7  A    between atoms: N_21  and  C_22
REMARK    8  A    between atoms: C_28  and  C_29
REMARK                            x       y       z     vdW  Elec       q    Type
REMARK                         _______ _______ _______ _____ _____    ______ ____
ROOT
ATOM      1  C   UNL     1       2.382   7.030  19.729  0.00  0.00    +0.000 A 
ATOM      2  C   UNL     1       1.433   7.305  20.729  0.00  0.00    +0.000 A 
ATOM      3  C   UNL     1       0.798   8.544  20.773  0.00  0.00    +0.000 A 
ATOM      4  C   UNL     1       1.011   9.468  19.750  0.00  0.00    +0.000 A 
ATOM      5  C   UNL     1       1.811   9.131  18.648  0.00  0.00    +0.000 A 
ATOM      6  C   UNL     1       2.497   7.901  18.634  0.00  0.00    +0.000 A 
ENDROOT
BRANCH   4   7
ATOM      7  S   UNL     1       0.413  11.141  19.981  0.00  0.00    +0.000 S 
ATOM      8  O   UNL     1      -1.027  11.071  20.076  0.00  0.00    +0.000 OA
ATOM      9  O   UNL     1       1.210  11.728  21.042  0.00  0.00    +0.000 OA
BRANCH   7  10
ATOM     10  N   UNL     1       0.815  11.982  18.572  0.00  0.00    +0.000 N 
ATOM     11  H   UNL     1       0.203  11.636  17.832  0.00  0.00    +0.000 HD
BRANCH  10  12
ATOM     12  C   UNL     1       0.876  13.366  18.627  0.00  0.00    +0.000 A 
ATOM     13  C   UNL     1       2.016  14.142  18.590  0.00  0.00    +0.000 A 
ATOM     14  S   UNL     1       1.593  15.796  18.763  0.00  0.00    +0.000 S 
ATOM     15  C   UNL     1      -0.057  15.338  18.850  0.00  0.00    +0.000 A 
ATOM     16  N   UNL     1      -0.308  14.052  18.735  0.00  0.00    +0.000 NA
ENDBRANCH  10  12
ENDBRANCH   7  10
ENDBRANCH   4   7
BRANCH   6  17
ATOM     17  C   UNL     1       3.316   7.562  17.500  0.00  0.00    +0.000 C 
ATOM     18  N   UNL     1       3.995   7.258  16.615  0.00  0.00    +0.000 NA
ENDBRANCH   6  17
BRANCH   1  19
ATOM     19  O   UNL     1       3.251   5.942  19.839  0.00  0.00    +0.000 OA
BRANCH  19  25
ATOM     20  C   UNL     1       3.245   3.801  18.650  0.00  0.00    +0.000 A 
ATOM     21  C   UNL     1       2.552   2.577  18.452  0.00  0.00    +0.000 A 
ATOM     22  C   UNL     1       1.415   2.220  19.180  0.00  0.00    +0.000 A 
ATOM     23  C   UNL     1       0.957   3.056  20.180  0.00  0.00    +0.000 A 
ATOM     24  C   UNL     1       1.634   4.243  20.434  0.00  0.00    +0.000 A 
ATOM     25  C   UNL     1       2.722   4.670  19.631  0.00  0.00    +0.000 A 
BRANCH  20  31
ATOM     26  C   UNL     1       6.151   5.087  19.366  0.00  0.00    +0.000 C 
ATOM     27  N   UNL     1       5.670   4.567  18.113  0.00  0.00    +0.000 N 
ATOM     28  N   UNL     1       6.501   4.700  17.053  0.00  0.00    +0.000 NA
ATOM     29  C   UNL     1       5.826   4.175  16.039  0.00  0.00    +0.000 A 
ATOM     30  C   UNL     1       4.576   3.695  16.443  0.00  0.00    +0.000 A 
ATOM     31  C   UNL     1       4.452   3.991  17.802  0.00  0.00    +0.000 A 
ENDBRANCH  20  31
ENDBRANCH  19  25
ENDBRANCH   1  19
TORSDOF 7
ENDMDL
MODEL 7
REMARK VINA RESULT:      -7.8      1.839      3.162
REMARK  Name = 
REMARK  8 active torsions:
REMARK  status: ('A' for Active; 'I' for Inactive)
REMARK    1  A    between atoms: C_1  and  N_2
REMARK    2  A    between atoms: C_6  and  C_7
REMARK    3  A    between atoms: C_12  and  O_13
REMARK    4  A    between atoms: O_13  and  C_14
REMARK    5  A    between atoms: C_17  and  S_18
REMARK    6  A    between atoms: S_18  and  N_21
REMARK    7  A    between atoms: N_21  and  C_22
REMARK    8  A    between atoms: C_28  and  C_29
REMARK                            x       y       z     vdW  Elec       q    Type
REMARK                         _______ _______ _______ _____ _____    ______ ____
ROOT
ATOM      1  C   UNL     1       2.674   7.338  18.315  0.00  0.00    +0.000 A 
ATOM      2  C   UNL     1       2.756   8.576  17.656  0.00  0.00    +0.000 A 
ATOM      3  C   UNL     1       2.040   9.673  18.129  0.00  0.00    +0.000 A 
ATOM      4  C   UNL     1       1.339   9.576  19.332  0.00  0.00    +0.000 A 
ATOM      5  C   UNL     1       1.404   8.401  20.095  0.00  0.00    +0.000 A 
ATOM      6  C   UNL     1       2.081   7.276  19.587  0.00  0.00    +0.000 A 
ENDROOT
BRANCH   4   7
ATOM      7  S   UNL     1       0.208  10.897  19.763  0.00  0.00    +0.000 S 
ATOM      8  O   UNL     1      -0.887  10.301  20.494  0.00  0.00    +0.000 OA
ATOM      9  O   UNL     1       1.007  11.963  20.339  0.00  0.00    +0.000 OA
BRANCH   7  10
ATOM     10  N   UNL     1      -0.391  11.497  18.301  0.00  0.00    +0.000 N 
ATOM     11  H   UNL     1       0.321  11.321  17.591  0.00  0.00    +0.000 HD
BRANCH  10  12
ATOM     12  C   UNL     1      -1.663  11.113  17.906  0.00  0.00    +0.000 A 
ATOM     13  C   UNL     1      -2.847  11.759  18.198  0.00  0.00    +0.000 A 
ATOM     14  S   UNL     1      -4.164  10.868  17.554  0.00  0.00    +0.000 S 
ATOM     15  C   UNL     1      -3.051   9.722  16.931  0.00  0.00    +0.000 A 
ATOM     16  N   UNL     1      -1.778   9.974  17.149  0.00  0.00    +0.000 NA
ENDBRANCH  10  12
ENDBRANCH   7  10
ENDBRANCH   4   7
BRANCH   6  17
ATOM     17  C   UNL     1       2.144   6.073  20.375  0.00  0.00    +0.000 C 
ATOM     18  N   UNL     1       2.153   5.095  20.992  0.00  0.00    +0.000 NA
ENDBRANCH   6  17
BRANCH   1  19
ATOM     19  O   UNL     1       3.114   6.164  17.701  0.00  0.00    +0.000 OA
BRANCH  19  25
ATOM     20  C   UNL     1       5.069   4.762  18.163  0.00  0.00    +0.000 A 
ATOM     21  C   UNL     1       6.487   4.697  18.154  0.00  0.00    +0.000 A 
ATOM     22  C   UNL     1       7.293   5.726  17.660  0.00  0.00    +0.000 A 
ATOM     23  C   UNL     1       6.704   6.843  17.100  0.00  0.00    +0.000 A 
ATOM     24  C   UNL     1       5.317   6.924  17.049  0.00  0.00    +0.000 A 
ATOM     25  C   UNL     1       4.488   5.940  17.646  0.00  0.00    +0.000 A 
BRANCH  20  31
ATOM     26  C   UNL     1       2.534   3.078  17.001  0.00  0.00    +0.000 C 
ATOM     27  N   UNL     1       3.286   2.871  18.211  0.00  0.00    +0.000 N 
ATOM     28  N   UNL     1       2.838   1.894  19.034  0.00  0.00    +0.000 NA
ATOM     29  C   UNL     1       3.673   1.923  20.064  0.00  0.00    +0.000 A 
ATOM     30  C   UNL     1       4.660   2.901  19.902  0.00  0.00    +0.000 A 
ATOM     31  C   UNL     1       4.382   3.557  18.700  0.00  0.00    +0.000 A 
ENDBRANCH  20  31
ENDBRANCH  19  25
ENDBRANCH   1  19
TORSDOF 7
ENDMDL
MODEL 8
REMARK VINA RESULT:      -7.8      2.013      2.829
REMARK  Name = 
REMARK  8 active torsions:
REMARK  status: ('A' for Active; 'I' for Inactive)
REMARK    1  A    between atoms: C_1  and  N_2
REMARK    2  A    between atoms: C_6  and  C_7
REMARK    3  A    between atoms: C_12  and  O_13
REMARK    4  A    between atoms: O_13  and  C_14
REMARK    5  A    between atoms: C_17  and  S_18
REMARK    6  A    between atoms: S_18  and  N_21
REMARK    7  A    between atoms: N_21  and  C_22
REMARK    8  A    between atoms: C_28  and  C_29
REMARK                            x       y       z     vdW  Elec       q    Type
REMARK                         _______ _______ _______ _____ _____    ______ ____
ROOT
ATOM      1  C   UNL     1       3.311   6.668  18.906  0.00  0.00    +0.000 A 
ATOM      2  C   UNL     1       2.331   6.826  19.900  0.00  0.00    +0.000 A 
ATOM      3  C   UNL     1       1.540   7.972  19.931  0.00  0.00    +0.000 A 
ATOM      4  C   UNL     1       1.632   8.906  18.898  0.00  0.00    +0.000 A 
ATOM      5  C   UNL     1       2.473   8.665  17.802  0.00  0.00    +0.000 A 
ATOM      6  C   UNL     1       3.314   7.535  17.801  0.00  0.00    +0.000 A 
ENDROOT
BRANCH   4   7
ATOM      7  S   UNL     1       0.820  10.488  19.111  0.00  0.00    +0.000 S 
ATOM      8  O   UNL     1      -0.512  10.362  18.563  0.00  0.00    +0.000 OA
ATOM      9  O   UNL     1       1.031  10.886  20.491  0.00  0.00    +0.000 OA
BRANCH   7  10
ATOM     10  N   UNL     1       1.684  11.590  18.166  0.00  0.00    +0.000 N 
ATOM     11  H   UNL     1       1.407  11.435  17.196  0.00  0.00    +0.000 HD
BRANCH  10  12
ATOM     12  C   UNL     1       1.664  12.927  18.532  0.00  0.00    +0.000 A 
ATOM     13  C   UNL     1       0.551  13.737  18.636  0.00  0.00    +0.000 A 
ATOM     14  S   UNL     1       1.035  15.330  19.049  0.00  0.00    +0.000 S 
ATOM     15  C   UNL     1       2.665  14.801  19.075  0.00  0.00    +0.000 A 
ATOM     16  N   UNL     1       2.864  13.525  18.823  0.00  0.00    +0.000 NA
ENDBRANCH  10  12
ENDBRANCH   7  10
ENDBRANCH   4   7
BRANCH   6  17
ATOM     17  C   UNL     1       4.174   7.295  16.672  0.00  0.00    +0.000 C 
ATOM     18  N   UNL     1       4.884   7.143  15.773  0.00  0.00    +0.000 NA
ENDBRANCH   6  17
BRANCH   1  19
ATOM     19  O   UNL     1       4.314   5.704  19.029  0.00  0.00    +0.000 OA
BRANCH  19  25
ATOM     20  C   UNL     1       4.485   3.565  17.848  0.00  0.00    +0.000 A 
ATOM     21  C   UNL     1       3.952   2.255  17.723  0.00  0.00    +0.000 A 
ATOM     22  C   UNL     1       2.955   1.756  18.564  0.00  0.00    +0.000 A 
ATOM     23  C   UNL     1       2.489   2.535  19.605  0.00  0.00    +0.000 A 
ATOM     24  C   UNL     1       3.018   3.808  19.788  0.00  0.00    +0.000 A 
ATOM     25  C   UNL     1       3.949   4.369  18.877  0.00  0.00    +0.000 A 
BRANCH  20  31
ATOM     26  C   UNL     1       7.422   4.889  18.334  0.00  0.00    +0.000 C 
ATOM     27  N   UNL     1       6.793   4.498  17.099  0.00  0.00    +0.000 N 
ATOM     28  N   UNL     1       7.471   4.791  15.965  0.00  0.00    +0.000 NA
ATOM     29  C   UNL     1       6.682   4.358  14.990  0.00  0.00    +0.000 A 
ATOM     30  C   UNL     1       5.512   3.778  15.491  0.00  0.00    +0.000 A 
ATOM     31  C   UNL     1       5.562   3.907  16.881  0.00  0.00    +0.000 A 
ENDBRANCH  20  31
ENDBRANCH  19  25
ENDBRANCH   1  19
TORSDOF 7
ENDMDL
MODEL 9
REMARK VINA RESULT:      -7.8      2.181      2.735
REMARK  Name = 
REMARK  8 active torsions:
REMARK  status: ('A' for Active; 'I' for Inactive)
REMARK    1  A    between atoms: C_1  and  N_2
REMARK    2  A    between atoms: C_6  and  C_7
REMARK    3  A    between atoms: C_12  and  O_13
REMARK    4  A    between atoms: O_13  and  C_14
REMARK    5  A    between atoms: C_17  and  S_18
REMARK    6  A    between atoms: S_18  and  N_21
REMARK    7  A    between atoms: N_21  and  C_22
REMARK    8  A    between atoms: C_28  and  C_29
REMARK                            x       y       z     vdW  Elec       q    Type
REMARK                         _______ _______ _______ _____ _____    ______ ____
ROOT
ATOM      1  C   UNL     1       3.360   6.574  18.929  0.00  0.00    +0.000 A 
ATOM      2  C   UNL     1       2.393   6.673  19.943  0.00  0.00    +0.000 A 
ATOM      3  C   UNL     1       1.586   7.804  20.036  0.00  0.00    +0.000 A 
ATOM      4  C   UNL     1       1.651   8.786  19.046  0.00  0.00    +0.000 A 
ATOM      5  C   UNL     1       2.480   8.607  17.929  0.00  0.00    +0.000 A 
ATOM      6  C   UNL     1       3.336   7.491  17.866  0.00  0.00    +0.000 A 
ENDROOT
BRANCH   4   7
ATOM      7  S   UNL     1       0.820  10.345  19.342  0.00  0.00    +0.000 S 
ATOM      8  O   UNL     1       1.520  11.354  18.580  0.00  0.00    +0.000 OA
ATOM      9  O   UNL     1      -0.599  10.106  19.150  0.00  0.00    +0.000 OA
BRANCH   7  10
ATOM     10  N   UNL     1       1.023  10.680  20.985  0.00  0.00    +0.000 N 
ATOM     11  H   UNL     1       1.938  11.118  21.091  0.00  0.00    +0.000 HD
BRANCH  10  12
ATOM     12  C   UNL     1       0.012  11.360  21.646  0.00  0.00    +0.000 A 
ATOM     13  C   UNL     1      -0.286  12.703  21.538  0.00  0.00    +0.000 A 
ATOM     14  S   UNL     1      -1.572  13.096  22.604  0.00  0.00    +0.000 S 
ATOM     15  C   UNL     1      -1.633  11.455  23.094  0.00  0.00    +0.000 A 
ATOM     16  N   UNL     1      -0.784  10.642  22.503  0.00  0.00    +0.000 NA
ENDBRANCH  10  12
ENDBRANCH   7  10
ENDBRANCH   4   7
BRANCH   6  17
ATOM     17  C   UNL     1       4.183   7.314  16.715  0.00  0.00    +0.000 C 
ATOM     18  N   UNL     1       4.847   7.212  15.774  0.00  0.00    +0.000 NA
ENDBRANCH   6  17
BRANCH   1  19
ATOM     19  O   UNL     1       4.378   5.621  18.995  0.00  0.00    +0.000 OA
BRANCH  19  25
ATOM     20  C   UNL     1       4.530   3.515  17.752  0.00  0.00    +0.000 A 
ATOM     21  C   UNL     1       4.009   2.202  17.614  0.00  0.00    +0.000 A 
ATOM     22  C   UNL     1       3.051   1.668  18.478  0.00  0.00    +0.000 A 
ATOM     23  C   UNL     1       2.616   2.414  19.556  0.00  0.00    +0.000 A 
ATOM     24  C   UNL     1       3.135   3.688  19.752  0.00  0.00    +0.000 A 
ATOM     25  C   UNL     1       4.024   4.285  18.822  0.00  0.00    +0.000 A 
BRANCH  20  31
ATOM     26  C   UNL     1       7.504   4.779  18.167  0.00  0.00    +0.000 C 
ATOM     27  N   UNL     1       6.813   4.461  16.945  0.00  0.00    +0.000 N 
ATOM     28  N   UNL     1       7.440   4.806  15.797  0.00  0.00    +0.000 NA
ATOM     29  C   UNL     1       6.601   4.433  14.839  0.00  0.00    +0.000 A 
ATOM     30  C   UNL     1       5.448   3.841  15.364  0.00  0.00    +0.000 A 
ATOM     31  C   UNL     1       5.565   3.896  16.754  0.00  0.00    +0.000 A 
ENDBRANCH  20  31
ENDBRANCH  19  25
ENDBRANCH   1  19
TORSDOF 7
ENDMDL
