MODEL 1
REMARK VINA RESULT:      -8.8      0.000      0.000
REMARK  Name = 
REMARK  6 active torsions:
REMARK  status: ('A' for Active; 'I' for Inactive)
REMARK    1  A    between atoms: C_1  and  C_2
REMARK    2  A    between atoms: C_2  and  C_3
REMARK    3  A    between atoms: C_2  and  C_4
REMARK    4  A    between atoms: C_2  and  C_5
REMARK    5  A    between atoms: N_11  and  C_12
REMARK    6  A    between atoms: C_15  and  C_16
REMARK                            x       y       z     vdW  Elec       q    Type
REMARK                         _______ _______ _______ _____ _____    ______ ____
ROOT
ATOM      1  C   UNL     1       0.588   9.435  20.676  0.00  0.00    +0.000 A 
ATOM      2  C   UNL     1       1.057   8.223  21.171  0.00  0.00    +0.000 A 
ATOM      3  C   UNL     1       1.851   7.398  20.380  0.00  0.00    +0.000 A 
ATOM      4  C   UNL     1       2.196   7.763  19.074  0.00  0.00    +0.000 A 
ATOM      5  C   UNL     1       1.709   8.975  18.569  0.00  0.00    +0.000 A 
ATOM      6  C   UNL     1       0.900   9.801  19.361  0.00  0.00    +0.000 A 
ENDROOT
BRANCH   1  13
ATOM      7  C   UNL     1      -3.930  13.221  22.192  0.00  0.00    +0.000 A 
ATOM      8  C   UNL     1      -3.199  12.712  23.242  0.00  0.00    +0.000 A 
ATOM      9  C   UNL     1      -2.205  11.920  22.631  0.00  0.00    +0.000 A 
ATOM     10  N   UNL     1      -1.267  11.185  23.316  0.00  0.00    +0.000 N 
ATOM     11  C   UNL     1      -0.322  10.344  22.804  0.00  0.00    +0.000 C 
ATOM     12  O   UNL     1       0.355   9.706  23.610  0.00  0.00    +0.000 OA
ATOM     13  N   UNL     1      -0.210  10.298  21.440  0.00  0.00    +0.000 N 
ATOM     14  N   UNL     1      -2.305  11.975  21.299  0.00  0.00    +0.000 NA
ATOM     15  O   UNL     1      -3.387  12.776  21.027  0.00  0.00    +0.000 OA
ATOM     16  H   UNL     1      -1.300  11.191  24.324  0.00  0.00    +0.000 HD
ATOM     17  H   UNL     1      -0.728  11.013  20.936  0.00  0.00    +0.000 HD
BRANCH   7  19
ATOM     18  C   UNL     1      -6.326  13.280  21.567  0.00  0.00    +0.000 C 
ATOM     19  C   UNL     1      -5.139  14.104  22.096  0.00  0.00    +0.000 C 
ATOM     20  C   UNL     1      -4.841  15.262  21.128  0.00  0.00    +0.000 C 
ATOM     21  C   UNL     1      -5.516  14.690  23.469  0.00  0.00    +0.000 C 
ENDBRANCH   7  19
ENDBRANCH   1  13
BRANCH   4  22
ATOM     22  C   UNL     1       3.038   6.905  18.262  0.00  0.00    +0.000 A 
ATOM     23  C   UNL     1       3.960   7.338  17.330  0.00  0.00    +0.000 A 
ATOM     24  N   UNL     1       4.520   6.208  16.803  0.00  0.00    +0.000 N 
ATOM     25  C   UNL     1       5.505   6.104  15.826  0.00  0.00    +0.000 A 
ATOM     26  C   UNL     1       5.919   4.886  15.442  0.00  0.00    +0.000 A 
ATOM     27  C   UNL     1       5.317   3.717  16.066  0.00  0.00    +0.000 A 
ATOM     28  C   UNL     1       4.363   3.831  17.013  0.00  0.00    +0.000 A 
ATOM     29 CL   UNL     1       3.665   2.433  17.737  0.00  0.00    +0.000 Cl
ATOM     30  C   UNL     1       3.917   5.123  17.428  0.00  0.00    +0.000 A 
ATOM     31  N   UNL     1       3.022   5.527  18.313  0.00  0.00    +0.000 NA
ENDBRANCH   4  22
TORSDOF 3
ENDMDL
MODEL 2
REMARK VINA RESULT:      -8.7      0.231      1.140
REMARK  Name = 
REMARK  6 active torsions:
REMARK  status: ('A' for Active; 'I' for Inactive)
REMARK    1  A    between atoms: C_1  and  C_2
REMARK    2  A    between atoms: C_2  and  C_3
REMARK    3  A    between atoms: C_2  and  C_4
REMARK    4  A    between atoms: C_2  and  C_5
REMARK    5  A    between atoms: N_11  and  C_12
REMARK    6  A    between atoms: C_15  and  C_16
REMARK                            x       y       z     vdW  Elec       q    Type
REMARK                         _______ _______ _______ _____ _____    ______ ____
ROOT
ATOM      1  C   UNL     1       0.546   9.523  20.622  0.00  0.00    +0.000 A 
ATOM      2  C   UNL     1       0.917   9.876  19.329  0.00  0.00    +0.000 A 
ATOM      3  C   UNL     1       1.718   9.029  18.570  0.00  0.00    +0.000 A 
ATOM      4  C   UNL     1       2.170   7.808  19.084  0.00  0.00    +0.000 A 
ATOM      5  C   UNL     1       1.811   7.462  20.392  0.00  0.00    +0.000 A 
ATOM      6  C   UNL     1       1.013   8.320  21.162  0.00  0.00    +0.000 A 
ENDROOT
BRANCH   1  13
ATOM      7  C   UNL     1      -4.049  13.144  22.302  0.00  0.00    +0.000 A 
ATOM      8  C   UNL     1      -3.289  12.629  23.329  0.00  0.00    +0.000 A 
ATOM      9  C   UNL     1      -2.283  11.880  22.682  0.00  0.00    +0.000 A 
ATOM     10  N   UNL     1      -1.316  11.153  23.334  0.00  0.00    +0.000 N 
ATOM     11  C   UNL     1      -0.357  10.352  22.786  0.00  0.00    +0.000 C 
ATOM     12  O   UNL     1       0.350   9.712  23.565  0.00  0.00    +0.000 OA
ATOM     13  N   UNL     1      -0.264  10.345  21.420  0.00  0.00    +0.000 N 
ATOM     14  N   UNL     1      -2.405  11.967  21.354  0.00  0.00    +0.000 NA
ATOM     15  O   UNL     1      -3.512  12.745  21.119  0.00  0.00    +0.000 OA
ATOM     16  H   UNL     1      -1.334  11.132  24.342  0.00  0.00    +0.000 HD
ATOM     17  H   UNL     1      -0.808  11.058  20.942  0.00  0.00    +0.000 HD
BRANCH   7  19
ATOM     18  C   UNL     1      -5.288  14.793  20.931  0.00  0.00    +0.000 C 
ATOM     19  C   UNL     1      -5.283  13.997  22.247  0.00  0.00    +0.000 C 
ATOM     20  C   UNL     1      -5.278  14.968  23.440  0.00  0.00    +0.000 C 
ATOM     21  C   UNL     1      -6.560  13.140  22.312  0.00  0.00    +0.000 C 
ENDBRANCH   7  19
ENDBRANCH   1  13
BRANCH   4  22
ATOM     22  C   UNL     1       2.992   6.923  18.280  0.00  0.00    +0.000 A 
ATOM     23  C   UNL     1       3.919   7.325  17.341  0.00  0.00    +0.000 A 
ATOM     24  N   UNL     1       4.455   6.178  16.826  0.00  0.00    +0.000 N 
ATOM     25  C   UNL     1       5.435   6.041  15.848  0.00  0.00    +0.000 A 
ATOM     26  C   UNL     1       5.823   4.811  15.479  0.00  0.00    +0.000 A 
ATOM     27  C   UNL     1       5.201   3.662  16.120  0.00  0.00    +0.000 A 
ATOM     28  C   UNL     1       4.252   3.808  17.068  0.00  0.00    +0.000 A 
ATOM     29 CL   UNL     1       3.528   2.433  17.812  0.00  0.00    +0.000 Cl
ATOM     30  C   UNL     1       3.833   5.113  17.468  0.00  0.00    +0.000 A 
ATOM     31  N   UNL     1       2.949   5.547  18.350  0.00  0.00    +0.000 NA
ENDBRANCH   4  22
TORSDOF 3
ENDMDL
MODEL 3
REMARK VINA RESULT:      -8.6      4.085      4.956
REMARK  Name = 
REMARK  6 active torsions:
REMARK  status: ('A' for Active; 'I' for Inactive)
REMARK    1  A    between atoms: C_1  and  C_2
REMARK    2  A    between atoms: C_2  and  C_3
REMARK    3  A    between atoms: C_2  and  C_4
REMARK    4  A    between atoms: C_2  and  C_5
REMARK    5  A    between atoms: N_11  and  C_12
REMARK    6  A    between atoms: C_15  and  C_16
REMARK                            x       y       z     vdW  Elec       q    Type
REMARK                         _______ _______ _______ _____ _____    ______ ____
ROOT
ATOM      1  C   UNL     1       0.892  10.462  19.400  0.00  0.00    +0.000 A 
ATOM      2  C   UNL     1       1.498   9.856  18.306  0.00  0.00    +0.000 A 
ATOM      3  C   UNL     1       2.006   8.564  18.408  0.00  0.00    +0.000 A 
ATOM      4  C   UNL     1       1.922   7.846  19.606  0.00  0.00    +0.000 A 
ATOM      5  C   UNL     1       1.327   8.463  20.713  0.00  0.00    +0.000 A 
ATOM      6  C   UNL     1       0.825   9.769  20.615  0.00  0.00    +0.000 A 
ENDROOT
BRANCH   1  13
ATOM      7  C   UNL     1       0.508  16.453  18.398  0.00  0.00    +0.000 A 
ATOM      8  C   UNL     1      -0.690  15.804  18.605  0.00  0.00    +0.000 A 
ATOM      9  C   UNL     1      -0.327  14.465  18.857  0.00  0.00    +0.000 A 
ATOM     10  N   UNL     1      -1.223  13.446  19.080  0.00  0.00    +0.000 N 
ATOM     11  C   UNL     1      -0.957  12.120  19.261  0.00  0.00    +0.000 C 
ATOM     12  O   UNL     1      -1.924  11.362  19.348  0.00  0.00    +0.000 OA
ATOM     13  N   UNL     1       0.362  11.759  19.341  0.00  0.00    +0.000 N 
ATOM     14  N   UNL     1       1.002  14.320  18.840  0.00  0.00    +0.000 NA
ATOM     15  O   UNL     1       1.520  15.557  18.543  0.00  0.00    +0.000 OA
ATOM     16  H   UNL     1      -2.207  13.660  19.041  0.00  0.00    +0.000 HD
ATOM     17  H   UNL     1       1.020  12.528  19.421  0.00  0.00    +0.000 HD
BRANCH   7  19
ATOM     18  C   UNL     1       2.028  17.850  17.031  0.00  0.00    +0.000 C 
ATOM     19  C   UNL     1       0.880  17.865  18.055  0.00  0.00    +0.000 C 
ATOM     20  C   UNL     1       1.336  18.591  19.333  0.00  0.00    +0.000 C 
ATOM     21  C   UNL     1      -0.312  18.629  17.451  0.00  0.00    +0.000 C 
ENDBRANCH   7  19
ENDBRANCH   1  13
BRANCH   4  22
ATOM     22  C   UNL     1       2.440   6.494  19.699  0.00  0.00    +0.000 A 
ATOM     23  C   UNL     1       3.574   6.026  19.067  0.00  0.00    +0.000 A 
ATOM     24  N   UNL     1       3.688   4.712  19.424  0.00  0.00    +0.000 N 
ATOM     25  C   UNL     1       4.665   3.794  19.053  0.00  0.00    +0.000 A 
ATOM     26  C   UNL     1       4.593   2.537  19.518  0.00  0.00    +0.000 A 
ATOM     27  C   UNL     1       3.488   2.182  20.397  0.00  0.00    +0.000 A 
ATOM     28  C   UNL     1       2.547   3.081  20.751  0.00  0.00    +0.000 A 
ATOM     29 CL   UNL     1       1.248   2.639  21.792  0.00  0.00    +0.000 Cl
ATOM     30  C   UNL     1       2.617   4.421  20.262  0.00  0.00    +0.000 A 
ATOM     31  N   UNL     1       1.856   5.488  20.438  0.00  0.00    +0.000 NA
ENDBRANCH   4  22
TORSDOF 3
ENDMDL
MODEL 4
REMARK VINA RESULT:      -8.4      1.786      2.547
REMARK  Name = 
REMARK  6 active torsions:
REMARK  status: ('A' for Active; 'I' for Inactive)
REMARK    1  A    between atoms: C_1  and  C_2
REMARK    2  A    between atoms: C_2  and  C_3
REMARK    3  A    between atoms: C_2  and  C_4
REMARK    4  A    between atoms: C_2  and  C_5
REMARK    5  A    between atoms: N_11  and  C_12
REMARK    6  A    between atoms: C_15  and  C_16
REMARK                            x       y       z     vdW  Elec       q    Type
REMARK                         _______ _______ _______ _____ _____    ______ ____
ROOT
ATOM      1  C   UNL     1      -0.185  10.670  20.684  0.00  0.00    +0.000 A 
ATOM      2  C   UNL     1       0.273  10.626  19.372  0.00  0.00    +0.000 A 
ATOM      3  C   UNL     1       1.068   9.569  18.939  0.00  0.00    +0.000 A 
ATOM      4  C   UNL     1       1.428   8.531  19.806  0.00  0.00    +0.000 A 
ATOM      5  C   UNL     1       0.982   8.586  21.132  0.00  0.00    +0.000 A 
ATOM      6  C   UNL     1       0.190   9.655  21.573  0.00  0.00    +0.000 A 
ENDROOT
BRANCH   1  13
ATOM      7  C   UNL     1      -5.077  13.640  22.757  0.00  0.00    +0.000 A 
ATOM      8  C   UNL     1      -3.872  14.288  22.919  0.00  0.00    +0.000 A 
ATOM      9  C   UNL     1      -2.925  13.428  22.324  0.00  0.00    +0.000 A 
ATOM     10  N   UNL     1      -1.572  13.665  22.293  0.00  0.00    +0.000 N 
ATOM     11  C   UNL     1      -0.589  12.855  21.802  0.00  0.00    +0.000 C 
ATOM     12  O   UNL     1       0.574  13.224  21.966  0.00  0.00    +0.000 OA
ATOM     13  N   UNL     1      -0.992  11.713  21.162  0.00  0.00    +0.000 N 
ATOM     14  N   UNL     1      -3.522  12.350  21.804  0.00  0.00    +0.000 NA
ATOM     15  O   UNL     1      -4.860  12.478  22.085  0.00  0.00    +0.000 OA
ATOM     16  H   UNL     1      -1.223  14.497  22.743  0.00  0.00    +0.000 HD
ATOM     17  H   UNL     1      -1.987  11.651  20.967  0.00  0.00    +0.000 HD
BRANCH   7  19
ATOM     18  C   UNL     1      -7.382  13.968  21.913  0.00  0.00    +0.000 C 
ATOM     19  C   UNL     1      -6.487  13.949  23.164  0.00  0.00    +0.000 C 
ATOM     20  C   UNL     1      -6.525  15.326  23.849  0.00  0.00    +0.000 C 
ATOM     21  C   UNL     1      -7.031  12.894  24.145  0.00  0.00    +0.000 C 
ENDBRANCH   7  19
ENDBRANCH   1  13
BRANCH   4  22
ATOM     22  C   UNL     1       2.244   7.426  19.342  0.00  0.00    +0.000 A 
ATOM     23  C   UNL     1       2.367   6.203  19.969  0.00  0.00    +0.000 A 
ATOM     24  N   UNL     1       3.227   5.471  19.200  0.00  0.00    +0.000 N 
ATOM     25  C   UNL     1       3.676   4.169  19.401  0.00  0.00    +0.000 A 
ATOM     26  C   UNL     1       4.531   3.628  18.518  0.00  0.00    +0.000 A 
ATOM     27  C   UNL     1       4.956   4.430  17.380  0.00  0.00    +0.000 A 
ATOM     28  C   UNL     1       4.513   5.691  17.196  0.00  0.00    +0.000 A 
ATOM     29 CL   UNL     1       5.030   6.620  15.841  0.00  0.00    +0.000 Cl
ATOM     30  C   UNL     1       3.603   6.273  18.129  0.00  0.00    +0.000 A 
ATOM     31  N   UNL     1       3.016   7.456  18.199  0.00  0.00    +0.000 NA
ENDBRANCH   4  22
TORSDOF 3
ENDMDL
MODEL 5
REMARK VINA RESULT:      -8.4      1.773      2.459
REMARK  Name = 
REMARK  6 active torsions:
REMARK  status: ('A' for Active; 'I' for Inactive)
REMARK    1  A    between atoms: C_1  and  C_2
REMARK    2  A    between atoms: C_2  and  C_3
REMARK    3  A    between atoms: C_2  and  C_4
REMARK    4  A    between atoms: C_2  and  C_5
REMARK    5  A    between atoms: N_11  and  C_12
REMARK    6  A    between atoms: C_15  and  C_16
REMARK                            x       y       z     vdW  Elec       q    Type
REMARK                         _______ _______ _______ _____ _____    ______ ____
ROOT
ATOM      1  C   UNL     1      -0.117  10.575  20.723  0.00  0.00    +0.000 A 
ATOM      2  C   UNL     1       0.253   9.533  21.565  0.00  0.00    +0.000 A 
ATOM      3  C   UNL     1       1.040   8.488  21.090  0.00  0.00    +0.000 A 
ATOM      4  C   UNL     1       1.476   8.458  19.760  0.00  0.00    +0.000 A 
ATOM      5  C   UNL     1       1.088   9.499  18.908  0.00  0.00    +0.000 A 
ATOM      6  C   UNL     1       0.286  10.546  19.383  0.00  0.00    +0.000 A 
ENDROOT
BRANCH   1  13
ATOM      7  C   UNL     1      -4.936  13.701  22.736  0.00  0.00    +0.000 A 
ATOM      8  C   UNL     1      -3.722  14.343  22.840  0.00  0.00    +0.000 A 
ATOM      9  C   UNL     1      -2.797  13.443  22.271  0.00  0.00    +0.000 A 
ATOM     10  N   UNL     1      -1.441  13.664  22.202  0.00  0.00    +0.000 N 
ATOM     11  C   UNL     1      -0.477  12.819  21.733  0.00  0.00    +0.000 C 
ATOM     12  O   UNL     1       0.693  13.184  21.855  0.00  0.00    +0.000 OA
ATOM     13  N   UNL     1      -0.904  11.650  21.162  0.00  0.00    +0.000 N 
ATOM     14  N   UNL     1      -3.414  12.347  21.821  0.00  0.00    +0.000 NA
ATOM     15  O   UNL     1      -4.745  12.503  22.121  0.00  0.00    +0.000 OA
ATOM     16  H   UNL     1      -1.076  14.515  22.601  0.00  0.00    +0.000 HD
ATOM     17  H   UNL     1      -1.903  11.588  20.991  0.00  0.00    +0.000 HD
BRANCH   7  19
ATOM     18  C   UNL     1      -6.326  15.402  23.880  0.00  0.00    +0.000 C 
ATOM     19  C   UNL     1      -6.335  14.045  23.155  0.00  0.00    +0.000 C 
ATOM     20  C   UNL     1      -6.860  12.955  24.104  0.00  0.00    +0.000 C 
ATOM     21  C   UNL     1      -7.277  14.139  21.940  0.00  0.00    +0.000 C 
ENDBRANCH   7  19
ENDBRANCH   1  13
BRANCH   4  22
ATOM     22  C   UNL     1       2.309   7.374  19.277  0.00  0.00    +0.000 A 
ATOM     23  C   UNL     1       2.471   6.151  19.896  0.00  0.00    +0.000 A 
ATOM     24  N   UNL     1       3.333   5.442  19.108  0.00  0.00    +0.000 N 
ATOM     25  C   UNL     1       3.816   4.150  19.294  0.00  0.00    +0.000 A 
ATOM     26  C   UNL     1       4.667   3.633  18.394  0.00  0.00    +0.000 A 
ATOM     27  C   UNL     1       5.054   4.449  17.254  0.00  0.00    +0.000 A 
ATOM     28  C   UNL     1       4.579   5.701  17.083  0.00  0.00    +0.000 A 
ATOM     29 CL   UNL     1       5.052   6.648  15.725  0.00  0.00    +0.000 Cl
ATOM     30  C   UNL     1       3.672   6.258  18.035  0.00  0.00    +0.000 A 
ATOM     31  N   UNL     1       3.060   7.427  18.122  0.00  0.00    +0.000 NA
ENDBRANCH   4  22
TORSDOF 3
ENDMDL
MODEL 6
REMARK VINA RESULT:      -8.3      3.815      4.614
REMARK  Name = 
REMARK  6 active torsions:
REMARK  status: ('A' for Active; 'I' for Inactive)
REMARK    1  A    between atoms: C_1  and  C_2
REMARK    2  A    between atoms: C_2  and  C_3
REMARK    3  A    between atoms: C_2  and  C_4
REMARK    4  A    between atoms: C_2  and  C_5
REMARK    5  A    between atoms: N_11  and  C_12
REMARK    6  A    between atoms: C_15  and  C_16
REMARK                            x       y       z     vdW  Elec       q    Type
REMARK                         _______ _______ _______ _____ _____    ______ ____
ROOT
ATOM      1  C   UNL     1       1.048  10.356  19.415  0.00  0.00    +0.000 A 
ATOM      2  C   UNL     1       1.530   9.882  18.201  0.00  0.00    +0.000 A 
ATOM      3  C   UNL     1       1.985   8.571  18.086  0.00  0.00    +0.000 A 
ATOM      4  C   UNL     1       1.971   7.702  19.183  0.00  0.00    +0.000 A 
ATOM      5  C   UNL     1       1.502   8.186  20.410  0.00  0.00    +0.000 A 
ATOM      6  C   UNL     1       1.053   9.509  20.530  0.00  0.00    +0.000 A 
ENDROOT
BRANCH   1  13
ATOM      7  C   UNL     1       0.441  16.362  18.636  0.00  0.00    +0.000 A 
ATOM      8  C   UNL     1      -0.580  15.743  19.321  0.00  0.00    +0.000 A 
ATOM      9  C   UNL     1      -0.180  14.392  19.407  0.00  0.00    +0.000 A 
ATOM     10  N   UNL     1      -0.931  13.396  19.985  0.00  0.00    +0.000 N 
ATOM     11  C   UNL     1      -0.649  12.062  20.046  0.00  0.00    +0.000 C 
ATOM     12  O   UNL     1      -1.513  11.329  20.527  0.00  0.00    +0.000 OA
ATOM     13  N   UNL     1       0.575  11.667  19.574  0.00  0.00    +0.000 N 
ATOM     14  N   UNL     1       1.018  14.214  18.843  0.00  0.00    +0.000 NA
ATOM     15  O   UNL     1       1.399  15.439  18.353  0.00  0.00    +0.000 OA
ATOM     16  H   UNL     1      -1.837  13.635  20.355  0.00  0.00    +0.000 HD
ATOM     17  H   UNL     1       1.227  12.418  19.372  0.00  0.00    +0.000 HD
BRANCH   7  19
ATOM     18  C   UNL     1       1.127  18.631  19.353  0.00  0.00    +0.000 C 
ATOM     19  C   UNL     1       0.676  17.766  18.163  0.00  0.00    +0.000 C 
ATOM     20  C   UNL     1      -0.632  18.328  17.581  0.00  0.00    +0.000 C 
ATOM     21  C   UNL     1       1.764  17.817  17.074  0.00  0.00    +0.000 C 
ENDBRANCH   7  19
ENDBRANCH   1  13
BRANCH   4  22
ATOM     22  C   UNL     1       2.432   6.334  19.051  0.00  0.00    +0.000 A 
ATOM     23  C   UNL     1       3.028   5.794  17.929  0.00  0.00    +0.000 A 
ATOM     24  N   UNL     1       3.296   4.490  18.236  0.00  0.00    +0.000 N 
ATOM     25  C   UNL     1       3.896   3.518  17.442  0.00  0.00    +0.000 A 
ATOM     26  C   UNL     1       4.068   2.282  17.938  0.00  0.00    +0.000 A 
ATOM     27  C   UNL     1       3.617   2.007  19.294  0.00  0.00    +0.000 A 
ATOM     28  C   UNL     1       3.037   2.959  20.055  0.00  0.00    +0.000 A 
ATOM     29 CL   UNL     1       2.511   2.610  21.657  0.00  0.00    +0.000 Cl
ATOM     30  C   UNL     1       2.852   4.276  19.536  0.00  0.00    +0.000 A 
ATOM     31  N   UNL     1       2.330   5.380  20.042  0.00  0.00    +0.000 NA
ENDBRANCH   4  22
TORSDOF 3
ENDMDL
MODEL 7
REMARK VINA RESULT:      -8.3      1.726      2.356
REMARK  Name = 
REMARK  6 active torsions:
REMARK  status: ('A' for Active; 'I' for Inactive)
REMARK    1  A    between atoms: C_1  and  C_2
REMARK    2  A    between atoms: C_2  and  C_3
REMARK    3  A    between atoms: C_2  and  C_4
REMARK    4  A    between atoms: C_2  and  C_5
REMARK    5  A    between atoms: N_11  and  C_12
REMARK    6  A    between atoms: C_15  and  C_16
REMARK                            x       y       z     vdW  Elec       q    Type
REMARK                         _______ _______ _______ _____ _____    ______ ____
ROOT
ATOM      1  C   UNL     1      -0.164  10.522  20.820  0.00  0.00    +0.000 A 
ATOM      2  C   UNL     1       0.472  10.491  19.584  0.00  0.00    +0.000 A 
ATOM      3  C   UNL     1       1.228   9.384  19.208  0.00  0.00    +0.000 A 
ATOM      4  C   UNL     1       1.368   8.282  20.059  0.00  0.00    +0.000 A 
ATOM      5  C   UNL     1       0.743   8.322  21.311  0.00  0.00    +0.000 A 
ATOM      6  C   UNL     1      -0.010   9.441  21.695  0.00  0.00    +0.000 A 
ENDROOT
BRANCH   1  13
ATOM      7  C   UNL     1      -4.946  13.741  22.776  0.00  0.00    +0.000 A 
ATOM      8  C   UNL     1      -3.725  14.373  22.862  0.00  0.00    +0.000 A 
ATOM      9  C   UNL     1      -2.810  13.451  22.311  0.00  0.00    +0.000 A 
ATOM     10  N   UNL     1      -1.453  13.656  22.232  0.00  0.00    +0.000 N 
ATOM     11  C   UNL     1      -0.499  12.792  21.780  0.00  0.00    +0.000 C 
ATOM     12  O   UNL     1       0.675  13.147  21.891  0.00  0.00    +0.000 OA
ATOM     13  N   UNL     1      -0.939  11.614  21.237  0.00  0.00    +0.000 N 
ATOM     14  N   UNL     1      -3.440  12.351  21.887  0.00  0.00    +0.000 NA
ATOM     15  O   UNL     1      -4.768  12.528  22.187  0.00  0.00    +0.000 OA
ATOM     16  H   UNL     1      -1.078  14.512  22.611  0.00  0.00    +0.000 HD
ATOM     17  H   UNL     1      -1.939  11.559  21.069  0.00  0.00    +0.000 HD
BRANCH   7  19
ATOM     18  C   UNL     1      -7.241  14.161  21.945  0.00  0.00    +0.000 C 
ATOM     19  C   UNL     1      -6.340  14.109  23.191  0.00  0.00    +0.000 C 
ATOM     20  C   UNL     1      -6.316  15.488  23.870  0.00  0.00    +0.000 C 
ATOM     21  C   UNL     1      -6.920  13.080  24.178  0.00  0.00    +0.000 C 
ENDBRANCH   7  19
ENDBRANCH   1  13
BRANCH   4  22
ATOM     22  C   UNL     1       2.145   7.126  19.653  0.00  0.00    +0.000 A 
ATOM     23  C   UNL     1       2.961   7.059  18.542  0.00  0.00    +0.000 A 
ATOM     24  N   UNL     1       3.491   5.800  18.540  0.00  0.00    +0.000 N 
ATOM     25  C   UNL     1       4.378   5.233  17.630  0.00  0.00    +0.000 A 
ATOM     26  C   UNL     1       4.779   3.965  17.809  0.00  0.00    +0.000 A 
ATOM     27  C   UNL     1       4.268   3.229  18.955  0.00  0.00    +0.000 A 
ATOM     28  C   UNL     1       3.409   3.789  19.832  0.00  0.00    +0.000 A 
ATOM     29 CL   UNL     1       2.816   2.898  21.182  0.00  0.00    +0.000 Cl
ATOM     30  C   UNL     1       2.977   5.138  19.650  0.00  0.00    +0.000 A 
ATOM     31  N   UNL     1       2.165   5.926  20.332  0.00  0.00    +0.000 NA
ENDBRANCH   4  22
TORSDOF 3
ENDMDL
MODEL 8
REMARK VINA RESULT:      -8.3      1.383      1.510
REMARK  Name = 
REMARK  6 active torsions:
REMARK  status: ('A' for Active; 'I' for Inactive)
REMARK    1  A    between atoms: C_1  and  C_2
REMARK    2  A    between atoms: C_2  and  C_3
REMARK    3  A    between atoms: C_2  and  C_4
REMARK    4  A    between atoms: C_2  and  C_5
REMARK    5  A    between atoms: N_11  and  C_12
REMARK    6  A    between atoms: C_15  and  C_16
REMARK                            x       y       z     vdW  Elec       q    Type
REMARK                         _______ _______ _______ _____ _____    ______ ____
ROOT
ATOM      1  C   UNL     1       0.517  10.445  20.090  0.00  0.00    +0.000 A 
ATOM      2  C   UNL     1       0.853   9.324  20.840  0.00  0.00    +0.000 A 
ATOM      3  C   UNL     1       1.552   8.270  20.258  0.00  0.00    +0.000 A 
ATOM      4  C   UNL     1       1.931   8.310  18.912  0.00  0.00    +0.000 A 
ATOM      5  C   UNL     1       1.577   9.431  18.153  0.00  0.00    +0.000 A 
ATOM      6  C   UNL     1       0.863  10.489  18.735  0.00  0.00    +0.000 A 
ENDROOT
BRANCH   1  13
ATOM      7  C   UNL     1      -4.009  13.706  22.526  0.00  0.00    +0.000 A 
ATOM      8  C   UNL     1      -2.753  14.263  22.622  0.00  0.00    +0.000 A 
ATOM      9  C   UNL     1      -1.910  13.352  21.952  0.00  0.00    +0.000 A 
ATOM     10  N   UNL     1      -0.547  13.493  21.838  0.00  0.00    +0.000 N 
ATOM     11  C   UNL     1       0.342  12.628  21.270  0.00  0.00    +0.000 C 
ATOM     12  O   UNL     1       1.537  12.910  21.366  0.00  0.00    +0.000 OA
ATOM     13  N   UNL     1      -0.181  11.531  20.637  0.00  0.00    +0.000 N 
ATOM     14  N   UNL     1      -2.614  12.331  21.453  0.00  0.00    +0.000 NA
ATOM     15  O   UNL     1      -3.919  12.547  21.821  0.00  0.00    +0.000 OA
ATOM     16  H   UNL     1      -0.112  14.289  22.280  0.00  0.00    +0.000 HD
ATOM     17  H   UNL     1      -1.188  11.544  20.506  0.00  0.00    +0.000 HD
BRANCH   7  19
ATOM     18  C   UNL     1      -5.942  12.962  23.884  0.00  0.00    +0.000 C 
ATOM     19  C   UNL     1      -5.365  14.104  23.029  0.00  0.00    +0.000 C 
ATOM     20  C   UNL     1      -6.289  14.370  21.829  0.00  0.00    +0.000 C 
ATOM     21  C   UNL     1      -5.292  15.378  23.891  0.00  0.00    +0.000 C 
ENDBRANCH   7  19
ENDBRANCH   1  13
BRANCH   4  22
ATOM     22  C   UNL     1       2.673   7.215  18.318  0.00  0.00    +0.000 A 
ATOM     23  C   UNL     1       3.837   7.339  17.586  0.00  0.00    +0.000 A 
ATOM     24  N   UNL     1       4.188   6.071  17.220  0.00  0.00    +0.000 N 
ATOM     25  C   UNL     1       5.286   5.657  16.472  0.00  0.00    +0.000 A 
ATOM     26  C   UNL     1       5.449   4.349  16.218  0.00  0.00    +0.000 A 
ATOM     27  C   UNL     1       4.465   3.411  16.737  0.00  0.00    +0.000 A 
ATOM     28  C   UNL     1       3.404   3.824  17.461  0.00  0.00    +0.000 A 
ATOM     29 CL   UNL     1       2.252   2.695  18.064  0.00  0.00    +0.000 Cl
ATOM     30  C   UNL     1       3.223   5.213  17.737  0.00  0.00    +0.000 A 
ATOM     31  N   UNL     1       2.304   5.889  18.404  0.00  0.00    +0.000 NA
ENDBRANCH   4  22
TORSDOF 3
ENDMDL
MODEL 9
REMARK VINA RESULT:      -8.2      1.386      1.933
REMARK  Name = 
REMARK  6 active torsions:
REMARK  status: ('A' for Active; 'I' for Inactive)
REMARK    1  A    between atoms: C_1  and  C_2
REMARK    2  A    between atoms: C_2  and  C_3
REMARK    3  A    between atoms: C_2  and  C_4
REMARK    4  A    between atoms: C_2  and  C_5
REMARK    5  A    between atoms: N_11  and  C_12
REMARK    6  A    between atoms: C_15  and  C_16
REMARK                            x       y       z     vdW  Elec       q    Type
REMARK                         _______ _______ _______ _____ _____    ______ ____
ROOT
ATOM      1  C   UNL     1       0.335  10.526  20.103  0.00  0.00    +0.000 A 
ATOM      2  C   UNL     1       0.735  10.578  18.772  0.00  0.00    +0.000 A 
ATOM      3  C   UNL     1       1.470   9.535  18.216  0.00  0.00    +0.000 A 
ATOM      4  C   UNL     1       1.824   8.414  18.975  0.00  0.00    +0.000 A 
ATOM      5  C   UNL     1       1.437   8.371  20.320  0.00  0.00    +0.000 A 
ATOM      6  C   UNL     1       0.706   9.426  20.885  0.00  0.00    +0.000 A 
ENDROOT
BRANCH   1  13
ATOM      7  C   UNL     1      -4.347  13.483  22.628  0.00  0.00    +0.000 A 
ATOM      8  C   UNL     1      -3.112  14.068  22.795  0.00  0.00    +0.000 A 
ATOM      9  C   UNL     1      -2.225  13.229  22.088  0.00  0.00    +0.000 A 
ATOM     10  N   UNL     1      -0.864  13.417  22.022  0.00  0.00    +0.000 N 
ATOM     11  C   UNL     1       0.064  12.617  21.421  0.00  0.00    +0.000 C 
ATOM     12  O   UNL     1       1.247  12.926  21.568  0.00  0.00    +0.000 OA
ATOM     13  N   UNL     1      -0.409  11.552  20.702  0.00  0.00    +0.000 N 
ATOM     14  N   UNL     1      -2.885  12.225  21.503  0.00  0.00    +0.000 NA
ATOM     15  O   UNL     1      -4.205  12.378  21.849  0.00  0.00    +0.000 OA
ATOM     16  H   UNL     1      -0.465  14.193  22.527  0.00  0.00    +0.000 HD
ATOM     17  H   UNL     1      -1.413  11.545  20.545  0.00  0.00    +0.000 HD
BRANCH   7  19
ATOM     18  C   UNL     1      -5.713  15.192  23.790  0.00  0.00    +0.000 C 
ATOM     19  C   UNL     1      -5.727  13.808  23.119  0.00  0.00    +0.000 C 
ATOM     20  C   UNL     1      -6.162  12.742  24.140  0.00  0.00    +0.000 C 
ATOM     21  C   UNL     1      -6.744  13.829  21.962  0.00  0.00    +0.000 C 
ENDBRANCH   7  19
ENDBRANCH   1  13
BRANCH   4  22
ATOM     22  C   UNL     1       2.576   7.324  18.384  0.00  0.00    +0.000 A 
ATOM     23  C   UNL     1       3.687   7.463  17.577  0.00  0.00    +0.000 A 
ATOM     24  N   UNL     1       4.071   6.195  17.244  0.00  0.00    +0.000 N 
ATOM     25  C   UNL     1       5.139   5.792  16.449  0.00  0.00    +0.000 A 
ATOM     26  C   UNL     1       5.344   4.482  16.241  0.00  0.00    +0.000 A 
ATOM     27  C   UNL     1       4.434   3.529  16.859  0.00  0.00    +0.000 A 
ATOM     28  C   UNL     1       3.401   3.931  17.629  0.00  0.00    +0.000 A 
ATOM     29 CL   UNL     1       2.337   2.785  18.349  0.00  0.00    +0.000 Cl
ATOM     30  C   UNL     1       3.177   5.323  17.856  0.00  0.00    +0.000 A 
ATOM     31  N   UNL     1       2.270   5.990  18.549  0.00  0.00    +0.000 NA
ENDBRANCH   4  22
TORSDOF 3
ENDMDL
