MODEL 1
REMARK VINA RESULT:      -9.0      0.000      0.000
REMARK  Name = 
REMARK  6 active torsions:
REMARK  status: ('A' for Active; 'I' for Inactive)
REMARK    1  A    between atoms: C_2  and  C_4
REMARK    2  A    between atoms: C_7  and  C_8
REMARK    3  A    between atoms: C_8  and  C_9
REMARK    4  A    between atoms: C_17  and  C_18
REMARK    5  A    between atoms: C_18  and  O_20
REMARK    6  A    between atoms: C_21  and  O_22
REMARK                            x       y       z     vdW  Elec       q    Type
REMARK                         _______ _______ _______ _____ _____    ______ ____
ROOT
ATOM      1  C   UNL     1       3.671   4.697  18.630  0.00  0.00    +0.000 A 
ATOM      2  N   UNL     1       3.658   6.048  18.620  0.00  0.00    +0.000 NA
ATOM      3  C   UNL     1       2.682   6.683  19.362  0.00  0.00    +0.000 A 
ATOM      4  C   UNL     1       2.259   8.019  19.157  0.00  0.00    +0.000 A 
ATOM      5  C   UNL     1       1.327   8.631  20.016  0.00  0.00    +0.000 A 
ATOM      6  C   UNL     1       0.847   7.932  21.127  0.00  0.00    +0.000 A 
ATOM      7  C   UNL     1       1.121   6.582  21.257  0.00  0.00    +0.000 A 
ATOM      8  C   UNL     1       1.956   5.939  20.317  0.00  0.00    +0.000 A 
ATOM      9  C   UNL     1       2.032   4.546  20.148  0.00  0.00    +0.000 A 
ATOM     10  C   UNL     1       2.498   4.076  18.949  0.00  0.00    +0.000 A 
ATOM     11  C   UNL     1       0.627   9.916  19.675  0.00  0.00    +0.000 C 
ATOM     12  C   UNL     1       1.234  10.775  18.582  0.00  0.00    +0.000 C 
ATOM     13  C   UNL     1       2.174  10.107  17.591  0.00  0.00    +0.000 C 
ATOM     14  C   UNL     1       2.599   8.660  17.834  0.00  0.00    +0.000 C 
ENDROOT
BRANCH   9  15
ATOM     15  C   UNL     1       1.701   3.485  21.127  0.00  0.00    +0.000 C 
ATOM     16  O   UNL     1       2.321   3.344  22.169  0.00  0.00    +0.000 OA
BRANCH  15  17
ATOM     17  O   UNL     1       0.571   2.792  20.870  0.00  0.00    +0.000 OA
ATOM     18  H   UNL     1       0.675   1.824  20.852  0.00  0.00    +0.000 HD
ENDBRANCH  15  17
ENDBRANCH   9  15
BRANCH  10  19
ATOM     19  O   UNL     1       1.542   4.280  17.891  0.00  0.00    +0.000 OA
ATOM     20  H   UNL     1       0.663   4.024  18.245  0.00  0.00    +0.000 HD
ENDBRANCH  10  19
BRANCH   1  21
ATOM     21  C   UNL     1       4.809   3.788  18.225  0.00  0.00    +0.000 C 
BRANCH  21  25
ATOM     22  C   UNL     1       6.745   4.735  14.464  0.00  0.00    +0.000 A 
ATOM     23  C   UNL     1       5.388   4.392  14.467  0.00  0.00    +0.000 A 
ATOM     24  C   UNL     1       4.746   4.090  15.680  0.00  0.00    +0.000 A 
ATOM     25  C   UNL     1       5.454   4.127  16.897  0.00  0.00    +0.000 A 
ATOM     26  C   UNL     1       6.802   4.496  16.880  0.00  0.00    +0.000 A 
ATOM     27  C   UNL     1       7.442   4.792  15.676  0.00  0.00    +0.000 A 
BRANCH  22  29
ATOM     28  N   UNL     1       8.565   5.860  13.278  0.00  0.00    +0.000 N 
ATOM     29  C   UNL     1       7.512   4.993  13.217  0.00  0.00    +0.000 C 
ATOM     30  O   UNL     1       7.231   4.428  12.167  0.00  0.00    +0.000 OA
ATOM     31  H   UNL     1       9.121   5.934  12.436  0.00  0.00    +0.000 HD
ATOM     32  H   UNL     1       8.995   6.133  14.150  0.00  0.00    +0.000 HD
ENDBRANCH  22  29
ENDBRANCH  21  25
ENDBRANCH   1  21
TORSDOF 6
ENDMDL
MODEL 2
REMARK VINA RESULT:      -8.6      0.676      1.131
REMARK  Name = 
REMARK  6 active torsions:
REMARK  status: ('A' for Active; 'I' for Inactive)
REMARK    1  A    between atoms: C_2  and  C_4
REMARK    2  A    between atoms: C_7  and  C_8
REMARK    3  A    between atoms: C_8  and  C_9
REMARK    4  A    between atoms: C_17  and  C_18
REMARK    5  A    between atoms: C_18  and  O_20
REMARK    6  A    between atoms: C_21  and  O_22
REMARK                            x       y       z     vdW  Elec       q    Type
REMARK                         _______ _______ _______ _____ _____    ______ ____
ROOT
ATOM      1  C   UNL     1       3.845   4.841  18.919  0.00  0.00    +0.000 A 
ATOM      2  N   UNL     1       3.760   6.189  18.891  0.00  0.00    +0.000 NA
ATOM      3  C   UNL     1       2.680   6.774  19.522  0.00  0.00    +0.000 A 
ATOM      4  C   UNL     1       2.208   8.084  19.258  0.00  0.00    +0.000 A 
ATOM      5  C   UNL     1       1.160   8.649  20.009  0.00  0.00    +0.000 A 
ATOM      6  C   UNL     1       0.608   7.931  21.075  0.00  0.00    +0.000 A 
ATOM      7  C   UNL     1       0.940   6.600  21.248  0.00  0.00    +0.000 A 
ATOM      8  C   UNL     1       1.900   5.998  20.407  0.00  0.00    +0.000 A 
ATOM      9  C   UNL     1       2.070   4.610  20.263  0.00  0.00    +0.000 A 
ATOM     10  C   UNL     1       2.682   4.159  19.124  0.00  0.00    +0.000 A 
ATOM     11  C   UNL     1       0.430   9.890  19.583  0.00  0.00    +0.000 C 
ATOM     12  C   UNL     1       1.099  10.774  18.548  0.00  0.00    +0.000 C 
ATOM     13  C   UNL     1       2.171  10.153  17.666  0.00  0.00    +0.000 C 
ATOM     14  C   UNL     1       2.647   8.733  17.969  0.00  0.00    +0.000 C 
ENDROOT
BRANCH   9  15
ATOM     15  C   UNL     1       1.698   3.538  21.216  0.00  0.00    +0.000 C 
ATOM     16  O   UNL     1       2.284   3.377  22.275  0.00  0.00    +0.000 OA
BRANCH  15  17
ATOM     17  O   UNL     1       0.570   2.861  20.915  0.00  0.00    +0.000 OA
ATOM     18  H   UNL     1       0.660   1.892  20.907  0.00  0.00    +0.000 HD
ENDBRANCH  15  17
ENDBRANCH   9  15
BRANCH  10  19
ATOM     19  O   UNL     1       1.829   4.302  17.972  0.00  0.00    +0.000 OA
ATOM     20  H   UNL     1       0.971   3.883  18.195  0.00  0.00    +0.000 HD
ENDBRANCH  10  19
BRANCH   1  21
ATOM     21  C   UNL     1       5.067   3.994  18.644  0.00  0.00    +0.000 C 
BRANCH  21  25
ATOM     22  C   UNL     1       6.754   4.586  14.696  0.00  0.00    +0.000 A 
ATOM     23  C   UNL     1       7.549   4.826  15.822  0.00  0.00    +0.000 A 
ATOM     24  C   UNL     1       7.019   4.631  17.108  0.00  0.00    +0.000 A 
ATOM     25  C   UNL     1       5.689   4.197  17.278  0.00  0.00    +0.000 A 
ATOM     26  C   UNL     1       4.916   3.937  16.143  0.00  0.00    +0.000 A 
ATOM     27  C   UNL     1       5.441   4.134  14.866  0.00  0.00    +0.000 A 
BRANCH  22  29
ATOM     28  N   UNL     1       6.721   4.056  12.308  0.00  0.00    +0.000 N 
ATOM     29  C   UNL     1       7.219   4.842  13.307  0.00  0.00    +0.000 C 
ATOM     30  O   UNL     1       8.005   5.746  13.054  0.00  0.00    +0.000 OA
ATOM     31  H   UNL     1       6.984   4.323  11.367  0.00  0.00    +0.000 HD
ATOM     32  H   UNL     1       5.889   3.494  12.420  0.00  0.00    +0.000 HD
ENDBRANCH  22  29
ENDBRANCH  21  25
ENDBRANCH   1  21
TORSDOF 6
ENDMDL
MODEL 3
REMARK VINA RESULT:      -7.9      2.684      6.721
REMARK  Name = 
REMARK  6 active torsions:
REMARK  status: ('A' for Active; 'I' for Inactive)
REMARK    1  A    between atoms: C_2  and  C_4
REMARK    2  A    between atoms: C_7  and  C_8
REMARK    3  A    between atoms: C_8  and  C_9
REMARK    4  A    between atoms: C_17  and  C_18
REMARK    5  A    between atoms: C_18  and  O_20
REMARK    6  A    between atoms: C_21  and  O_22
REMARK                            x       y       z     vdW  Elec       q    Type
REMARK                         _______ _______ _______ _____ _____    ______ ____
ROOT
ATOM      1  C   UNL     1       2.157   6.290  20.003  0.00  0.00    +0.000 A 
ATOM      2  N   UNL     1       2.996   6.503  18.965  0.00  0.00    +0.000 NA
ATOM      3  C   UNL     1       3.387   5.406  18.223  0.00  0.00    +0.000 A 
ATOM      4  C   UNL     1       4.537   5.364  17.396  0.00  0.00    +0.000 A 
ATOM      5  C   UNL     1       4.820   4.243  16.593  0.00  0.00    +0.000 A 
ATOM      6  C   UNL     1       3.924   3.170  16.564  0.00  0.00    +0.000 A 
ATOM      7  C   UNL     1       2.885   3.120  17.476  0.00  0.00    +0.000 A 
ATOM      8  C   UNL     1       2.682   4.193  18.371  0.00  0.00    +0.000 A 
ATOM      9  C   UNL     1       1.899   4.115  19.536  0.00  0.00    +0.000 A 
ATOM     10  C   UNL     1       2.141   5.030  20.526  0.00  0.00    +0.000 A 
ATOM     11  C   UNL     1       6.156   4.023  15.944  0.00  0.00    +0.000 C 
ATOM     12  C   UNL     1       7.076   5.222  15.813  0.00  0.00    +0.000 C 
ATOM     13  C   UNL     1       6.838   6.406  16.737  0.00  0.00    +0.000 C 
ATOM     14  C   UNL     1       5.597   6.413  17.626  0.00  0.00    +0.000 C 
ENDROOT
BRANCH   9  15
ATOM     15  C   UNL     1       0.794   3.175  19.836  0.00  0.00    +0.000 C 
ATOM     16  O   UNL     1       0.140   2.638  18.956  0.00  0.00    +0.000 OA
BRANCH  15  17
ATOM     17  O   UNL     1       0.666   2.826  21.134  0.00  0.00    +0.000 OA
ATOM     18  H   UNL     1       0.393   3.545  21.730  0.00  0.00    +0.000 HD
ENDBRANCH  15  17
ENDBRANCH   9  15
BRANCH  10  19
ATOM     19  O   UNL     1       3.390   4.769  21.195  0.00  0.00    +0.000 OA
ATOM     20  H   UNL     1       4.060   4.602  20.499  0.00  0.00    +0.000 HD
ENDBRANCH  10  19
BRANCH   1  21
ATOM     21  C   UNL     1       1.309   7.314  20.721  0.00  0.00    +0.000 C 
BRANCH  21  25
ATOM     22  C   UNL     1       1.228  11.273  18.959  0.00  0.00    +0.000 A 
ATOM     23  C   UNL     1       1.567  10.175  18.159  0.00  0.00    +0.000 A 
ATOM     24  C   UNL     1       1.589   8.885  18.715  0.00  0.00    +0.000 A 
ATOM     25  C   UNL     1       1.276   8.683  20.073  0.00  0.00    +0.000 A 
ATOM     26  C   UNL     1       0.916   9.786  20.853  0.00  0.00    +0.000 A 
ATOM     27  C   UNL     1       0.896  11.067  20.303  0.00  0.00    +0.000 A 
BRANCH  22  29
ATOM     28  N   UNL     1       2.295  13.052  17.663  0.00  0.00    +0.000 N 
ATOM     29  C   UNL     1       1.255  12.674  18.463  0.00  0.00    +0.000 C 
ATOM     30  O   UNL     1       0.361  13.465  18.738  0.00  0.00    +0.000 OA
ATOM     31  H   UNL     1       2.227  13.982  17.267  0.00  0.00    +0.000 HD
ATOM     32  H   UNL     1       2.894  12.386  17.197  0.00  0.00    +0.000 HD
ENDBRANCH  22  29
ENDBRANCH  21  25
ENDBRANCH   1  21
TORSDOF 6
ENDMDL
MODEL 4
REMARK VINA RESULT:      -7.8      3.901      6.226
REMARK  Name = 
REMARK  6 active torsions:
REMARK  status: ('A' for Active; 'I' for Inactive)
REMARK    1  A    between atoms: C_2  and  C_4
REMARK    2  A    between atoms: C_7  and  C_8
REMARK    3  A    between atoms: C_8  and  C_9
REMARK    4  A    between atoms: C_17  and  C_18
REMARK    5  A    between atoms: C_18  and  O_20
REMARK    6  A    between atoms: C_21  and  O_22
REMARK                            x       y       z     vdW  Elec       q    Type
REMARK                         _______ _______ _______ _____ _____    ______ ____
ROOT
ATOM      1  C   UNL     1       0.739   8.859  20.195  0.00  0.00    +0.000 A 
ATOM      2  N   UNL     1       0.199   9.370  19.066  0.00  0.00    +0.000 NA
ATOM      3  C   UNL     1      -0.836  10.273  19.206  0.00  0.00    +0.000 A 
ATOM      4  C   UNL     1      -1.770  10.588  18.189  0.00  0.00    +0.000 A 
ATOM      5  C   UNL     1      -2.740  11.591  18.372  0.00  0.00    +0.000 A 
ATOM      6  C   UNL     1      -2.751  12.335  19.556  0.00  0.00    +0.000 A 
ATOM      7  C   UNL     1      -1.958  11.941  20.619  0.00  0.00    +0.000 A 
ATOM      8  C   UNL     1      -1.076  10.849  20.473  0.00  0.00    +0.000 A 
ATOM      9  C   UNL     1      -0.486  10.158  21.545  0.00  0.00    +0.000 A 
ATOM     10  C   UNL     1      -0.043   8.883  21.313  0.00  0.00    +0.000 A 
ATOM     11  C   UNL     1      -3.926  11.753  17.464  0.00  0.00    +0.000 C 
ATOM     12  C   UNL     1      -3.857  11.092  16.101  0.00  0.00    +0.000 C 
ATOM     13  C   UNL     1      -2.877   9.945  15.913  0.00  0.00    +0.000 C 
ATOM     14  C   UNL     1      -1.892   9.623  17.035  0.00  0.00    +0.000 C 
ENDROOT
BRANCH   9  15
ATOM     15  C   UNL     1      -0.239  10.643  22.922  0.00  0.00    +0.000 C 
ATOM     16  O   UNL     1      -0.676  11.710  23.324  0.00  0.00    +0.000 OA
BRANCH  15  17
ATOM     17  O   UNL     1       0.357   9.760  23.751  0.00  0.00    +0.000 OA
ATOM     18  H   UNL     1       1.308   9.906  23.896  0.00  0.00    +0.000 HD
ENDBRANCH  15  17
ENDBRANCH   9  15
BRANCH  10  19
ATOM     19  O   UNL     1      -1.138   7.961  21.156  0.00  0.00    +0.000 OA
ATOM     20  H   UNL     1      -1.771   8.370  20.528  0.00  0.00    +0.000 HD
ENDBRANCH  10  19
BRANCH   1  21
ATOM     21  C   UNL     1       2.075   8.165  20.339  0.00  0.00    +0.000 C 
BRANCH  21  25
ATOM     22  C   UNL     1       2.175   4.139  18.737  0.00  0.00    +0.000 A 
ATOM     23  C   UNL     1       2.590   5.205  17.931  0.00  0.00    +0.000 A 
ATOM     24  C   UNL     1       2.571   6.515  18.440  0.00  0.00    +0.000 A 
ATOM     25  C   UNL     1       2.134   6.768  19.755  0.00  0.00    +0.000 A 
ATOM     26  C   UNL     1       1.746   5.689  20.555  0.00  0.00    +0.000 A 
ATOM     27  C   UNL     1       1.762   4.389  20.050  0.00  0.00    +0.000 A 
BRANCH  22  29
ATOM     28  N   UNL     1       1.712   1.769  19.129  0.00  0.00    +0.000 N 
ATOM     29  C   UNL     1       2.095   2.737  18.246  0.00  0.00    +0.000 C 
ATOM     30  O   UNL     1       2.338   2.455  17.079  0.00  0.00    +0.000 OA
ATOM     31  H   UNL     1       1.574   0.846  18.735  0.00  0.00    +0.000 HD
ATOM     32  H   UNL     1       1.250   1.979  20.002  0.00  0.00    +0.000 HD
ENDBRANCH  22  29
ENDBRANCH  21  25
ENDBRANCH   1  21
TORSDOF 6
ENDMDL
MODEL 5
REMARK VINA RESULT:      -7.7      3.681      6.011
REMARK  Name = 
REMARK  6 active torsions:
REMARK  status: ('A' for Active; 'I' for Inactive)
REMARK    1  A    between atoms: C_2  and  C_4
REMARK    2  A    between atoms: C_7  and  C_8
REMARK    3  A    between atoms: C_8  and  C_9
REMARK    4  A    between atoms: C_17  and  C_18
REMARK    5  A    between atoms: C_18  and  O_20
REMARK    6  A    between atoms: C_21  and  O_22
REMARK                            x       y       z     vdW  Elec       q    Type
REMARK                         _______ _______ _______ _____ _____    ______ ____
ROOT
ATOM      1  C   UNL     1       0.812   8.928  20.235  0.00  0.00    +0.000 A 
ATOM      2  N   UNL     1       0.280   9.430  19.099  0.00  0.00    +0.000 NA
ATOM      3  C   UNL     1      -0.788  10.297  19.224  0.00  0.00    +0.000 A 
ATOM      4  C   UNL     1      -1.710  10.589  18.189  0.00  0.00    +0.000 A 
ATOM      5  C   UNL     1      -2.717  11.558  18.358  0.00  0.00    +0.000 A 
ATOM      6  C   UNL     1      -2.780  12.289  19.548  0.00  0.00    +0.000 A 
ATOM      7  C   UNL     1      -1.997  11.913  20.625  0.00  0.00    +0.000 A 
ATOM      8  C   UNL     1      -1.075  10.853  20.489  0.00  0.00    +0.000 A 
ATOM      9  C   UNL     1      -0.486  10.172  21.569  0.00  0.00    +0.000 A 
ATOM     10  C   UNL     1       0.006   8.915  21.336  0.00  0.00    +0.000 A 
ATOM     11  C   UNL     1      -3.888  11.688  17.425  0.00  0.00    +0.000 C 
ATOM     12  C   UNL     1      -3.767  11.042  16.059  0.00  0.00    +0.000 C 
ATOM     13  C   UNL     1      -2.744   9.930  15.884  0.00  0.00    +0.000 C 
ATOM     14  C   UNL     1      -1.774   9.631  17.025  0.00  0.00    +0.000 C 
ENDROOT
BRANCH   9  15
ATOM     15  C   UNL     1      -0.286  10.653  22.955  0.00  0.00    +0.000 C 
ATOM     16  O   UNL     1      -0.780  11.694  23.361  0.00  0.00    +0.000 OA
BRANCH  15  17
ATOM     17  O   UNL     1       0.337   9.790  23.785  0.00  0.00    +0.000 OA
ATOM     18  H   UNL     1       0.490   8.901  23.418  0.00  0.00    +0.000 HD
ENDBRANCH  15  17
ENDBRANCH   9  15
BRANCH  10  19
ATOM     19  O   UNL     1      -1.054   7.958  21.147  0.00  0.00    +0.000 OA
ATOM     20  H   UNL     1      -0.880   7.500  20.297  0.00  0.00    +0.000 HD
ENDBRANCH  10  19
BRANCH   1  21
ATOM     21  C   UNL     1       2.167   8.278  20.403  0.00  0.00    +0.000 C 
BRANCH  21  25
ATOM     22  C   UNL     1       2.627   4.401  18.522  0.00  0.00    +0.000 A 
ATOM     23  C   UNL     1       2.043   4.479  19.791  0.00  0.00    +0.000 A 
ATOM     24  C   UNL     1       1.880   5.730  20.410  0.00  0.00    +0.000 A 
ATOM     25  C   UNL     1       2.302   6.910  19.766  0.00  0.00    +0.000 A 
ATOM     26  C   UNL     1       2.860   6.817  18.488  0.00  0.00    +0.000 A 
ATOM     27  C   UNL     1       3.026   5.575  17.874  0.00  0.00    +0.000 A 
BRANCH  22  29
ATOM     28  N   UNL     1       4.201   2.706  17.724  0.00  0.00    +0.000 N 
ATOM     29  C   UNL     1       2.902   3.110  17.836  0.00  0.00    +0.000 C 
ATOM     30  O   UNL     1       1.993   2.411  17.404  0.00  0.00    +0.000 OA
ATOM     31  H   UNL     1       4.340   1.780  17.341  0.00  0.00    +0.000 HD
ATOM     32  H   UNL     1       4.943   3.098  18.286  0.00  0.00    +0.000 HD
ENDBRANCH  22  29
ENDBRANCH  21  25
ENDBRANCH   1  21
TORSDOF 6
ENDMDL
MODEL 6
REMARK VINA RESULT:      -7.6      5.149      9.394
REMARK  Name = 
REMARK  6 active torsions:
REMARK  status: ('A' for Active; 'I' for Inactive)
REMARK    1  A    between atoms: C_2  and  C_4
REMARK    2  A    between atoms: C_7  and  C_8
REMARK    3  A    between atoms: C_8  and  C_9
REMARK    4  A    between atoms: C_17  and  C_18
REMARK    5  A    between atoms: C_18  and  O_20
REMARK    6  A    between atoms: C_21  and  O_22
REMARK                            x       y       z     vdW  Elec       q    Type
REMARK                         _______ _______ _______ _____ _____    ______ ____
ROOT
ATOM      1  C   UNL     1       0.003  11.398  19.542  0.00  0.00    +0.000 A 
ATOM      2  N   UNL     1       0.486  10.365  18.818  0.00  0.00    +0.000 NA
ATOM      3  C   UNL     1       0.938   9.257  19.508  0.00  0.00    +0.000 A 
ATOM      4  C   UNL     1       1.826   8.288  18.979  0.00  0.00    +0.000 A 
ATOM      5  C   UNL     1       2.167   7.134  19.708  0.00  0.00    +0.000 A 
ATOM      6  C   UNL     1       1.579   6.904  20.955  0.00  0.00    +0.000 A 
ATOM      7  C   UNL     1       0.838   7.906  21.558  0.00  0.00    +0.000 A 
ATOM      8  C   UNL     1       0.605   9.118  20.873  0.00  0.00    +0.000 A 
ATOM      9  C   UNL     1       0.174  10.306  21.489  0.00  0.00    +0.000 A 
ATOM     10  C   UNL     1       0.421  11.485  20.838  0.00  0.00    +0.000 A 
ATOM     11  C   UNL     1       3.317   6.243  19.332  0.00  0.00    +0.000 C 
ATOM     12  C   UNL     1       3.858   6.360  17.920  0.00  0.00    +0.000 C 
ATOM     13  C   UNL     1       3.573   7.640  17.151  0.00  0.00    +0.000 C 
ATOM     14  C   UNL     1       2.623   8.671  17.757  0.00  0.00    +0.000 C 
ENDROOT
BRANCH   9  15
ATOM     15  C   UNL     1      -0.563  10.460  22.765  0.00  0.00    +0.000 C 
ATOM     16  O   UNL     1      -0.137  10.018  23.820  0.00  0.00    +0.000 OA
BRANCH  15  17
ATOM     17  O   UNL     1      -1.649  11.260  22.714  0.00  0.00    +0.000 OA
ATOM     18  H   UNL     1      -1.784  11.824  23.496  0.00  0.00    +0.000 HD
ENDBRANCH  15  17
ENDBRANCH   9  15
BRANCH  10  19
ATOM     19  O   UNL     1       1.820  11.826  20.872  0.00  0.00    +0.000 OA
ATOM     20  H   UNL     1       2.176  11.496  21.725  0.00  0.00    +0.000 HD
ENDBRANCH  10  19
BRANCH   1  21
ATOM     21  C   UNL     1      -0.866  12.534  19.052  0.00  0.00    +0.000 C 
BRANCH  21  25
ATOM     22  C   UNL     1      -5.040  11.557  18.412  0.00  0.00    +0.000 A 
ATOM     23  C   UNL     1      -4.098  11.201  17.441  0.00  0.00    +0.000 A 
ATOM     24  C   UNL     1      -2.741  11.504  17.638  0.00  0.00    +0.000 A 
ATOM     25  C   UNL     1      -2.316  12.167  18.806  0.00  0.00    +0.000 A 
ATOM     26  C   UNL     1      -3.265  12.494  19.778  0.00  0.00    +0.000 A 
ATOM     27  C   UNL     1      -4.614  12.197  19.582  0.00  0.00    +0.000 A 
BRANCH  22  29
ATOM     28  N   UNL     1      -7.059  10.238  18.826  0.00  0.00    +0.000 N 
ATOM     29  C   UNL     1      -6.501  11.339  18.242  0.00  0.00    +0.000 C 
ATOM     30  O   UNL     1      -7.197  12.133  17.620  0.00  0.00    +0.000 OA
ATOM     31  H   UNL     1      -8.068  10.177  18.771  0.00  0.00    +0.000 HD
ATOM     32  H   UNL     1      -6.596   9.716  19.556  0.00  0.00    +0.000 HD
ENDBRANCH  22  29
ENDBRANCH  21  25
ENDBRANCH   1  21
TORSDOF 6
ENDMDL
MODEL 7
REMARK VINA RESULT:      -7.3      5.058      9.377
REMARK  Name = 
REMARK  6 active torsions:
REMARK  status: ('A' for Active; 'I' for Inactive)
REMARK    1  A    between atoms: C_2  and  C_4
REMARK    2  A    between atoms: C_7  and  C_8
REMARK    3  A    between atoms: C_8  and  C_9
REMARK    4  A    between atoms: C_17  and  C_18
REMARK    5  A    between atoms: C_18  and  O_20
REMARK    6  A    between atoms: C_21  and  O_22
REMARK                            x       y       z     vdW  Elec       q    Type
REMARK                         _______ _______ _______ _____ _____    ______ ____
ROOT
ATOM      1  C   UNL     1       0.126  11.356  19.489  0.00  0.00    +0.000 A 
ATOM      2  N   UNL     1       0.596  10.308  18.776  0.00  0.00    +0.000 NA
ATOM      3  C   UNL     1       1.016   9.195  19.476  0.00  0.00    +0.000 A 
ATOM      4  C   UNL     1       1.890   8.206  18.963  0.00  0.00    +0.000 A 
ATOM      5  C   UNL     1       2.198   7.048  19.702  0.00  0.00    +0.000 A 
ATOM      6  C   UNL     1       1.590   6.837  20.943  0.00  0.00    +0.000 A 
ATOM      7  C   UNL     1       0.864   7.857  21.531  0.00  0.00    +0.000 A 
ATOM      8  C   UNL     1       0.665   9.071  20.838  0.00  0.00    +0.000 A 
ATOM      9  C   UNL     1       0.251  10.270  21.443  0.00  0.00    +0.000 A 
ATOM     10  C   UNL     1       0.531  11.441  20.789  0.00  0.00    +0.000 A 
ATOM     11  C   UNL     1       3.333   6.131  19.343  0.00  0.00    +0.000 C 
ATOM     12  C   UNL     1       3.893   6.229  17.937  0.00  0.00    +0.000 C 
ATOM     13  C   UNL     1       3.645   7.511  17.159  0.00  0.00    +0.000 C 
ATOM     14  C   UNL     1       2.709   8.565  17.748  0.00  0.00    +0.000 C 
ENDROOT
BRANCH   9  15
ATOM     15  C   UNL     1      -0.497  10.447  22.709  0.00  0.00    +0.000 C 
ATOM     16  O   UNL     1      -0.086  10.012  23.774  0.00  0.00    +0.000 OA
BRANCH  15  17
ATOM     17  O   UNL     1      -1.574  11.257  22.638  0.00  0.00    +0.000 OA
ATOM     18  H   UNL     1      -1.723  11.671  21.770  0.00  0.00    +0.000 HD
ENDBRANCH  15  17
ENDBRANCH   9  15
BRANCH  10  19
ATOM     19  O   UNL     1       1.936  11.752  20.838  0.00  0.00    +0.000 OA
ATOM     20  H   UNL     1       2.057  12.428  21.539  0.00  0.00    +0.000 HD
ENDBRANCH  10  19
BRANCH   1  21
ATOM     21  C   UNL     1      -0.713  12.507  18.983  0.00  0.00    +0.000 C 
BRANCH  21  25
ATOM     22  C   UNL     1      -4.945  11.617  18.684  0.00  0.00    +0.000 A 
ATOM     23  C   UNL     1      -4.479  12.369  19.768  0.00  0.00    +0.000 A 
ATOM     24  C   UNL     1      -3.112  12.672  19.874  0.00  0.00    +0.000 A 
ATOM     25  C   UNL     1      -2.199  12.224  18.899  0.00  0.00    +0.000 A 
ATOM     26  C   UNL     1      -2.683  11.496  17.809  0.00  0.00    +0.000 A 
ATOM     27  C   UNL     1      -4.041  11.191  17.705  0.00  0.00    +0.000 A 
BRANCH  22  29
ATOM     28  N   UNL     1      -7.265  12.111  18.088  0.00  0.00    +0.000 N 
ATOM     29  C   UNL     1      -6.363  11.193  18.542  0.00  0.00    +0.000 C 
ATOM     30  O   UNL     1      -6.714  10.047  18.797  0.00  0.00    +0.000 OA
ATOM     31  H   UNL     1      -8.198  11.758  17.911  0.00  0.00    +0.000 HD
ATOM     32  H   UNL     1      -6.989  12.960  17.617  0.00  0.00    +0.000 HD
ENDBRANCH  22  29
ENDBRANCH  21  25
ENDBRANCH   1  21
TORSDOF 6
ENDMDL
MODEL 8
REMARK VINA RESULT:      -7.2      2.729      6.877
REMARK  Name = 
REMARK  6 active torsions:
REMARK  status: ('A' for Active; 'I' for Inactive)
REMARK    1  A    between atoms: C_2  and  C_4
REMARK    2  A    between atoms: C_7  and  C_8
REMARK    3  A    between atoms: C_8  and  C_9
REMARK    4  A    between atoms: C_17  and  C_18
REMARK    5  A    between atoms: C_18  and  O_20
REMARK    6  A    between atoms: C_21  and  O_22
REMARK                            x       y       z     vdW  Elec       q    Type
REMARK                         _______ _______ _______ _____ _____    ______ ____
ROOT
ATOM      1  C   UNL     1       2.260   6.312  20.241  0.00  0.00    +0.000 A 
ATOM      2  N   UNL     1       3.067   6.603  19.197  0.00  0.00    +0.000 NA
ATOM      3  C   UNL     1       3.379   5.579  18.325  0.00  0.00    +0.000 A 
ATOM      4  C   UNL     1       4.493   5.579  17.450  0.00  0.00    +0.000 A 
ATOM      5  C   UNL     1       4.694   4.542  16.520  0.00  0.00    +0.000 A 
ATOM      6  C   UNL     1       3.749   3.517  16.414  0.00  0.00    +0.000 A 
ATOM      7  C   UNL     1       2.745   3.410  17.360  0.00  0.00    +0.000 A 
ATOM      8  C   UNL     1       2.625   4.386  18.372  0.00  0.00    +0.000 A 
ATOM      9  C   UNL     1       1.885   4.214  19.555  0.00  0.00    +0.000 A 
ATOM     10  C   UNL     1       2.206   5.005  20.626  0.00  0.00    +0.000 A 
ATOM     11  C   UNL     1       5.993   4.339  15.794  0.00  0.00    +0.000 C 
ATOM     12  C   UNL     1       6.961   5.506  15.754  0.00  0.00    +0.000 C 
ATOM     13  C   UNL     1       6.813   6.591  16.809  0.00  0.00    +0.000 C 
ATOM     14  C   UNL     1       5.608   6.552  17.746  0.00  0.00    +0.000 C 
ENDROOT
BRANCH   9  15
ATOM     15  C   UNL     1       0.750   3.294  19.800  0.00  0.00    +0.000 C 
ATOM     16  O   UNL     1       0.081   2.830  18.890  0.00  0.00    +0.000 OA
BRANCH  15  17
ATOM     17  O   UNL     1       0.609   2.874  21.075  0.00  0.00    +0.000 OA
ATOM     18  H   UNL     1       0.775   3.551  21.754  0.00  0.00    +0.000 HD
ENDBRANCH  15  17
ENDBRANCH   9  15
BRANCH  10  19
ATOM     19  O   UNL     1       3.466   4.621  21.209  0.00  0.00    +0.000 OA
ATOM     20  H   UNL     1       3.537   5.083  22.071  0.00  0.00    +0.000 HD
ENDBRANCH  10  19
BRANCH   1  21
ATOM     21  C   UNL     1       1.487   7.286  21.101  0.00  0.00    +0.000 C 
BRANCH  21  25
ATOM     22  C   UNL     1      -0.141  10.640  18.890  0.00  0.00    +0.000 A 
ATOM     23  C   UNL     1      -0.594  10.394  20.191  0.00  0.00    +0.000 A 
ATOM     24  C   UNL     1      -0.070   9.316  20.923  0.00  0.00    +0.000 A 
ATOM     25  C   UNL     1       0.909   8.474  20.359  0.00  0.00    +0.000 A 
ATOM     26  C   UNL     1       1.370   8.747  19.068  0.00  0.00    +0.000 A 
ATOM     27  C   UNL     1       0.847   9.816  18.339  0.00  0.00    +0.000 A 
BRANCH  22  29
ATOM     28  N   UNL     1      -1.593  11.357  17.056  0.00  0.00    +0.000 N 
ATOM     29  C   UNL     1      -0.700  11.713  18.026  0.00  0.00    +0.000 C 
ATOM     30  O   UNL     1      -0.396  12.888  18.192  0.00  0.00    +0.000 OA
ATOM     31  H   UNL     1      -2.025  12.124  16.556  0.00  0.00    +0.000 HD
ATOM     32  H   UNL     1      -2.071  10.468  17.057  0.00  0.00    +0.000 HD
ENDBRANCH  22  29
ENDBRANCH  21  25
ENDBRANCH   1  21
TORSDOF 6
ENDMDL
MODEL 9
REMARK VINA RESULT:      -7.2      4.564      7.433
REMARK  Name = 
REMARK  6 active torsions:
REMARK  status: ('A' for Active; 'I' for Inactive)
REMARK    1  A    between atoms: C_2  and  C_4
REMARK    2  A    between atoms: C_7  and  C_8
REMARK    3  A    between atoms: C_8  and  C_9
REMARK    4  A    between atoms: C_17  and  C_18
REMARK    5  A    between atoms: C_18  and  O_20
REMARK    6  A    between atoms: C_21  and  O_22
REMARK                            x       y       z     vdW  Elec       q    Type
REMARK                         _______ _______ _______ _____ _____    ______ ____
ROOT
ATOM      1  C   UNL     1       0.351  11.168  19.860  0.00  0.00    +0.000 A 
ATOM      2  N   UNL     1       1.301  12.125  19.759  0.00  0.00    +0.000 NA
ATOM      3  C   UNL     1       0.881  13.418  19.517  0.00  0.00    +0.000 A 
ATOM      4  C   UNL     1       1.703  14.442  18.985  0.00  0.00    +0.000 A 
ATOM      5  C   UNL     1       1.233  15.763  18.856  0.00  0.00    +0.000 A 
ATOM      6  C   UNL     1      -0.047  16.089  19.311  0.00  0.00    +0.000 A 
ATOM      7  C   UNL     1      -0.919  15.082  19.684  0.00  0.00    +0.000 A 
ATOM      8  C   UNL     1      -0.483  13.739  19.688  0.00  0.00    +0.000 A 
ATOM      9  C   UNL     1      -1.341  12.626  19.715  0.00  0.00    +0.000 A 
ATOM     10  C   UNL     1      -0.848  11.431  19.264  0.00  0.00    +0.000 A 
ATOM     11  C   UNL     1       1.941  16.802  18.033  0.00  0.00    +0.000 C 
ATOM     12  C   UNL     1       3.391  16.541  17.674  0.00  0.00    +0.000 C 
ATOM     13  C   UNL     1       3.889  15.105  17.722  0.00  0.00    +0.000 C 
ATOM     14  C   UNL     1       2.973  14.022  18.288  0.00  0.00    +0.000 C 
ENDROOT
BRANCH   9  15
ATOM     15  C   UNL     1      -2.736  12.558  20.210  0.00  0.00    +0.000 C 
ATOM     16  O   UNL     1      -3.007  12.598  21.400  0.00  0.00    +0.000 OA
BRANCH  15  17
ATOM     17  O   UNL     1      -3.692  12.615  19.259  0.00  0.00    +0.000 OA
ATOM     18  H   UNL     1      -3.623  13.369  18.649  0.00  0.00    +0.000 HD
ENDBRANCH  15  17
ENDBRANCH   9  15
BRANCH  10  19
ATOM     19  O   UNL     1      -0.686  11.431  17.833  0.00  0.00    +0.000 OA
ATOM     20  H   UNL     1      -0.144  10.646  17.605  0.00  0.00    +0.000 HD
ENDBRANCH  10  19
BRANCH   1  21
ATOM     21  C   UNL     1       0.498   9.792  20.468  0.00  0.00    +0.000 C 
BRANCH  21  25
ATOM     22  C   UNL     1       2.960   6.982  18.271  0.00  0.00    +0.000 A 
ATOM     23  C   UNL     1       2.581   8.182  17.659  0.00  0.00    +0.000 A 
ATOM     24  C   UNL     1       1.790   9.106  18.362  0.00  0.00    +0.000 A 
ATOM     25  C   UNL     1       1.370   8.836  19.679  0.00  0.00    +0.000 A 
ATOM     26  C   UNL     1       1.778   7.644  20.285  0.00  0.00    +0.000 A 
ATOM     27  C   UNL     1       2.560   6.725  19.587  0.00  0.00    +0.000 A 
BRANCH  22  29
ATOM     28  N   UNL     1       4.836   6.297  16.858  0.00  0.00    +0.000 N 
ATOM     29  C   UNL     1       3.731   5.923  17.567  0.00  0.00    +0.000 C 
ATOM     30  O   UNL     1       3.408   4.744  17.639  0.00  0.00    +0.000 OA
ATOM     31  H   UNL     1       5.389   5.540  16.476  0.00  0.00    +0.000 HD
ATOM     32  H   UNL     1       5.290   7.190  16.987  0.00  0.00    +0.000 HD
ENDBRANCH  22  29
ENDBRANCH  21  25
ENDBRANCH   1  21
TORSDOF 6
ENDMDL
