MODEL 1
REMARK VINA RESULT:      -7.4      0.000      0.000
REMARK  Name = 
REMARK  11 active torsions:
REMARK  status: ('A' for Active; 'I' for Inactive)
REMARK    1  A    between atoms: C_1  and  C_2
REMARK    2  A    between atoms: C_2  and  O_3
REMARK    3  A    between atoms: C_2  and  C_4
REMARK    4  A    between atoms: C_4  and  C_5
REMARK    5  A    between atoms: C_5  and  C_6
REMARK    6  A    between atoms: C_5  and  C_7
REMARK    7  A    between atoms: C_5  and  C_8
REMARK    8  A    between atoms: C_8  and  N_9
REMARK    9  A    between atoms: N_12  and  C_13
REMARK   10  A    between atoms: C_13  and  C_14
REMARK   11  A    between atoms: C_18  and  N_19
REMARK                            x       y       z     vdW  Elec       q    Type
REMARK                         _______ _______ _______ _____ _____    ______ ____
ROOT
ATOM      1  N   UNL     1       2.176   5.711  20.033  0.00  0.00    +0.000 N 
ATOM      2  C   UNL     1       2.535   5.898  18.726  0.00  0.00    +0.000 C 
ATOM      3  O   UNL     1       2.041   5.293  17.784  0.00  0.00    +0.000 OA
ATOM      4  N   UNL     1       3.465   6.893  18.594  0.00  0.00    +0.000 N 
ATOM      5  H   UNL     1       2.783   6.097  20.734  0.00  0.00    +0.000 HD
ATOM      6  H   UNL     1       4.045   7.108  19.385  0.00  0.00    +0.000 HD
ENDROOT
BRANCH   1   7
ATOM      7  C   UNL     1       1.201   4.706  20.423  0.00  0.00    +0.000 C 
BRANCH   7   8
ATOM      8  C   UNL     1       1.765   3.255  20.413  0.00  0.00    +0.000 C 
ATOM      9  C   UNL     1       1.000   2.466  19.331  0.00  0.00    +0.000 C 
ATOM     10  C   UNL     1       1.477   2.610  21.782  0.00  0.00    +0.000 C 
BRANCH   8  11
ATOM     11  C   UNL     1       3.289   3.286  20.078  0.00  0.00    +0.000 C 
BRANCH  11  13
ATOM     12  C   UNL     1       4.033   2.392  17.831  0.00  0.00    +0.000 C 
ATOM     13  C   UNL     1       3.873   2.081  19.315  0.00  0.00    +0.000 C 
BRANCH  13  14
ATOM     14  O   UNL     1       5.155   1.727  19.816  0.00  0.00    +0.000 OA
ATOM     15  H   UNL     1       5.320   0.794  19.602  0.00  0.00    +0.000 HD
ENDBRANCH  13  14
ENDBRANCH  11  13
ENDBRANCH   8  11
ENDBRANCH   7   8
ENDBRANCH   1   7
BRANCH   4  16
ATOM     16  C   UNL     1       3.964   7.263  17.290  0.00  0.00    +0.000 C 
BRANCH  16  17
ATOM     17  C   UNL     1       5.161   6.424  16.920  0.00  0.00    +0.000 A 
ATOM     18  C   UNL     1       6.140   6.143  17.882  0.00  0.00    +0.000 A 
ATOM     19  C   UNL     1       7.251   5.365  17.559  0.00  0.00    +0.000 A 
ATOM     20  C   UNL     1       7.398   4.850  16.269  0.00  0.00    +0.000 A 
ATOM     21  C   UNL     1       6.426   5.115  15.295  0.00  0.00    +0.000 A 
ATOM     22  C   UNL     1       5.303   5.893  15.628  0.00  0.00    +0.000 A 
BRANCH  21  23
ATOM     23  N   UNL     1       6.574   4.628  13.969  0.00  0.00    +0.000 N 
ATOM     24  C   UNL     1       7.419   5.065  12.977  0.00  0.00    +0.000 A 
ATOM     25  N   UNL     1       7.226   4.383  11.870  0.00  0.00    +0.000 NA
ATOM     26  C   UNL     1       6.240   3.515  12.225  0.00  0.00    +0.000 A 
ATOM     27  N   UNL     1       5.820   3.606  13.488  0.00  0.00    +0.000 NA
ENDBRANCH  21  23
ENDBRANCH  16  17
ENDBRANCH   4  16
TORSDOF 8
ENDMDL
MODEL 2
REMARK VINA RESULT:      -7.1      6.267      8.083
REMARK  Name = 
REMARK  11 active torsions:
REMARK  status: ('A' for Active; 'I' for Inactive)
REMARK    1  A    between atoms: C_1  and  C_2
REMARK    2  A    between atoms: C_2  and  O_3
REMARK    3  A    between atoms: C_2  and  C_4
REMARK    4  A    between atoms: C_4  and  C_5
REMARK    5  A    between atoms: C_5  and  C_6
REMARK    6  A    between atoms: C_5  and  C_7
REMARK    7  A    between atoms: C_5  and  C_8
REMARK    8  A    between atoms: C_8  and  N_9
REMARK    9  A    between atoms: N_12  and  C_13
REMARK   10  A    between atoms: C_13  and  C_14
REMARK   11  A    between atoms: C_18  and  N_19
REMARK                            x       y       z     vdW  Elec       q    Type
REMARK                         _______ _______ _______ _____ _____    ______ ____
ROOT
ATOM      1  N   UNL     1       7.156   7.460  17.048  0.00  0.00    +0.000 N 
ATOM      2  C   UNL     1       7.965   7.899  18.060  0.00  0.00    +0.000 C 
ATOM      3  O   UNL     1       8.484   7.167  18.892  0.00  0.00    +0.000 OA
ATOM      4  N   UNL     1       8.180   9.249  17.986  0.00  0.00    +0.000 N 
ATOM      5  H   UNL     1       6.618   8.154  16.558  0.00  0.00    +0.000 HD
ATOM      6  H   UNL     1       7.498   9.813  17.512  0.00  0.00    +0.000 HD
ENDROOT
BRANCH   1   7
ATOM      7  C   UNL     1       6.784   6.061  16.918  0.00  0.00    +0.000 C 
BRANCH   7   8
ATOM      8  C   UNL     1       5.402   5.723  17.547  0.00  0.00    +0.000 C 
ATOM      9  C   UNL     1       4.482   6.942  17.332  0.00  0.00    +0.000 C 
ATOM     10  C   UNL     1       5.592   5.517  19.062  0.00  0.00    +0.000 C 
BRANCH   8  11
ATOM     11  C   UNL     1       4.799   4.464  16.847  0.00  0.00    +0.000 C 
BRANCH  11  13
ATOM     12  C   UNL     1       2.484   3.552  17.307  0.00  0.00    +0.000 C 
ATOM     13  C   UNL     1       3.954   3.508  17.711  0.00  0.00    +0.000 C 
BRANCH  13  14
ATOM     14  O   UNL     1       4.394   2.163  17.570  0.00  0.00    +0.000 OA
ATOM     15  H   UNL     1       3.697   1.577  17.909  0.00  0.00    +0.000 HD
ENDBRANCH  13  14
ENDBRANCH  11  13
ENDBRANCH   8  11
ENDBRANCH   7   8
ENDBRANCH   1   7
BRANCH   4  16
ATOM     16  C   UNL     1       9.026   9.911  18.952  0.00  0.00    +0.000 C 
BRANCH  16  17
ATOM     17  C   UNL     1       9.512  11.234  18.417  0.00  0.00    +0.000 A 
ATOM     18  C   UNL     1      10.761  11.313  17.784  0.00  0.00    +0.000 A 
ATOM     19  C   UNL     1      11.225  12.527  17.279  0.00  0.00    +0.000 A 
ATOM     20  C   UNL     1      10.447  13.681  17.393  0.00  0.00    +0.000 A 
ATOM     21  C   UNL     1       9.193  13.620  18.018  0.00  0.00    +0.000 A 
ATOM     22  C   UNL     1       8.726  12.392  18.518  0.00  0.00    +0.000 A 
BRANCH  21  23
ATOM     23  N   UNL     1       8.401  14.788  18.173  0.00  0.00    +0.000 N 
ATOM     24  C   UNL     1       8.796  16.105  18.179  0.00  0.00    +0.000 A 
ATOM     25  N   UNL     1       7.768  16.895  18.394  0.00  0.00    +0.000 NA
ATOM     26  C   UNL     1       6.737  16.015  18.512  0.00  0.00    +0.000 A 
ATOM     27  N   UNL     1       7.059  14.729  18.369  0.00  0.00    +0.000 NA
ENDBRANCH  21  23
ENDBRANCH  16  17
ENDBRANCH   4  16
TORSDOF 8
ENDMDL
MODEL 3
REMARK VINA RESULT:      -7.1      6.397      8.302
REMARK  Name = 
REMARK  11 active torsions:
REMARK  status: ('A' for Active; 'I' for Inactive)
REMARK    1  A    between atoms: C_1  and  C_2
REMARK    2  A    between atoms: C_2  and  O_3
REMARK    3  A    between atoms: C_2  and  C_4
REMARK    4  A    between atoms: C_4  and  C_5
REMARK    5  A    between atoms: C_5  and  C_6
REMARK    6  A    between atoms: C_5  and  C_7
REMARK    7  A    between atoms: C_5  and  C_8
REMARK    8  A    between atoms: C_8  and  N_9
REMARK    9  A    between atoms: N_12  and  C_13
REMARK   10  A    between atoms: C_13  and  C_14
REMARK   11  A    between atoms: C_18  and  N_19
REMARK                            x       y       z     vdW  Elec       q    Type
REMARK                         _______ _______ _______ _____ _____    ______ ____
ROOT
ATOM      1  N   UNL     1       7.273   7.533  16.960  0.00  0.00    +0.000 N 
ATOM      2  C   UNL     1       8.021   7.985  18.013  0.00  0.00    +0.000 C 
ATOM      3  O   UNL     1       8.509   7.261  18.870  0.00  0.00    +0.000 OA
ATOM      4  N   UNL     1       8.215   9.339  17.952  0.00  0.00    +0.000 N 
ATOM      5  H   UNL     1       6.749   8.218  16.443  0.00  0.00    +0.000 HD
ATOM      6  H   UNL     1       7.549   9.891  17.443  0.00  0.00    +0.000 HD
ENDROOT
BRANCH   1   7
ATOM      7  C   UNL     1       6.934   6.128  16.809  0.00  0.00    +0.000 C 
BRANCH   7   8
ATOM      8  C   UNL     1       5.449   5.806  17.145  0.00  0.00    +0.000 C 
ATOM      9  C   UNL     1       4.986   4.690  16.186  0.00  0.00    +0.000 C 
ATOM     10  C   UNL     1       4.603   7.065  16.872  0.00  0.00    +0.000 C 
BRANCH   8  11
ATOM     11  C   UNL     1       5.337   5.323  18.625  0.00  0.00    +0.000 C 
BRANCH  11  13
ATOM     12  C   UNL     1       4.022   3.407  19.625  0.00  0.00    +0.000 C 
ATOM     13  C   UNL     1       3.957   4.842  19.112  0.00  0.00    +0.000 C 
BRANCH  13  14
ATOM     14  O   UNL     1       3.475   5.652  20.176  0.00  0.00    +0.000 OA
ATOM     15  H   UNL     1       4.073   5.547  20.935  0.00  0.00    +0.000 HD
ENDBRANCH  13  14
ENDBRANCH  11  13
ENDBRANCH   8  11
ENDBRANCH   7   8
ENDBRANCH   1   7
BRANCH   4  16
ATOM     16  C   UNL     1       8.997  10.014  18.961  0.00  0.00    +0.000 C 
BRANCH  16  17
ATOM     17  C   UNL     1       9.534  11.321  18.434  0.00  0.00    +0.000 A 
ATOM     18  C   UNL     1      10.778  11.354  17.789  0.00  0.00    +0.000 A 
ATOM     19  C   UNL     1      11.288  12.552  17.292  0.00  0.00    +0.000 A 
ATOM     20  C   UNL     1      10.560  13.736  17.426  0.00  0.00    +0.000 A 
ATOM     21  C   UNL     1       9.311  13.722  18.062  0.00  0.00    +0.000 A 
ATOM     22  C   UNL     1       8.797  12.509  18.555  0.00  0.00    +0.000 A 
BRANCH  21  23
ATOM     23  N   UNL     1       8.571  14.921  18.237  0.00  0.00    +0.000 N 
ATOM     24  C   UNL     1       7.248  15.078  18.575  0.00  0.00    +0.000 A 
ATOM     25  N   UNL     1       6.923  16.351  18.596  0.00  0.00    +0.000 NA
ATOM     26  C   UNL     1       8.094  16.961  18.264  0.00  0.00    +0.000 A 
ATOM     27  N   UNL     1       9.129  16.146  18.055  0.00  0.00    +0.000 NA
ENDBRANCH  21  23
ENDBRANCH  16  17
ENDBRANCH   4  16
TORSDOF 8
ENDMDL
MODEL 4
REMARK VINA RESULT:      -7.1      4.444      6.499
REMARK  Name = 
REMARK  11 active torsions:
REMARK  status: ('A' for Active; 'I' for Inactive)
REMARK    1  A    between atoms: C_1  and  C_2
REMARK    2  A    between atoms: C_2  and  O_3
REMARK    3  A    between atoms: C_2  and  C_4
REMARK    4  A    between atoms: C_4  and  C_5
REMARK    5  A    between atoms: C_5  and  C_6
REMARK    6  A    between atoms: C_5  and  C_7
REMARK    7  A    between atoms: C_5  and  C_8
REMARK    8  A    between atoms: C_8  and  N_9
REMARK    9  A    between atoms: N_12  and  C_13
REMARK   10  A    between atoms: C_13  and  C_14
REMARK   11  A    between atoms: C_18  and  N_19
REMARK                            x       y       z     vdW  Elec       q    Type
REMARK                         _______ _______ _______ _____ _____    ______ ____
ROOT
ATOM      1  N   UNL     1       0.911   9.830  19.295  0.00  0.00    +0.000 N 
ATOM      2  C   UNL     1       1.357   8.795  20.070  0.00  0.00    +0.000 C 
ATOM      3  O   UNL     1       1.204   8.729  21.282  0.00  0.00    +0.000 OA
ATOM      4  N   UNL     1       1.931   7.808  19.315  0.00  0.00    +0.000 N 
ATOM      5  H   UNL     1       1.270   9.888  18.358  0.00  0.00    +0.000 HD
ATOM      6  H   UNL     1       2.307   8.056  18.418  0.00  0.00    +0.000 HD
ENDROOT
BRANCH   1   7
ATOM      7  C   UNL     1       0.264  10.996  19.873  0.00  0.00    +0.000 C 
BRANCH   7   8
ATOM      8  C   UNL     1      -0.876  11.579  18.987  0.00  0.00    +0.000 C 
ATOM      9  C   UNL     1      -0.340  12.865  18.327  0.00  0.00    +0.000 C 
ATOM     10  C   UNL     1      -2.059  11.955  19.899  0.00  0.00    +0.000 C 
BRANCH   8  11
ATOM     11  C   UNL     1      -1.275  10.539  17.893  0.00  0.00    +0.000 C 
BRANCH  11  13
ATOM     12  C   UNL     1      -2.737  10.729  15.837  0.00  0.00    +0.000 C 
ATOM     13  C   UNL     1      -2.718  10.592  17.356  0.00  0.00    +0.000 C 
BRANCH  13  14
ATOM     14  O   UNL     1      -3.434   9.409  17.685  0.00  0.00    +0.000 OA
ATOM     15  H   UNL     1      -4.089   9.628  18.368  0.00  0.00    +0.000 HD
ENDBRANCH  13  14
ENDBRANCH  11  13
ENDBRANCH   8  11
ENDBRANCH   7   8
ENDBRANCH   1   7
BRANCH   4  16
ATOM     16  C   UNL     1       2.449   6.614  19.941  0.00  0.00    +0.000 C 
BRANCH  16  17
ATOM     17  C   UNL     1       2.772   5.566  18.905  0.00  0.00    +0.000 A 
ATOM     18  C   UNL     1       1.830   4.573  18.602  0.00  0.00    +0.000 A 
ATOM     19  C   UNL     1       2.109   3.599  17.644  0.00  0.00    +0.000 A 
ATOM     20  C   UNL     1       3.331   3.605  16.969  0.00  0.00    +0.000 A 
ATOM     21  C   UNL     1       4.283   4.594  17.254  0.00  0.00    +0.000 A 
ATOM     22  C   UNL     1       3.994   5.579  18.215  0.00  0.00    +0.000 A 
BRANCH  21  23
ATOM     23  N   UNL     1       5.544   4.598  16.603  0.00  0.00    +0.000 N 
ATOM     24  C   UNL     1       6.803   4.569  17.155  0.00  0.00    +0.000 A 
ATOM     25  N   UNL     1       7.722   4.630  16.218  0.00  0.00    +0.000 NA
ATOM     26  C   UNL     1       6.980   4.693  15.079  0.00  0.00    +0.000 A 
ATOM     27  N   UNL     1       5.657   4.658  15.250  0.00  0.00    +0.000 NA
ENDBRANCH  21  23
ENDBRANCH  16  17
ENDBRANCH   4  16
TORSDOF 8
ENDMDL
MODEL 5
REMARK VINA RESULT:      -7.1      3.950      8.210
REMARK  Name = 
REMARK  11 active torsions:
REMARK  status: ('A' for Active; 'I' for Inactive)
REMARK    1  A    between atoms: C_1  and  C_2
REMARK    2  A    between atoms: C_2  and  O_3
REMARK    3  A    between atoms: C_2  and  C_4
REMARK    4  A    between atoms: C_4  and  C_5
REMARK    5  A    between atoms: C_5  and  C_6
REMARK    6  A    between atoms: C_5  and  C_7
REMARK    7  A    between atoms: C_5  and  C_8
REMARK    8  A    between atoms: C_8  and  N_9
REMARK    9  A    between atoms: N_12  and  C_13
REMARK   10  A    between atoms: C_13  and  C_14
REMARK   11  A    between atoms: C_18  and  N_19
REMARK                            x       y       z     vdW  Elec       q    Type
REMARK                         _______ _______ _______ _____ _____    ______ ____
ROOT
ATOM      1  N   UNL     1       4.582   4.623  18.543  0.00  0.00    +0.000 N 
ATOM      2  C   UNL     1       3.293   4.925  18.887  0.00  0.00    +0.000 C 
ATOM      3  O   UNL     1       2.309   4.540  18.271  0.00  0.00    +0.000 OA
ATOM      4  N   UNL     1       3.236   5.652  20.045  0.00  0.00    +0.000 N 
ATOM      5  H   UNL     1       5.311   5.157  18.983  0.00  0.00    +0.000 HD
ATOM      6  H   UNL     1       4.041   6.192  20.306  0.00  0.00    +0.000 HD
ENDROOT
BRANCH   1   7
ATOM      7  C   UNL     1       4.897   3.857  17.348  0.00  0.00    +0.000 C 
BRANCH   7   8
ATOM      8  C   UNL     1       5.811   4.616  16.344  0.00  0.00    +0.000 C 
ATOM      9  C   UNL     1       5.050   5.875  15.882  0.00  0.00    +0.000 C 
ATOM     10  C   UNL     1       6.049   3.713  15.119  0.00  0.00    +0.000 C 
BRANCH   8  11
ATOM     11  C   UNL     1       7.143   5.023  17.050  0.00  0.00    +0.000 C 
BRANCH  11  13
ATOM     12  C   UNL     1       8.020   6.556  18.862  0.00  0.00    +0.000 C 
ATOM     13  C   UNL     1       7.273   6.480  17.534  0.00  0.00    +0.000 C 
BRANCH  13  14
ATOM     14  O   UNL     1       7.991   7.272  16.597  0.00  0.00    +0.000 OA
ATOM     15  H   UNL     1       7.809   8.208  16.785  0.00  0.00    +0.000 HD
ENDBRANCH  13  14
ENDBRANCH  11  13
ENDBRANCH   8  11
ENDBRANCH   7   8
ENDBRANCH   1   7
BRANCH   4  16
ATOM     16  C   UNL     1       1.963   6.057  20.594  0.00  0.00    +0.000 C 
BRANCH  16  17
ATOM     17  C   UNL     1       1.638   7.475  20.196  0.00  0.00    +0.000 A 
ATOM     18  C   UNL     1       1.997   7.942  18.925  0.00  0.00    +0.000 A 
ATOM     19  C   UNL     1       1.701   9.248  18.537  0.00  0.00    +0.000 A 
ATOM     20  C   UNL     1       1.036  10.108  19.414  0.00  0.00    +0.000 A 
ATOM     21  C   UNL     1       0.664   9.657  20.688  0.00  0.00    +0.000 A 
ATOM     22  C   UNL     1       0.957   8.336  21.070  0.00  0.00    +0.000 A 
BRANCH  21  23
ATOM     23  N   UNL     1       0.016  10.526  21.606  0.00  0.00    +0.000 N 
ATOM     24  C   UNL     1      -0.577  10.226  22.809  0.00  0.00    +0.000 A 
ATOM     25  N   UNL     1      -1.108  11.302  23.345  0.00  0.00    +0.000 NA
ATOM     26  C   UNL     1      -0.813  12.265  22.430  0.00  0.00    +0.000 A 
ATOM     27  N   UNL     1      -0.118  11.857  21.367  0.00  0.00    +0.000 NA
ENDBRANCH  21  23
ENDBRANCH  16  17
ENDBRANCH   4  16
TORSDOF 8
ENDMDL
MODEL 6
REMARK VINA RESULT:      -7.0      5.316      8.743
REMARK  Name = 
REMARK  11 active torsions:
REMARK  status: ('A' for Active; 'I' for Inactive)
REMARK    1  A    between atoms: C_1  and  C_2
REMARK    2  A    between atoms: C_2  and  O_3
REMARK    3  A    between atoms: C_2  and  C_4
REMARK    4  A    between atoms: C_4  and  C_5
REMARK    5  A    between atoms: C_5  and  C_6
REMARK    6  A    between atoms: C_5  and  C_7
REMARK    7  A    between atoms: C_5  and  C_8
REMARK    8  A    between atoms: C_8  and  N_9
REMARK    9  A    between atoms: N_12  and  C_13
REMARK   10  A    between atoms: C_13  and  C_14
REMARK   11  A    between atoms: C_18  and  N_19
REMARK                            x       y       z     vdW  Elec       q    Type
REMARK                         _______ _______ _______ _____ _____    ______ ____
ROOT
ATOM      1  N   UNL     1       8.258   9.221  17.946  0.00  0.00    +0.000 N 
ATOM      2  C   UNL     1       8.000   7.877  17.929  0.00  0.00    +0.000 C 
ATOM      3  O   UNL     1       8.359   7.098  18.802  0.00  0.00    +0.000 OA
ATOM      4  N   UNL     1       7.232   7.523  16.853  0.00  0.00    +0.000 N 
ATOM      5  H   UNL     1       8.107   9.727  17.090  0.00  0.00    +0.000 HD
ATOM      6  H   UNL     1       7.251   8.113  16.042  0.00  0.00    +0.000 HD
ENDROOT
BRANCH   1   7
ATOM      7  C   UNL     1       9.057   9.835  18.994  0.00  0.00    +0.000 C 
BRANCH   7   8
ATOM      8  C   UNL     1       9.546  11.270  18.643  0.00  0.00    +0.000 C 
ATOM      9  C   UNL     1       8.425  11.961  17.841  0.00  0.00    +0.000 C 
ATOM     10  C   UNL     1      10.791  11.155  17.742  0.00  0.00    +0.000 C 
BRANCH   8  11
ATOM     11  C   UNL     1       9.834  12.063  19.957  0.00  0.00    +0.000 C 
BRANCH  11  13
ATOM     12  C   UNL     1       9.622  14.409  20.880  0.00  0.00    +0.000 C 
ATOM     13  C   UNL     1      10.275  13.532  19.816  0.00  0.00    +0.000 C 
BRANCH  13  14
ATOM     14  O   UNL     1      11.683  13.663  19.964  0.00  0.00    +0.000 OA
ATOM     15  H   UNL     1      11.939  14.555  19.675  0.00  0.00    +0.000 HD
ENDBRANCH  13  14
ENDBRANCH  11  13
ENDBRANCH   8  11
ENDBRANCH   7   8
ENDBRANCH   1   7
BRANCH   4  16
ATOM     16  C   UNL     1       6.829   6.149  16.661  0.00  0.00    +0.000 C 
BRANCH  16  17
ATOM     17  C   UNL     1       5.405   5.943  17.112  0.00  0.00    +0.000 A 
ATOM     18  C   UNL     1       4.868   4.649  17.152  0.00  0.00    +0.000 A 
ATOM     19  C   UNL     1       3.555   4.438  17.571  0.00  0.00    +0.000 A 
ATOM     20  C   UNL     1       2.759   5.517  17.962  0.00  0.00    +0.000 A 
ATOM     21  C   UNL     1       3.281   6.818  17.935  0.00  0.00    +0.000 A 
ATOM     22  C   UNL     1       4.609   7.024  17.520  0.00  0.00    +0.000 A 
BRANCH  21  23
ATOM     23  N   UNL     1       2.478   7.931  18.297  0.00  0.00    +0.000 N 
ATOM     24  C   UNL     1       1.871   8.204  19.500  0.00  0.00    +0.000 A 
ATOM     25  N   UNL     1       1.175   9.316  19.426  0.00  0.00    +0.000 NA
ATOM     26  C   UNL     1       1.384   9.711  18.141  0.00  0.00    +0.000 A 
ATOM     27  N   UNL     1       2.179   8.922  17.418  0.00  0.00    +0.000 NA
ENDBRANCH  21  23
ENDBRANCH  16  17
ENDBRANCH   4  16
TORSDOF 8
ENDMDL
MODEL 7
REMARK VINA RESULT:      -7.0      5.083      8.350
REMARK  Name = 
REMARK  11 active torsions:
REMARK  status: ('A' for Active; 'I' for Inactive)
REMARK    1  A    between atoms: C_1  and  C_2
REMARK    2  A    between atoms: C_2  and  O_3
REMARK    3  A    between atoms: C_2  and  C_4
REMARK    4  A    between atoms: C_4  and  C_5
REMARK    5  A    between atoms: C_5  and  C_6
REMARK    6  A    between atoms: C_5  and  C_7
REMARK    7  A    between atoms: C_5  and  C_8
REMARK    8  A    between atoms: C_8  and  N_9
REMARK    9  A    between atoms: N_12  and  C_13
REMARK   10  A    between atoms: C_13  and  C_14
REMARK   11  A    between atoms: C_18  and  N_19
REMARK                            x       y       z     vdW  Elec       q    Type
REMARK                         _______ _______ _______ _____ _____    ______ ____
ROOT
ATOM      1  N   UNL     1       8.308   9.295  18.001  0.00  0.00    +0.000 N 
ATOM      2  C   UNL     1       7.938   7.978  17.968  0.00  0.00    +0.000 C 
ATOM      3  O   UNL     1       8.311   7.139  18.776  0.00  0.00    +0.000 OA
ATOM      4  N   UNL     1       7.042   7.730  16.964  0.00  0.00    +0.000 N 
ATOM      5  H   UNL     1       8.119   9.844  17.180  0.00  0.00    +0.000 HD
ATOM      6  H   UNL     1       7.033   8.348  16.173  0.00  0.00    +0.000 HD
ENDROOT
BRANCH   1   7
ATOM      7  C   UNL     1       9.253   9.801  18.983  0.00  0.00    +0.000 C 
BRANCH   7   8
ATOM      8  C   UNL     1       9.697  11.269  18.721  0.00  0.00    +0.000 C 
ATOM      9  C   UNL     1       8.521  11.996  18.038  0.00  0.00    +0.000 C 
ATOM     10  C   UNL     1      10.891  11.252  17.747  0.00  0.00    +0.000 C 
BRANCH   8  11
ATOM     11  C   UNL     1      10.044  11.963  20.075  0.00  0.00    +0.000 C 
BRANCH  11  13
ATOM     12  C   UNL     1       8.454  12.753  21.878  0.00  0.00    +0.000 C 
ATOM     13  C   UNL     1       9.117  13.099  20.548  0.00  0.00    +0.000 C 
BRANCH  13  14
ATOM     14  O   UNL     1       9.839  14.309  20.736  0.00  0.00    +0.000 OA
ATOM     15  H   UNL     1       9.212  15.000  21.006  0.00  0.00    +0.000 HD
ENDBRANCH  13  14
ENDBRANCH  11  13
ENDBRANCH   8  11
ENDBRANCH   7   8
ENDBRANCH   1   7
BRANCH   4  16
ATOM     16  C   UNL     1       6.507   6.402  16.770  0.00  0.00    +0.000 C 
BRANCH  16  17
ATOM     17  C   UNL     1       5.084   6.323  17.262  0.00  0.00    +0.000 A 
ATOM     18  C   UNL     1       4.325   7.494  17.390  0.00  0.00    +0.000 A 
ATOM     19  C   UNL     1       3.006   7.440  17.839  0.00  0.00    +0.000 A 
ATOM     20  C   UNL     1       2.423   6.213  18.163  0.00  0.00    +0.000 A 
ATOM     21  C   UNL     1       3.165   5.030  18.036  0.00  0.00    +0.000 A 
ATOM     22  C   UNL     1       4.492   5.090  17.574  0.00  0.00    +0.000 A 
BRANCH  21  23
ATOM     23  N   UNL     1       2.601   3.777  18.391  0.00  0.00    +0.000 N 
ATOM     24  C   UNL     1       3.238   2.605  18.726  0.00  0.00    +0.000 A 
ATOM     25  N   UNL     1       2.365   1.650  18.949  0.00  0.00    +0.000 NA
ATOM     26  C   UNL     1       1.177   2.281  18.745  0.00  0.00    +0.000 A 
ATOM     27  N   UNL     1       1.258   3.573  18.424  0.00  0.00    +0.000 NA
ENDBRANCH  21  23
ENDBRANCH  16  17
ENDBRANCH   4  16
TORSDOF 8
ENDMDL
MODEL 8
REMARK VINA RESULT:      -7.0      4.142      7.162
REMARK  Name = 
REMARK  11 active torsions:
REMARK  status: ('A' for Active; 'I' for Inactive)
REMARK    1  A    between atoms: C_1  and  C_2
REMARK    2  A    between atoms: C_2  and  O_3
REMARK    3  A    between atoms: C_2  and  C_4
REMARK    4  A    between atoms: C_4  and  C_5
REMARK    5  A    between atoms: C_5  and  C_6
REMARK    6  A    between atoms: C_5  and  C_7
REMARK    7  A    between atoms: C_5  and  C_8
REMARK    8  A    between atoms: C_8  and  N_9
REMARK    9  A    between atoms: N_12  and  C_13
REMARK   10  A    between atoms: C_13  and  C_14
REMARK   11  A    between atoms: C_18  and  N_19
REMARK                            x       y       z     vdW  Elec       q    Type
REMARK                         _______ _______ _______ _____ _____    ______ ____
ROOT
ATOM      1  N   UNL     1       0.571   9.679  18.694  0.00  0.00    +0.000 N 
ATOM      2  C   UNL     1       1.762   9.490  18.049  0.00  0.00    +0.000 C 
ATOM      3  O   UNL     1       2.440  10.393  17.579  0.00  0.00    +0.000 OA
ATOM      4  N   UNL     1       2.138   8.173  18.055  0.00  0.00    +0.000 N 
ATOM      5  H   UNL     1       0.000   8.865  18.849  0.00  0.00    +0.000 HD
ATOM      6  H   UNL     1       1.422   7.476  18.152  0.00  0.00    +0.000 HD
ENDROOT
BRANCH   1   7
ATOM      7  C   UNL     1      -0.033  10.995  18.817  0.00  0.00    +0.000 C 
BRANCH   7   8
ATOM      8  C   UNL     1       0.098  11.609  20.241  0.00  0.00    +0.000 C 
ATOM      9  C   UNL     1      -1.317  11.998  20.712  0.00  0.00    +0.000 C 
ATOM     10  C   UNL     1       0.949  12.891  20.143  0.00  0.00    +0.000 C 
BRANCH   8  11
ATOM     11  C   UNL     1       0.718  10.557  21.213  0.00  0.00    +0.000 C 
BRANCH  11  13
ATOM     12  C   UNL     1      -0.471   8.435  21.908  0.00  0.00    +0.000 C 
ATOM     13  C   UNL     1      -0.222   9.902  22.243  0.00  0.00    +0.000 C 
BRANCH  13  14
ATOM     14  O   UNL     1       0.333   9.950  23.551  0.00  0.00    +0.000 OA
ATOM     15  H   UNL     1       1.166   9.450  23.548  0.00  0.00    +0.000 HD
ENDBRANCH  13  14
ENDBRANCH  11  13
ENDBRANCH   8  11
ENDBRANCH   7   8
ENDBRANCH   1   7
BRANCH   4  16
ATOM     16  C   UNL     1       3.379   7.762  17.442  0.00  0.00    +0.000 C 
BRANCH  16  17
ATOM     17  C   UNL     1       3.649   6.303  17.711  0.00  0.00    +0.000 A 
ATOM     18  C   UNL     1       4.526   5.592  16.881  0.00  0.00    +0.000 A 
ATOM     19  C   UNL     1       4.791   4.243  17.117  0.00  0.00    +0.000 A 
ATOM     20  C   UNL     1       4.188   3.586  18.192  0.00  0.00    +0.000 A 
ATOM     21  C   UNL     1       3.313   4.282  19.037  0.00  0.00    +0.000 A 
ATOM     22  C   UNL     1       3.056   5.644  18.799  0.00  0.00    +0.000 A 
BRANCH  21  23
ATOM     23  N   UNL     1       2.665   3.623  20.115  0.00  0.00    +0.000 N 
ATOM     24  C   UNL     1       3.197   2.766  21.049  0.00  0.00    +0.000 A 
ATOM     25  N   UNL     1       2.261   2.328  21.861  0.00  0.00    +0.000 NA
ATOM     26  C   UNL     1       1.146   2.952  21.393  0.00  0.00    +0.000 A 
ATOM     27  N   UNL     1       1.335   3.762  20.349  0.00  0.00    +0.000 NA
ENDBRANCH  21  23
ENDBRANCH  16  17
ENDBRANCH   4  16
TORSDOF 8
ENDMDL
MODEL 9
REMARK VINA RESULT:      -7.0      3.621      8.130
REMARK  Name = 
REMARK  11 active torsions:
REMARK  status: ('A' for Active; 'I' for Inactive)
REMARK    1  A    between atoms: C_1  and  C_2
REMARK    2  A    between atoms: C_2  and  O_3
REMARK    3  A    between atoms: C_2  and  C_4
REMARK    4  A    between atoms: C_4  and  C_5
REMARK    5  A    between atoms: C_5  and  C_6
REMARK    6  A    between atoms: C_5  and  C_7
REMARK    7  A    between atoms: C_5  and  C_8
REMARK    8  A    between atoms: C_8  and  N_9
REMARK    9  A    between atoms: N_12  and  C_13
REMARK   10  A    between atoms: C_13  and  C_14
REMARK   11  A    between atoms: C_18  and  N_19
REMARK                            x       y       z     vdW  Elec       q    Type
REMARK                         _______ _______ _______ _____ _____    ______ ____
ROOT
ATOM      1  N   UNL     1       4.863   4.331  17.895  0.00  0.00    +0.000 N 
ATOM      2  C   UNL     1       4.442   4.991  19.017  0.00  0.00    +0.000 C 
ATOM      3  O   UNL     1       5.169   5.672  19.727  0.00  0.00    +0.000 OA
ATOM      4  N   UNL     1       3.093   4.854  19.209  0.00  0.00    +0.000 N 
ATOM      5  H   UNL     1       4.243   3.638  17.512  0.00  0.00    +0.000 HD
ATOM      6  H   UNL     1       2.636   4.056  18.808  0.00  0.00    +0.000 HD
ENDROOT
BRANCH   1   7
ATOM      7  C   UNL     1       6.257   4.331  17.484  0.00  0.00    +0.000 C 
BRANCH   7   8
ATOM      8  C   UNL     1       6.599   5.437  16.443  0.00  0.00    +0.000 C 
ATOM      9  C   UNL     1       7.427   6.517  17.168  0.00  0.00    +0.000 C 
ATOM     10  C   UNL     1       5.283   6.075  15.959  0.00  0.00    +0.000 C 
BRANCH   8  11
ATOM     11  C   UNL     1       7.427   4.820  15.273  0.00  0.00    +0.000 C 
BRANCH  11  13
ATOM     12  C   UNL     1       7.736   5.088  12.777  0.00  0.00    +0.000 C 
ATOM     13  C   UNL     1       6.753   4.742  13.890  0.00  0.00    +0.000 C 
BRANCH  13  14
ATOM     14  O   UNL     1       6.259   3.435  13.630  0.00  0.00    +0.000 OA
ATOM     15  H   UNL     1       5.793   3.121  14.422  0.00  0.00    +0.000 HD
ENDBRANCH  13  14
ENDBRANCH  11  13
ENDBRANCH   8  11
ENDBRANCH   7   8
ENDBRANCH   1   7
BRANCH   4  16
ATOM     16  C   UNL     1       2.444   5.493  20.329  0.00  0.00    +0.000 C 
BRANCH  16  17
ATOM     17  C   UNL     1       2.015   6.894  19.970  0.00  0.00    +0.000 A 
ATOM     18  C   UNL     1       2.254   7.386  18.679  0.00  0.00    +0.000 A 
ATOM     19  C   UNL     1       1.861   8.676  18.327  0.00  0.00    +0.000 A 
ATOM     20  C   UNL     1       1.218   9.495  19.258  0.00  0.00    +0.000 A 
ATOM     21  C   UNL     1       0.965   9.018  20.552  0.00  0.00    +0.000 A 
ATOM     22  C   UNL     1       1.356   7.712  20.899  0.00  0.00    +0.000 A 
BRANCH  21  23
ATOM     23  N   UNL     1       0.342   9.846  21.523  0.00  0.00    +0.000 N 
ATOM     24  C   UNL     1       0.012   9.553  22.825  0.00  0.00    +0.000 A 
ATOM     25  N   UNL     1      -0.595  10.573  23.389  0.00  0.00    +0.000 NA
ATOM     26  C   UNL     1      -0.616  11.496  22.390  0.00  0.00    +0.000 A 
ATOM     27  N   UNL     1      -0.047  11.117  21.244  0.00  0.00    +0.000 NA
ENDBRANCH  21  23
ENDBRANCH  16  17
ENDBRANCH   4  16
TORSDOF 8
ENDMDL
