MODEL 1
REMARK VINA RESULT:      -8.1      0.000      0.000
REMARK  Name = 
REMARK  8 active torsions:
REMARK  status: ('A' for Active; 'I' for Inactive)
REMARK    1  A    between atoms: N_8  and  C_9
REMARK    2  A    between atoms: C_9  and  C_10
REMARK    3  A    between atoms: C_10  and  C_11
REMARK    4  A    between atoms: C_11  and  C_12
REMARK    5  A    between atoms: C_12  and  N_13
REMARK    6  A    between atoms: N_13  and  C_14
REMARK    7  A    between atoms: C_16  and  C_17
REMARK    8  A    between atoms: C_26  and  C_27
REMARK                            x       y       z     vdW  Elec       q    Type
REMARK                         _______ _______ _______ _____ _____    ______ ____
ROOT
ATOM      1  C   UNL     1       4.106   5.251  17.574  0.00  0.00    +0.000 A 
ATOM      2  N   UNL     1       4.911   5.331  16.483  0.00  0.00    +0.000 NA
ATOM      3  C   UNL     1       5.328   4.249  15.793  0.00  0.00    +0.000 A 
ATOM      4  N   UNL     1       4.962   3.020  16.213  0.00  0.00    +0.000 NA
ATOM      5  C   UNL     1       4.193   2.832  17.310  0.00  0.00    +0.000 A 
ATOM      6 CL   UNL     1       3.774   1.149  17.625  0.00  0.00    +0.000 Cl
ATOM      7  C   UNL     1       3.704   3.951  18.059  0.00  0.00    +0.000 A 
ENDROOT
BRANCH   3   8
ATOM      8  C   UNL     1       6.115   4.414  14.550  0.00  0.00    +0.000 A 
ATOM      9  C   UNL     1       7.177   5.337  14.497  0.00  0.00    +0.000 A 
ATOM     10  C   UNL     1       7.904   5.510  13.317  0.00  0.00    +0.000 A 
ATOM     11  C   UNL     1       7.581   4.767  12.179  0.00  0.00    +0.000 A 
ATOM     12  C   UNL     1       6.528   3.851  12.218  0.00  0.00    +0.000 A 
ATOM     13  C   UNL     1       5.797   3.672  13.396  0.00  0.00    +0.000 A 
ENDBRANCH   3   8
BRANCH   7  14
ATOM     14  C   UNL     1       2.860   3.717  19.303  0.00  0.00    +0.000 A 
ATOM     15  C   UNL     1       3.417   3.062  20.433  0.00  0.00    +0.000 A 
ATOM     16  C   UNL     1       2.661   2.817  21.584  0.00  0.00    +0.000 A 
ATOM     17  C   UNL     1       1.337   3.238  21.653  0.00  0.00    +0.000 A 
ATOM     18  C   UNL     1       0.767   3.893  20.567  0.00  0.00    +0.000 A 
ATOM     19  C   UNL     1       1.508   4.116  19.405  0.00  0.00    +0.000 A 
ENDBRANCH   7  14
BRANCH   1  20
ATOM     20  N   UNL     1       3.712   6.493  18.157  0.00  0.00    +0.000 N 
ATOM     21  H   UNL     1       4.207   6.893  18.947  0.00  0.00    +0.000 HD
BRANCH  20  22
ATOM     22  C   UNL     1       2.475   7.167  17.811  0.00  0.00    +0.000 C 
BRANCH  22  23
ATOM     23  C   UNL     1       2.714   8.690  17.789  0.00  0.00    +0.000 C 
BRANCH  23  24
ATOM     24  C   UNL     1       1.426   9.525  17.844  0.00  0.00    +0.000 C 
BRANCH  24  25
ATOM     25  C   UNL     1       0.697   9.405  19.198  0.00  0.00    +0.000 C 
BRANCH  25  33
ATOM     26  O   UNL     1      -0.174   8.886  21.993  0.00  0.00    +0.000 OA
ATOM     27  N   UNL     1       0.009  10.036  22.243  0.00  0.00    +0.000 N 
ATOM     28  O   UNL     1      -0.277  10.484  23.447  0.00  0.00    +0.000 OA
ATOM     29  C   UNL     1       0.525  10.941  21.267  0.00  0.00    +0.000 A 
ATOM     30  N   UNL     1       0.758  12.239  21.565  0.00  0.00    +0.000 NA
ATOM     31  C   UNL     1       1.213  12.780  20.418  0.00  0.00    +0.000 A 
ATOM     32  C   UNL     1       1.239  11.818  19.441  0.00  0.00    +0.000 A 
ATOM     33  N   UNL     1       0.812  10.653  19.966  0.00  0.00    +0.000 N 
ENDBRANCH  25  33
ENDBRANCH  24  25
ENDBRANCH  23  24
ENDBRANCH  22  23
ENDBRANCH  20  22
ENDBRANCH   1  20
TORSDOF 8
ENDMDL
MODEL 2
REMARK VINA RESULT:      -8.1      0.472      1.296
REMARK  Name = 
REMARK  8 active torsions:
REMARK  status: ('A' for Active; 'I' for Inactive)
REMARK    1  A    between atoms: N_8  and  C_9
REMARK    2  A    between atoms: C_9  and  C_10
REMARK    3  A    between atoms: C_10  and  C_11
REMARK    4  A    between atoms: C_11  and  C_12
REMARK    5  A    between atoms: C_12  and  N_13
REMARK    6  A    between atoms: N_13  and  C_14
REMARK    7  A    between atoms: C_16  and  C_17
REMARK    8  A    between atoms: C_26  and  C_27
REMARK                            x       y       z     vdW  Elec       q    Type
REMARK                         _______ _______ _______ _____ _____    ______ ____
ROOT
ATOM      1  C   UNL     1       4.165   5.266  17.544  0.00  0.00    +0.000 A 
ATOM      2  N   UNL     1       4.945   5.344  16.435  0.00  0.00    +0.000 NA
ATOM      3  C   UNL     1       5.349   4.262  15.738  0.00  0.00    +0.000 A 
ATOM      4  N   UNL     1       4.995   3.034  16.169  0.00  0.00    +0.000 NA
ATOM      5  C   UNL     1       4.253   2.846  17.284  0.00  0.00    +0.000 A 
ATOM      6 CL   UNL     1       3.845   1.163  17.613  0.00  0.00    +0.000 Cl
ATOM      7  C   UNL     1       3.778   3.966  18.041  0.00  0.00    +0.000 A 
ENDROOT
BRANCH   3   8
ATOM      8  C   UNL     1       6.107   4.425  14.477  0.00  0.00    +0.000 A 
ATOM      9  C   UNL     1       5.740   3.700  13.327  0.00  0.00    +0.000 A 
ATOM     10  C   UNL     1       6.470   3.835  12.144  0.00  0.00    +0.000 A 
ATOM     11  C   UNL     1       7.571   4.693  12.094  0.00  0.00    +0.000 A 
ATOM     12  C   UNL     1       7.947   5.415  13.229  0.00  0.00    +0.000 A 
ATOM     13  C   UNL     1       7.221   5.285  14.415  0.00  0.00    +0.000 A 
ENDBRANCH   3   8
BRANCH   7  14
ATOM     14  C   UNL     1       2.963   3.734  19.304  0.00  0.00    +0.000 A 
ATOM     15  C   UNL     1       1.628   4.208  19.393  0.00  0.00    +0.000 A 
ATOM     16  C   UNL     1       0.861   4.027  20.548  0.00  0.00    +0.000 A 
ATOM     17  C   UNL     1       1.390   3.345  21.638  0.00  0.00    +0.000 A 
ATOM     18  C   UNL     1       2.691   2.857  21.578  0.00  0.00    +0.000 A 
ATOM     19  C   UNL     1       3.471   3.059  20.438  0.00  0.00    +0.000 A 
ENDBRANCH   7  14
BRANCH   1  20
ATOM     20  N   UNL     1       3.781   6.508  18.132  0.00  0.00    +0.000 N 
ATOM     21  H   UNL     1       3.658   6.609  19.134  0.00  0.00    +0.000 HD
BRANCH  20  22
ATOM     22  C   UNL     1       3.342   7.647  17.349  0.00  0.00    +0.000 C 
BRANCH  22  23
ATOM     23  C   UNL     1       1.947   8.092  17.832  0.00  0.00    +0.000 C 
BRANCH  23  24
ATOM     24  C   UNL     1       1.878   9.561  18.274  0.00  0.00    +0.000 C 
BRANCH  24  25
ATOM     25  C   UNL     1       0.457   9.994  18.685  0.00  0.00    +0.000 C 
BRANCH  25  33
ATOM     26  O   UNL     1       0.466   8.803  21.409  0.00  0.00    +0.000 OA
ATOM     27  N   UNL     1       0.466   9.902  21.868  0.00  0.00    +0.000 N 
ATOM     28  O   UNL     1       0.416  10.051  23.175  0.00  0.00    +0.000 OA
ATOM     29  C   UNL     1       0.513  11.060  21.036  0.00  0.00    +0.000 A 
ATOM     30  N   UNL     1       0.541  12.305  21.564  0.00  0.00    +0.000 NA
ATOM     31  C   UNL     1       0.562  13.131  20.500  0.00  0.00    +0.000 A 
ATOM     32  C   UNL     1       0.533  12.388  19.348  0.00  0.00    +0.000 A 
ATOM     33  N   UNL     1       0.506  11.080  19.674  0.00  0.00    +0.000 N 
ENDBRANCH  25  33
ENDBRANCH  24  25
ENDBRANCH  23  24
ENDBRANCH  22  23
ENDBRANCH  20  22
ENDBRANCH   1  20
TORSDOF 8
ENDMDL
MODEL 3
REMARK VINA RESULT:      -8.0      0.813      1.174
REMARK  Name = 
REMARK  8 active torsions:
REMARK  status: ('A' for Active; 'I' for Inactive)
REMARK    1  A    between atoms: N_8  and  C_9
REMARK    2  A    between atoms: C_9  and  C_10
REMARK    3  A    between atoms: C_10  and  C_11
REMARK    4  A    between atoms: C_11  and  C_12
REMARK    5  A    between atoms: C_12  and  N_13
REMARK    6  A    between atoms: N_13  and  C_14
REMARK    7  A    between atoms: C_16  and  C_17
REMARK    8  A    between atoms: C_26  and  C_27
REMARK                            x       y       z     vdW  Elec       q    Type
REMARK                         _______ _______ _______ _____ _____    ______ ____
ROOT
ATOM      1  C   UNL     1       4.123   5.169  17.635  0.00  0.00    +0.000 A 
ATOM      2  N   UNL     1       4.923   5.271  16.542  0.00  0.00    +0.000 NA
ATOM      3  C   UNL     1       5.352   4.203  15.839  0.00  0.00    +0.000 A 
ATOM      4  N   UNL     1       5.005   2.965  16.247  0.00  0.00    +0.000 NA
ATOM      5  C   UNL     1       4.244   2.754  17.345  0.00  0.00    +0.000 A 
ATOM      6 CL   UNL     1       3.849   1.063  17.645  0.00  0.00    +0.000 Cl
ATOM      7  C   UNL     1       3.742   3.859  18.107  0.00  0.00    +0.000 A 
ENDROOT
BRANCH   3   8
ATOM      8  C   UNL     1       6.132   4.391  14.595  0.00  0.00    +0.000 A 
ATOM      9  C   UNL     1       7.211   5.295  14.561  0.00  0.00    +0.000 A 
ATOM     10  C   UNL     1       7.932   5.491  13.380  0.00  0.00    +0.000 A 
ATOM     11  C   UNL     1       7.585   4.790  12.223  0.00  0.00    +0.000 A 
ATOM     12  C   UNL     1       6.514   3.894  12.243  0.00  0.00    +0.000 A 
ATOM     13  C   UNL     1       5.790   3.692  13.421  0.00  0.00    +0.000 A 
ENDBRANCH   3   8
BRANCH   7  14
ATOM     14  C   UNL     1       2.906   3.601  19.353  0.00  0.00    +0.000 A 
ATOM     15  C   UNL     1       1.514   3.881  19.352  0.00  0.00    +0.000 A 
ATOM     16  C   UNL     1       0.724   3.672  20.486  0.00  0.00    +0.000 A 
ATOM     17  C   UNL     1       1.290   3.154  21.646  0.00  0.00    +0.000 A 
ATOM     18  C   UNL     1       2.647   2.857  21.675  0.00  0.00    +0.000 A 
ATOM     19  C   UNL     1       3.447   3.089  20.554  0.00  0.00    +0.000 A 
ENDBRANCH   7  14
BRANCH   1  20
ATOM     20  N   UNL     1       3.714   6.399  18.232  0.00  0.00    +0.000 N 
ATOM     21  H   UNL     1       4.235   6.822  18.993  0.00  0.00    +0.000 HD
BRANCH  20  22
ATOM     22  C   UNL     1       2.437   7.025  17.948  0.00  0.00    +0.000 C 
BRANCH  22  23
ATOM     23  C   UNL     1       2.674   8.467  17.455  0.00  0.00    +0.000 C 
BRANCH  23  24
ATOM     24  C   UNL     1       1.742   9.507  18.096  0.00  0.00    +0.000 C 
BRANCH  24  25
ATOM     25  C   UNL     1       1.273   9.097  19.506  0.00  0.00    +0.000 C 
BRANCH  25  33
ATOM     26  O   UNL     1       1.278   8.936  22.475  0.00  0.00    +0.000 OA
ATOM     27  N   UNL     1       0.411   9.752  22.501  0.00  0.00    +0.000 N 
ATOM     28  O   UNL     1      -0.105  10.103  23.660  0.00  0.00    +0.000 OA
ATOM     29  C   UNL     1      -0.087  10.354  21.306  0.00  0.00    +0.000 A 
ATOM     30  N   UNL     1      -1.052  11.300  21.345  0.00  0.00    +0.000 NA
ATOM     31  C   UNL     1      -1.278  11.615  20.054  0.00  0.00    +0.000 A 
ATOM     32  C   UNL     1      -0.466  10.854  19.253  0.00  0.00    +0.000 A 
ATOM     33  N   UNL     1       0.293  10.059  20.031  0.00  0.00    +0.000 N 
ENDBRANCH  25  33
ENDBRANCH  24  25
ENDBRANCH  23  24
ENDBRANCH  22  23
ENDBRANCH  20  22
ENDBRANCH   1  20
TORSDOF 8
ENDMDL
MODEL 4
REMARK VINA RESULT:      -8.0      1.177      1.589
REMARK  Name = 
REMARK  8 active torsions:
REMARK  status: ('A' for Active; 'I' for Inactive)
REMARK    1  A    between atoms: N_8  and  C_9
REMARK    2  A    between atoms: C_9  and  C_10
REMARK    3  A    between atoms: C_10  and  C_11
REMARK    4  A    between atoms: C_11  and  C_12
REMARK    5  A    between atoms: C_12  and  N_13
REMARK    6  A    between atoms: N_13  and  C_14
REMARK    7  A    between atoms: C_16  and  C_17
REMARK    8  A    between atoms: C_26  and  C_27
REMARK                            x       y       z     vdW  Elec       q    Type
REMARK                         _______ _______ _______ _____ _____    ______ ____
ROOT
ATOM      1  C   UNL     1       4.118   5.261  17.564  0.00  0.00    +0.000 A 
ATOM      2  N   UNL     1       4.915   5.327  16.466  0.00  0.00    +0.000 NA
ATOM      3  C   UNL     1       5.328   4.236  15.788  0.00  0.00    +0.000 A 
ATOM      4  N   UNL     1       4.966   3.013  16.227  0.00  0.00    +0.000 NA
ATOM      5  C   UNL     1       4.206   2.839  17.332  0.00  0.00    +0.000 A 
ATOM      6 CL   UNL     1       3.791   1.160  17.673  0.00  0.00    +0.000 Cl
ATOM      7  C   UNL     1       3.721   3.968  18.069  0.00  0.00    +0.000 A 
ENDROOT
BRANCH   3   8
ATOM      8  C   UNL     1       6.105   4.384  14.537  0.00  0.00    +0.000 A 
ATOM      9  C   UNL     1       7.170   5.303  14.465  0.00  0.00    +0.000 A 
ATOM     10  C   UNL     1       7.888   5.461  13.277  0.00  0.00    +0.000 A 
ATOM     11  C   UNL     1       7.553   4.707  12.151  0.00  0.00    +0.000 A 
ATOM     12  C   UNL     1       6.497   3.795  12.208  0.00  0.00    +0.000 A 
ATOM     13  C   UNL     1       5.775   3.632  13.394  0.00  0.00    +0.000 A 
ENDBRANCH   3   8
BRANCH   7  14
ATOM     14  C   UNL     1       2.887   3.751  19.323  0.00  0.00    +0.000 A 
ATOM     15  C   UNL     1       3.422   3.032  20.424  0.00  0.00    +0.000 A 
ATOM     16  C   UNL     1       2.673   2.800  21.582  0.00  0.00    +0.000 A 
ATOM     17  C   UNL     1       1.379   3.298  21.688  0.00  0.00    +0.000 A 
ATOM     18  C   UNL     1       0.831   4.017  20.632  0.00  0.00    +0.000 A 
ATOM     19  C   UNL     1       1.564   4.228  19.462  0.00  0.00    +0.000 A 
ENDBRANCH   7  14
BRANCH   1  20
ATOM     20  N   UNL     1       3.727   6.511  18.132  0.00  0.00    +0.000 N 
ATOM     21  H   UNL     1       3.475   6.596  19.111  0.00  0.00    +0.000 HD
BRANCH  20  22
ATOM     22  C   UNL     1       3.463   7.691  17.332  0.00  0.00    +0.000 C 
BRANCH  22  23
ATOM     23  C   UNL     1       2.058   8.231  17.667  0.00  0.00    +0.000 C 
BRANCH  23  24
ATOM     24  C   UNL     1       1.834   8.505  19.162  0.00  0.00    +0.000 C 
BRANCH  24  25
ATOM     25  C   UNL     1       1.009   9.781  19.417  0.00  0.00    +0.000 C 
BRANCH  25  33
ATOM     26  O   UNL     1       0.630  12.639  20.147  0.00  0.00    +0.000 OA
ATOM     27  N   UNL     1       0.357  12.299  21.255  0.00  0.00    +0.000 N 
ATOM     28  O   UNL     1       0.111  13.218  22.165  0.00  0.00    +0.000 OA
ATOM     29  C   UNL     1       0.296  10.921  21.622  0.00  0.00    +0.000 A 
ATOM     30  N   UNL     1      -0.043  10.541  22.875  0.00  0.00    +0.000 NA
ATOM     31  C   UNL     1       0.024   9.195  22.857  0.00  0.00    +0.000 A 
ATOM     32  C   UNL     1       0.410   8.776  21.610  0.00  0.00    +0.000 A 
ATOM     33  N   UNL     1       0.581   9.856  20.821  0.00  0.00    +0.000 N 
ENDBRANCH  25  33
ENDBRANCH  24  25
ENDBRANCH  23  24
ENDBRANCH  22  23
ENDBRANCH  20  22
ENDBRANCH   1  20
TORSDOF 8
ENDMDL
MODEL 5
REMARK VINA RESULT:      -7.9      3.366      4.807
REMARK  Name = 
REMARK  8 active torsions:
REMARK  status: ('A' for Active; 'I' for Inactive)
REMARK    1  A    between atoms: N_8  and  C_9
REMARK    2  A    between atoms: C_9  and  C_10
REMARK    3  A    between atoms: C_10  and  C_11
REMARK    4  A    between atoms: C_11  and  C_12
REMARK    5  A    between atoms: C_12  and  N_13
REMARK    6  A    between atoms: N_13  and  C_14
REMARK    7  A    between atoms: C_16  and  C_17
REMARK    8  A    between atoms: C_26  and  C_27
REMARK                            x       y       z     vdW  Elec       q    Type
REMARK                         _______ _______ _______ _____ _____    ______ ____
ROOT
ATOM      1  C   UNL     1       2.608   8.044  18.498  0.00  0.00    +0.000 A 
ATOM      2  N   UNL     1       3.413   7.366  17.639  0.00  0.00    +0.000 NA
ATOM      3  C   UNL     1       3.793   6.087  17.838  0.00  0.00    +0.000 A 
ATOM      4  N   UNL     1       3.388   5.447  18.955  0.00  0.00    +0.000 NA
ATOM      5  C   UNL     1       2.617   6.046  19.890  0.00  0.00    +0.000 A 
ATOM      6 CL   UNL     1       2.144   4.996  21.225  0.00  0.00    +0.000 Cl
ATOM      7  C   UNL     1       2.166   7.393  19.709  0.00  0.00    +0.000 A 
ENDROOT
BRANCH   3   8
ATOM      8  C   UNL     1       4.582   5.373  16.809  0.00  0.00    +0.000 A 
ATOM      9  C   UNL     1       4.727   3.974  16.866  0.00  0.00    +0.000 A 
ATOM     10  C   UNL     1       5.491   3.303  15.909  0.00  0.00    +0.000 A 
ATOM     11  C   UNL     1       6.119   4.018  14.887  0.00  0.00    +0.000 A 
ATOM     12  C   UNL     1       5.986   5.406  14.821  0.00  0.00    +0.000 A 
ATOM     13  C   UNL     1       5.222   6.083  15.775  0.00  0.00    +0.000 A 
ENDBRANCH   3   8
BRANCH   7  14
ATOM     14  C   UNL     1       1.317   8.057  20.784  0.00  0.00    +0.000 A 
ATOM     15  C   UNL     1       1.918   8.915  21.743  0.00  0.00    +0.000 A 
ATOM     16  C   UNL     1       1.168   9.524  22.754  0.00  0.00    +0.000 A 
ATOM     17  C   UNL     1      -0.205   9.319  22.824  0.00  0.00    +0.000 A 
ATOM     18  C   UNL     1      -0.826   8.494  21.893  0.00  0.00    +0.000 A 
ATOM     19  C   UNL     1      -0.078   7.861  20.898  0.00  0.00    +0.000 A 
ENDBRANCH   7  14
BRANCH   1  20
ATOM     20  N   UNL     1       2.256   9.372  18.113  0.00  0.00    +0.000 N 
ATOM     21  H   UNL     1       2.948  10.111  18.050  0.00  0.00    +0.000 HD
BRANCH  20  22
ATOM     22  C   UNL     1       0.881   9.816  17.986  0.00  0.00    +0.000 C 
BRANCH  22  23
ATOM     23  C   UNL     1       0.682  11.104  18.809  0.00  0.00    +0.000 C 
BRANCH  23  24
ATOM     24  C   UNL     1      -0.783  11.547  18.932  0.00  0.00    +0.000 C 
BRANCH  24  25
ATOM     25  C   UNL     1      -1.776  10.389  18.705  0.00  0.00    +0.000 C 
BRANCH  25  33
ATOM     26  O   UNL     1      -4.092  12.046  19.560  0.00  0.00    +0.000 OA
ATOM     27  N   UNL     1      -4.511  12.000  18.446  0.00  0.00    +0.000 N 
ATOM     28  O   UNL     1      -5.665  12.570  18.171  0.00  0.00    +0.000 OA
ATOM     29  C   UNL     1      -3.795  11.338  17.404  0.00  0.00    +0.000 A 
ATOM     30  N   UNL     1      -4.262  11.313  16.135  0.00  0.00    +0.000 NA
ATOM     31  C   UNL     1      -3.353  10.597  15.447  0.00  0.00    +0.000 A 
ATOM     32  C   UNL     1      -2.359  10.185  16.298  0.00  0.00    +0.000 A 
ATOM     33  N   UNL     1      -2.625  10.650  17.534  0.00  0.00    +0.000 N 
ENDBRANCH  25  33
ENDBRANCH  24  25
ENDBRANCH  23  24
ENDBRANCH  22  23
ENDBRANCH  20  22
ENDBRANCH   1  20
TORSDOF 8
ENDMDL
MODEL 6
REMARK VINA RESULT:      -7.9      1.071      1.391
REMARK  Name = 
REMARK  8 active torsions:
REMARK  status: ('A' for Active; 'I' for Inactive)
REMARK    1  A    between atoms: N_8  and  C_9
REMARK    2  A    between atoms: C_9  and  C_10
REMARK    3  A    between atoms: C_10  and  C_11
REMARK    4  A    between atoms: C_11  and  C_12
REMARK    5  A    between atoms: C_12  and  N_13
REMARK    6  A    between atoms: N_13  and  C_14
REMARK    7  A    between atoms: C_16  and  C_17
REMARK    8  A    between atoms: C_26  and  C_27
REMARK                            x       y       z     vdW  Elec       q    Type
REMARK                         _______ _______ _______ _____ _____    ______ ____
ROOT
ATOM      1  C   UNL     1       4.075   5.270  17.550  0.00  0.00    +0.000 A 
ATOM      2  N   UNL     1       4.871   5.350  16.452  0.00  0.00    +0.000 NA
ATOM      3  C   UNL     1       5.298   4.266  15.771  0.00  0.00    +0.000 A 
ATOM      4  N   UNL     1       4.952   3.037  16.206  0.00  0.00    +0.000 NA
ATOM      5  C   UNL     1       4.194   2.850  17.311  0.00  0.00    +0.000 A 
ATOM      6 CL   UNL     1       3.801   1.165  17.647  0.00  0.00    +0.000 Cl
ATOM      7  C   UNL     1       3.695   3.970  18.051  0.00  0.00    +0.000 A 
ENDROOT
BRANCH   3   8
ATOM      8  C   UNL     1       6.074   4.428  14.521  0.00  0.00    +0.000 A 
ATOM      9  C   UNL     1       5.729   3.695  13.369  0.00  0.00    +0.000 A 
ATOM     10  C   UNL     1       6.476   3.829  12.196  0.00  0.00    +0.000 A 
ATOM     11  C   UNL     1       7.572   4.694  12.159  0.00  0.00    +0.000 A 
ATOM     12  C   UNL     1       7.926   5.424  13.295  0.00  0.00    +0.000 A 
ATOM     13  C   UNL     1       7.182   5.295  14.471  0.00  0.00    +0.000 A 
ENDBRANCH   3   8
BRANCH   7  14
ATOM     14  C   UNL     1       2.863   3.738  19.304  0.00  0.00    +0.000 A 
ATOM     15  C   UNL     1       3.428   3.079  20.427  0.00  0.00    +0.000 A 
ATOM     16  C   UNL     1       2.683   2.834  21.585  0.00  0.00    +0.000 A 
ATOM     17  C   UNL     1       1.363   3.262  21.669  0.00  0.00    +0.000 A 
ATOM     18  C   UNL     1       0.784   3.922  20.591  0.00  0.00    +0.000 A 
ATOM     19  C   UNL     1       1.514   4.144  19.422  0.00  0.00    +0.000 A 
ENDBRANCH   7  14
BRANCH   1  20
ATOM     20  N   UNL     1       3.667   6.513  18.122  0.00  0.00    +0.000 N 
ATOM     21  H   UNL     1       4.135   6.907  18.931  0.00  0.00    +0.000 HD
BRANCH  20  22
ATOM     22  C   UNL     1       2.449   7.197  17.733  0.00  0.00    +0.000 C 
BRANCH  22  23
ATOM     23  C   UNL     1       2.192   8.371  18.699  0.00  0.00    +0.000 C 
BRANCH  23  24
ATOM     24  C   UNL     1       1.043   9.295  18.267  0.00  0.00    +0.000 C 
BRANCH  24  25
ATOM     25  C   UNL     1       1.248  10.752  18.726  0.00  0.00    +0.000 C 
BRANCH  25  33
ATOM     26  O   UNL     1       1.310  10.495  21.687  0.00  0.00    +0.000 OA
ATOM     27  N   UNL     1       0.219  10.969  21.732  0.00  0.00    +0.000 N 
ATOM     28  O   UNL     1      -0.384  11.083  22.896  0.00  0.00    +0.000 OA
ATOM     29  C   UNL     1      -0.454  11.411  20.553  0.00  0.00    +0.000 A 
ATOM     30  N   UNL     1      -1.682  11.975  20.613  0.00  0.00    +0.000 NA
ATOM     31  C   UNL     1      -2.002  12.242  19.333  0.00  0.00    +0.000 A 
ATOM     32  C   UNL     1      -0.982  11.830  18.514  0.00  0.00    +0.000 A 
ATOM     33  N   UNL     1       0.002  11.308  19.273  0.00  0.00    +0.000 N 
ENDBRANCH  25  33
ENDBRANCH  24  25
ENDBRANCH  23  24
ENDBRANCH  22  23
ENDBRANCH  20  22
ENDBRANCH   1  20
TORSDOF 8
ENDMDL
MODEL 7
REMARK VINA RESULT:      -7.9      0.578      1.049
REMARK  Name = 
REMARK  8 active torsions:
REMARK  status: ('A' for Active; 'I' for Inactive)
REMARK    1  A    between atoms: N_8  and  C_9
REMARK    2  A    between atoms: C_9  and  C_10
REMARK    3  A    between atoms: C_10  and  C_11
REMARK    4  A    between atoms: C_11  and  C_12
REMARK    5  A    between atoms: C_12  and  N_13
REMARK    6  A    between atoms: N_13  and  C_14
REMARK    7  A    between atoms: C_16  and  C_17
REMARK    8  A    between atoms: C_26  and  C_27
REMARK                            x       y       z     vdW  Elec       q    Type
REMARK                         _______ _______ _______ _____ _____    ______ ____
ROOT
ATOM      1  C   UNL     1       3.720   5.071  17.388  0.00  0.00    +0.000 A 
ATOM      2  N   UNL     1       4.547   5.192  16.317  0.00  0.00    +0.000 NA
ATOM      3  C   UNL     1       5.191   4.145  15.760  0.00  0.00    +0.000 A 
ATOM      4  N   UNL     1       5.040   2.918  16.300  0.00  0.00    +0.000 NA
ATOM      5  C   UNL     1       4.270   2.699  17.390  0.00  0.00    +0.000 A 
ATOM      6 CL   UNL     1       4.157   1.008  17.874  0.00  0.00    +0.000 Cl
ATOM      7  C   UNL     1       3.546   3.774  17.999  0.00  0.00    +0.000 A 
ENDROOT
BRANCH   3   8
ATOM      8  C   UNL     1       5.991   4.329  14.529  0.00  0.00    +0.000 A 
ATOM      9  C   UNL     1       5.674   3.611  13.360  0.00  0.00    +0.000 A 
ATOM     10  C   UNL     1       6.444   3.767  12.204  0.00  0.00    +0.000 A 
ATOM     11  C   UNL     1       7.536   4.638  12.202  0.00  0.00    +0.000 A 
ATOM     12  C   UNL     1       7.863   5.352  13.356  0.00  0.00    +0.000 A 
ATOM     13  C   UNL     1       7.096   5.202  14.515  0.00  0.00    +0.000 A 
ENDBRANCH   3   8
BRANCH   7  14
ATOM     14  C   UNL     1       2.702   3.512  19.238  0.00  0.00    +0.000 A 
ATOM     15  C   UNL     1       3.323   3.170  20.468  0.00  0.00    +0.000 A 
ATOM     16  C   UNL     1       2.574   2.904  21.619  0.00  0.00    +0.000 A 
ATOM     17  C   UNL     1       1.187   2.997  21.585  0.00  0.00    +0.000 A 
ATOM     18  C   UNL     1       0.549   3.341  20.399  0.00  0.00    +0.000 A 
ATOM     19  C   UNL     1       1.290   3.580  19.240  0.00  0.00    +0.000 A 
ENDBRANCH   7  14
BRANCH   1  20
ATOM     20  N   UNL     1       3.075   6.268  17.821  0.00  0.00    +0.000 N 
ATOM     21  H   UNL     1       2.586   6.876  17.172  0.00  0.00    +0.000 HD
BRANCH  20  22
ATOM     22  C   UNL     1       3.236   6.810  19.156  0.00  0.00    +0.000 C 
BRANCH  22  23
ATOM     23  C   UNL     1       2.025   7.703  19.494  0.00  0.00    +0.000 C 
BRANCH  23  24
ATOM     24  C   UNL     1       1.855   8.907  18.556  0.00  0.00    +0.000 C 
BRANCH  24  25
ATOM     25  C   UNL     1       0.581   9.721  18.858  0.00  0.00    +0.000 C 
BRANCH  25  33
ATOM     26  O   UNL     1      -0.350   9.152  21.623  0.00  0.00    +0.000 OA
ATOM     27  N   UNL     1       0.010  10.240  21.948  0.00  0.00    +0.000 N 
ATOM     28  O   UNL     1      -0.199  10.643  23.183  0.00  0.00    +0.000 OA
ATOM     29  C   UNL     1       0.657  11.119  21.028  0.00  0.00    +0.000 A 
ATOM     30  N   UNL     1       1.088  12.343  21.409  0.00  0.00    +0.000 NA
ATOM     31  C   UNL     1       1.618  12.885  20.296  0.00  0.00    +0.000 A 
ATOM     32  C   UNL     1       1.491  12.000  19.256  0.00  0.00    +0.000 A 
ATOM     33  N   UNL     1       0.891  10.881  19.707  0.00  0.00    +0.000 N 
ENDBRANCH  25  33
ENDBRANCH  24  25
ENDBRANCH  23  24
ENDBRANCH  22  23
ENDBRANCH  20  22
ENDBRANCH   1  20
TORSDOF 8
ENDMDL
MODEL 8
REMARK VINA RESULT:      -7.8      4.627      5.381
REMARK  Name = 
REMARK  8 active torsions:
REMARK  status: ('A' for Active; 'I' for Inactive)
REMARK    1  A    between atoms: N_8  and  C_9
REMARK    2  A    between atoms: C_9  and  C_10
REMARK    3  A    between atoms: C_10  and  C_11
REMARK    4  A    between atoms: C_11  and  C_12
REMARK    5  A    between atoms: C_12  and  N_13
REMARK    6  A    between atoms: N_13  and  C_14
REMARK    7  A    between atoms: C_16  and  C_17
REMARK    8  A    between atoms: C_26  and  C_27
REMARK                            x       y       z     vdW  Elec       q    Type
REMARK                         _______ _______ _______ _____ _____    ______ ____
ROOT
ATOM      1  C   UNL     1       5.673   4.686  18.058  0.00  0.00    +0.000 A 
ATOM      2  N   UNL     1       6.270   4.709  16.838  0.00  0.00    +0.000 NA
ATOM      3  C   UNL     1       5.680   4.241  15.719  0.00  0.00    +0.000 A 
ATOM      4  N   UNL     1       4.450   3.693  15.804  0.00  0.00    +0.000 NA
ATOM      5  C   UNL     1       3.787   3.588  16.978  0.00  0.00    +0.000 A 
ATOM      6 CL   UNL     1       2.165   2.910  16.840  0.00  0.00    +0.000 Cl
ATOM      7  C   UNL     1       4.361   4.095  18.188  0.00  0.00    +0.000 A 
ENDROOT
BRANCH   3   8
ATOM      8  C   UNL     1       6.342   4.396  14.405  0.00  0.00    +0.000 A 
ATOM      9  C   UNL     1       5.928   3.624  13.303  0.00  0.00    +0.000 A 
ATOM     10  C   UNL     1       6.569   3.752  12.068  0.00  0.00    +0.000 A 
ATOM     11  C   UNL     1       7.629   4.649  11.920  0.00  0.00    +0.000 A 
ATOM     12  C   UNL     1       8.052   5.418  13.005  0.00  0.00    +0.000 A 
ATOM     13  C   UNL     1       7.414   5.296  14.243  0.00  0.00    +0.000 A 
ENDBRANCH   3   8
BRANCH   7  14
ATOM     14  C   UNL     1       3.609   3.947  19.503  0.00  0.00    +0.000 A 
ATOM     15  C   UNL     1       3.636   2.715  20.208  0.00  0.00    +0.000 A 
ATOM     16  C   UNL     1       2.939   2.542  21.409  0.00  0.00    +0.000 A 
ATOM     17  C   UNL     1       2.217   3.598  21.954  0.00  0.00    +0.000 A 
ATOM     18  C   UNL     1       2.181   4.821  21.294  0.00  0.00    +0.000 A 
ATOM     19  C   UNL     1       2.852   4.991  20.081  0.00  0.00    +0.000 A 
ENDBRANCH   7  14
BRANCH   1  20
ATOM     20  N   UNL     1       6.411   5.270  19.130  0.00  0.00    +0.000 N 
ATOM     21  H   UNL     1       6.053   5.284  20.080  0.00  0.00    +0.000 HD
BRANCH  20  22
ATOM     22  C   UNL     1       7.611   6.058  18.923  0.00  0.00    +0.000 C 
BRANCH  22  23
ATOM     23  C   UNL     1       7.305   7.205  17.939  0.00  0.00    +0.000 C 
BRANCH  23  24
ATOM     24  C   UNL     1       8.405   8.275  17.865  0.00  0.00    +0.000 C 
BRANCH  24  25
ATOM     25  C   UNL     1       7.843   9.710  17.904  0.00  0.00    +0.000 C 
BRANCH  25  33
ATOM     26  O   UNL     1       7.543  12.475  16.852  0.00  0.00    +0.000 OA
ATOM     27  N   UNL     1       8.379  12.837  17.620  0.00  0.00    +0.000 N 
ATOM     28  O   UNL     1       8.764  14.095  17.602  0.00  0.00    +0.000 OA
ATOM     29  C   UNL     1       8.976  11.938  18.554  0.00  0.00    +0.000 A 
ATOM     30  N   UNL     1       9.904  12.361  19.442  0.00  0.00    +0.000 NA
ATOM     31  C   UNL     1      10.250  11.257  20.132  0.00  0.00    +0.000 A 
ATOM     32  C   UNL     1       9.546  10.182  19.652  0.00  0.00    +0.000 A 
ATOM     33  N   UNL     1       8.736  10.601  18.659  0.00  0.00    +0.000 N 
ENDBRANCH  25  33
ENDBRANCH  24  25
ENDBRANCH  23  24
ENDBRANCH  22  23
ENDBRANCH  20  22
ENDBRANCH   1  20
TORSDOF 8
ENDMDL
MODEL 9
REMARK VINA RESULT:      -7.8      1.392      2.048
REMARK  Name = 
REMARK  8 active torsions:
REMARK  status: ('A' for Active; 'I' for Inactive)
REMARK    1  A    between atoms: N_8  and  C_9
REMARK    2  A    between atoms: C_9  and  C_10
REMARK    3  A    between atoms: C_10  and  C_11
REMARK    4  A    between atoms: C_11  and  C_12
REMARK    5  A    between atoms: C_12  and  N_13
REMARK    6  A    between atoms: N_13  and  C_14
REMARK    7  A    between atoms: C_16  and  C_17
REMARK    8  A    between atoms: C_26  and  C_27
REMARK                            x       y       z     vdW  Elec       q    Type
REMARK                         _______ _______ _______ _____ _____    ______ ____
ROOT
ATOM      1  C   UNL     1       4.315   5.297  17.579  0.00  0.00    +0.000 A 
ATOM      2  N   UNL     1       5.084   5.356  16.461  0.00  0.00    +0.000 NA
ATOM      3  C   UNL     1       5.407   4.270  15.729  0.00  0.00    +0.000 A 
ATOM      4  N   UNL     1       4.979   3.056  16.132  0.00  0.00    +0.000 NA
ATOM      5  C   UNL     1       4.240   2.886  17.252  0.00  0.00    +0.000 A 
ATOM      6 CL   UNL     1       3.727   1.224  17.540  0.00  0.00    +0.000 Cl
ATOM      7  C   UNL     1       3.850   4.012  18.046  0.00  0.00    +0.000 A 
ENDROOT
BRANCH   3   8
ATOM      8  C   UNL     1       6.157   4.419  14.462  0.00  0.00    +0.000 A 
ATOM      9  C   UNL     1       5.793   3.670  13.327  0.00  0.00    +0.000 A 
ATOM     10  C   UNL     1       6.516   3.792  12.138  0.00  0.00    +0.000 A 
ATOM     11  C   UNL     1       7.608   4.660  12.068  0.00  0.00    +0.000 A 
ATOM     12  C   UNL     1       7.982   5.405  13.188  0.00  0.00    +0.000 A 
ATOM     13  C   UNL     1       7.262   5.288  14.380  0.00  0.00    +0.000 A 
ENDBRANCH   3   8
BRANCH   7  14
ATOM     14  C   UNL     1       3.038   3.798  19.315  0.00  0.00    +0.000 A 
ATOM     15  C   UNL     1       1.762   4.405  19.460  0.00  0.00    +0.000 A 
ATOM     16  C   UNL     1       1.001   4.242  20.622  0.00  0.00    +0.000 A 
ATOM     17  C   UNL     1       1.475   3.450  21.661  0.00  0.00    +0.000 A 
ATOM     18  C   UNL     1       2.715   2.832  21.545  0.00  0.00    +0.000 A 
ATOM     19  C   UNL     1       3.492   3.014  20.399  0.00  0.00    +0.000 A 
ENDBRANCH   7  14
BRANCH   1  20
ATOM     20  N   UNL     1       4.021   6.545  18.206  0.00  0.00    +0.000 N 
ATOM     21  H   UNL     1       4.247   6.719  19.180  0.00  0.00    +0.000 HD
BRANCH  20  22
ATOM     22  C   UNL     1       3.208   7.570  17.579  0.00  0.00    +0.000 C 
BRANCH  22  23
ATOM     23  C   UNL     1       2.262   8.184  18.630  0.00  0.00    +0.000 C 
BRANCH  23  24
ATOM     24  C   UNL     1       1.185   9.106  18.038  0.00  0.00    +0.000 C 
BRANCH  24  25
ATOM     25  C   UNL     1       1.371  10.580  18.450  0.00  0.00    +0.000 C 
BRANCH  25  33
ATOM     26  O   UNL     1       2.588  13.052  19.566  0.00  0.00    +0.000 OA
ATOM     27  N   UNL     1       1.956  12.890  20.562  0.00  0.00    +0.000 N 
ATOM     28  O   UNL     1       2.115  13.726  21.566  0.00  0.00    +0.000 OA
ATOM     29  C   UNL     1       1.034  11.809  20.696  0.00  0.00    +0.000 A 
ATOM     30  N   UNL     1       0.298  11.646  21.819  0.00  0.00    +0.000 NA
ATOM     31  C   UNL     1      -0.428  10.533  21.598  0.00  0.00    +0.000 A 
ATOM     32  C   UNL     1      -0.119  10.028  20.361  0.00  0.00    +0.000 A 
ATOM     33  N   UNL     1       0.798  10.827  19.781  0.00  0.00    +0.000 N 
ENDBRANCH  25  33
ENDBRANCH  24  25
ENDBRANCH  23  24
ENDBRANCH  22  23
ENDBRANCH  20  22
ENDBRANCH   1  20
TORSDOF 8
ENDMDL
