MODEL 1
REMARK VINA RESULT:      -7.0      0.000      0.000
REMARK  Name = 
REMARK  16 active torsions:
REMARK  status: ('A' for Active; 'I' for Inactive)
REMARK    1  A    between atoms: C_1  and  C_2
REMARK    2  A    between atoms: C_4  and  O_5
REMARK    3  A    between atoms: O_5  and  C_6
REMARK    4  A    between atoms: C_6  and  C_7
REMARK    5  A    between atoms: C_7  and  C_8
REMARK    6  A    between atoms: C_8  and  C_9
REMARK    7  A    between atoms: C_9  and  C_10
REMARK    8  A    between atoms: C_10  and  C_11
REMARK    9  A    between atoms: C_11  and  N_12
REMARK   10  A    between atoms: N_12  and  C_13
REMARK   11  A    between atoms: N_12  and  C_14
REMARK   12  A    between atoms: N_12  and  C_15
REMARK   13  A    between atoms: C_15  and  C_16
REMARK   14  A    between atoms: C_22  and  C_23
REMARK   15  A    between atoms: C_23  and  C_24
REMARK   16  A    between atoms: C_23  and  C_25
REMARK                            x       y       z     vdW  Elec       q    Type
REMARK                         _______ _______ _______ _____ _____    ______ ____
ROOT
ATOM      1  C   UNL     1       1.952   8.622  17.811  0.00  0.00    +0.000 C 
ENDROOT
BRANCH   1   2
ATOM      2  C   UNL     1       1.315   9.252  19.046  0.00  0.00    +0.000 C 
BRANCH   2   3
ATOM      3  O   UNL     1       0.960  10.594  18.727  0.00  0.00    +0.000 OA
BRANCH   3   7
ATOM      4  C   UNL     1      -3.461  10.080  16.523  0.00  0.00    +0.000 C 
ATOM      5  C   UNL     1      -2.592  10.681  17.596  0.00  0.00    +0.000 A 
ATOM      6  C   UNL     1      -1.229  10.351  17.648  0.00  0.00    +0.000 A 
ATOM      7  C   UNL     1      -0.382  10.874  18.637  0.00  0.00    +0.000 A 
ATOM      8  C   UNL     1      -0.898  11.748  19.614  0.00  0.00    +0.000 A 
ATOM      9  C   UNL     1      -2.263  12.088  19.547  0.00  0.00    +0.000 A 
ATOM     10  C   UNL     1      -3.100  11.554  18.562  0.00  0.00    +0.000 A 
ATOM     11 CL   UNL     1      -4.761  12.016  18.573  0.00  0.00    +0.000 Cl
BRANCH   8  12
ATOM     12  C   UNL     1       0.006  12.344  20.690  0.00  0.00    +0.000 C 
ATOM     13  C   UNL     1       0.399  13.777  20.321  0.00  0.00    +0.000 C 
ATOM     14  C   UNL     1      -0.584  12.303  22.104  0.00  0.00    +0.000 C 
ENDBRANCH   8  12
ENDBRANCH   3   7
ENDBRANCH   2   3
ENDBRANCH   1   2
BRANCH   1  15
ATOM     15  C   UNL     1       2.757   7.364  18.139  0.00  0.00    +0.000 C 
BRANCH  15  16
ATOM     16  C   UNL     1       2.650   6.890  19.593  0.00  0.00    +0.000 C 
BRANCH  16  17
ATOM     17  C   UNL     1       1.839   5.606  19.793  0.00  0.00    +0.000 C 
BRANCH  17  18
ATOM     18  C   UNL     1       2.513   4.616  20.749  0.00  0.00    +0.000 C 
BRANCH  18  19
ATOM     19  N   UNL     1       2.192   3.144  20.422  0.00  0.00    +0.000 N 
ATOM     20  C   UNL     1       1.776   2.398  21.686  0.00  0.00    +0.000 C 
ATOM     21  C   UNL     1       1.089   3.063  19.370  0.00  0.00    +0.000 C 
BRANCH  19  22
ATOM     22  C   UNL     1       3.493   2.500  19.847  0.00  0.00    +0.000 C 
BRANCH  22  23
ATOM     23  C   UNL     1       4.262   3.349  18.894  0.00  0.00    +0.000 A 
ATOM     24  C   UNL     1       4.128   3.650  17.552  0.00  0.00    +0.000 A 
ATOM     25  C   UNL     1       5.240   4.463  17.214  0.00  0.00    +0.000 A 
ATOM     26  C   UNL     1       5.963   4.634  18.372  0.00  0.00    +0.000 A 
ATOM     27 BR   UNL     1       7.538   5.618  18.525  0.00  0.00    +0.000 Br
ATOM     28  O   UNL     1       5.373   3.961  19.396  0.00  0.00    +0.000 OA
ENDBRANCH  22  23
ENDBRANCH  19  22
ENDBRANCH  18  19
ENDBRANCH  17  18
ENDBRANCH  16  17
ENDBRANCH  15  16
ENDBRANCH   1  15
TORSDOF 11
ENDMDL
MODEL 2
REMARK VINA RESULT:      -6.8      1.745      2.814
REMARK  Name = 
REMARK  16 active torsions:
REMARK  status: ('A' for Active; 'I' for Inactive)
REMARK    1  A    between atoms: C_1  and  C_2
REMARK    2  A    between atoms: C_4  and  O_5
REMARK    3  A    between atoms: O_5  and  C_6
REMARK    4  A    between atoms: C_6  and  C_7
REMARK    5  A    between atoms: C_7  and  C_8
REMARK    6  A    between atoms: C_8  and  C_9
REMARK    7  A    between atoms: C_9  and  C_10
REMARK    8  A    between atoms: C_10  and  C_11
REMARK    9  A    between atoms: C_11  and  N_12
REMARK   10  A    between atoms: N_12  and  C_13
REMARK   11  A    between atoms: N_12  and  C_14
REMARK   12  A    between atoms: N_12  and  C_15
REMARK   13  A    between atoms: C_15  and  C_16
REMARK   14  A    between atoms: C_22  and  C_23
REMARK   15  A    between atoms: C_23  and  C_24
REMARK   16  A    between atoms: C_23  and  C_25
REMARK                            x       y       z     vdW  Elec       q    Type
REMARK                         _______ _______ _______ _____ _____    ______ ____
ROOT
ATOM      1  C   UNL     1       2.474   8.427  17.714  0.00  0.00    +0.000 C 
ENDROOT
BRANCH   1   2
ATOM      2  C   UNL     1       1.152   9.097  18.074  0.00  0.00    +0.000 C 
BRANCH   2   3
ATOM      3  O   UNL     1       1.441  10.294  18.790  0.00  0.00    +0.000 OA
BRANCH   3   7
ATOM      4  C   UNL     1       0.072   9.470  23.492  0.00  0.00    +0.000 C 
ATOM      5  C   UNL     1      -0.087  10.209  22.189  0.00  0.00    +0.000 A 
ATOM      6  C   UNL     1       0.754   9.897  21.110  0.00  0.00    +0.000 A 
ATOM      7  C   UNL     1       0.654  10.567  19.881  0.00  0.00    +0.000 A 
ATOM      8  C   UNL     1      -0.304  11.588  19.712  0.00  0.00    +0.000 A 
ATOM      9  C   UNL     1      -1.155  11.886  20.794  0.00  0.00    +0.000 A 
ATOM     10  C   UNL     1      -1.041  11.216  22.017  0.00  0.00    +0.000 A 
ATOM     11 CL   UNL     1      -2.117  11.664  23.289  0.00  0.00    +0.000 Cl
BRANCH   8  12
ATOM     12  C   UNL     1      -0.444  12.320  18.381  0.00  0.00    +0.000 C 
ATOM     13  C   UNL     1      -1.757  11.930  17.695  0.00  0.00    +0.000 C 
ATOM     14  C   UNL     1      -0.332  13.846  18.485  0.00  0.00    +0.000 C 
ENDBRANCH   8  12
ENDBRANCH   3   7
ENDBRANCH   2   3
ENDBRANCH   1   2
BRANCH   1  15
ATOM     15  C   UNL     1       2.882   7.347  18.717  0.00  0.00    +0.000 C 
BRANCH  15  16
ATOM     16  C   UNL     1       1.819   7.012  19.770  0.00  0.00    +0.000 C 
BRANCH  16  17
ATOM     17  C   UNL     1       1.889   5.584  20.321  0.00  0.00    +0.000 C 
BRANCH  17  18
ATOM     18  C   UNL     1       3.260   4.931  20.117  0.00  0.00    +0.000 C 
BRANCH  18  19
ATOM     19  N   UNL     1       3.169   3.478  19.611  0.00  0.00    +0.000 N 
ATOM     20  C   UNL     1       3.133   2.506  20.787  0.00  0.00    +0.000 C 
ATOM     21  C   UNL     1       1.932   3.297  18.735  0.00  0.00    +0.000 C 
BRANCH  19  22
ATOM     22  C   UNL     1       4.445   3.202  18.753  0.00  0.00    +0.000 C 
BRANCH  22  23
ATOM     23  C   UNL     1       4.885   4.326  17.879  0.00  0.00    +0.000 A 
ATOM     24  C   UNL     1       4.521   4.763  16.620  0.00  0.00    +0.000 A 
ATOM     25  C   UNL     1       5.378   5.850  16.313  0.00  0.00    +0.000 A 
ATOM     26  C   UNL     1       6.187   6.029  17.411  0.00  0.00    +0.000 A 
ATOM     27 BR   UNL     1       7.519   7.323  17.571  0.00  0.00    +0.000 Br
ATOM     28  O   UNL     1       5.892   5.106  18.366  0.00  0.00    +0.000 OA
ENDBRANCH  22  23
ENDBRANCH  19  22
ENDBRANCH  18  19
ENDBRANCH  17  18
ENDBRANCH  16  17
ENDBRANCH  15  16
ENDBRANCH   1  15
TORSDOF 11
ENDMDL
MODEL 3
REMARK VINA RESULT:      -6.8      2.007      3.091
REMARK  Name = 
REMARK  16 active torsions:
REMARK  status: ('A' for Active; 'I' for Inactive)
REMARK    1  A    between atoms: C_1  and  C_2
REMARK    2  A    between atoms: C_4  and  O_5
REMARK    3  A    between atoms: O_5  and  C_6
REMARK    4  A    between atoms: C_6  and  C_7
REMARK    5  A    between atoms: C_7  and  C_8
REMARK    6  A    between atoms: C_8  and  C_9
REMARK    7  A    between atoms: C_9  and  C_10
REMARK    8  A    between atoms: C_10  and  C_11
REMARK    9  A    between atoms: C_11  and  N_12
REMARK   10  A    between atoms: N_12  and  C_13
REMARK   11  A    between atoms: N_12  and  C_14
REMARK   12  A    between atoms: N_12  and  C_15
REMARK   13  A    between atoms: C_15  and  C_16
REMARK   14  A    between atoms: C_22  and  C_23
REMARK   15  A    between atoms: C_23  and  C_24
REMARK   16  A    between atoms: C_23  and  C_25
REMARK                            x       y       z     vdW  Elec       q    Type
REMARK                         _______ _______ _______ _____ _____    ______ ____
ROOT
ATOM      1  C   UNL     1       1.868   8.277  19.906  0.00  0.00    +0.000 C 
ENDROOT
BRANCH   1   2
ATOM      2  C   UNL     1       0.698   9.112  20.418  0.00  0.00    +0.000 C 
BRANCH   2   3
ATOM      3  O   UNL     1       0.628  10.303  19.640  0.00  0.00    +0.000 OA
BRANCH   3   7
ATOM      4  C   UNL     1      -2.910   9.818  16.187  0.00  0.00    +0.000 C 
ATOM      5  C   UNL     1      -2.384  10.455  17.447  0.00  0.00    +0.000 A 
ATOM      6  C   UNL     1      -1.126  10.075  17.941  0.00  0.00    +0.000 A 
ATOM      7  C   UNL     1      -0.601  10.629  19.118  0.00  0.00    +0.000 A 
ATOM      8  C   UNL     1      -1.343  11.586  19.838  0.00  0.00    +0.000 A 
ATOM      9  C   UNL     1      -2.597  11.975  19.329  0.00  0.00    +0.000 A 
ATOM     10  C   UNL     1      -3.115  11.410  18.159  0.00  0.00    +0.000 A 
ATOM     11 CL   UNL     1      -4.667  11.937  17.623  0.00  0.00    +0.000 Cl
BRANCH   8  12
ATOM     12  C   UNL     1      -0.786  12.216  21.112  0.00  0.00    +0.000 C 
ATOM     13  C   UNL     1      -1.031  13.728  21.109  0.00  0.00    +0.000 C 
ATOM     14  C   UNL     1      -1.318  11.595  22.408  0.00  0.00    +0.000 C 
ENDBRANCH   8  12
ENDBRANCH   3   7
ENDBRANCH   2   3
ENDBRANCH   1   2
BRANCH   1  15
ATOM     15  C   UNL     1       2.139   8.493  18.416  0.00  0.00    +0.000 C 
BRANCH  15  16
ATOM     16  C   UNL     1       2.678   7.265  17.674  0.00  0.00    +0.000 C 
BRANCH  16  17
ATOM     17  C   UNL     1       4.201   7.101  17.723  0.00  0.00    +0.000 C 
BRANCH  17  18
ATOM     18  C   UNL     1       4.718   6.033  16.754  0.00  0.00    +0.000 C 
BRANCH  18  19
ATOM     19  N   UNL     1       5.441   4.871  17.464  0.00  0.00    +0.000 N 
ATOM     20  C   UNL     1       6.832   4.669  16.871  0.00  0.00    +0.000 C 
ATOM     21  C   UNL     1       5.537   5.142  18.963  0.00  0.00    +0.000 C 
BRANCH  19  22
ATOM     22  C   UNL     1       4.590   3.582  17.233  0.00  0.00    +0.000 C 
BRANCH  22  23
ATOM     23  C   UNL     1       3.290   3.533  17.961  0.00  0.00    +0.000 A 
ATOM     24  C   UNL     1       1.992   3.876  17.634  0.00  0.00    +0.000 A 
ATOM     25  C   UNL     1       1.218   3.664  18.803  0.00  0.00    +0.000 A 
ATOM     26  C   UNL     1       2.081   3.178  19.757  0.00  0.00    +0.000 A 
ATOM     27 BR   UNL     1       1.613   2.721  21.502  0.00  0.00    +0.000 Br
ATOM     28  O   UNL     1       3.341   3.095  19.251  0.00  0.00    +0.000 OA
ENDBRANCH  22  23
ENDBRANCH  19  22
ENDBRANCH  18  19
ENDBRANCH  17  18
ENDBRANCH  16  17
ENDBRANCH  15  16
ENDBRANCH   1  15
TORSDOF 11
ENDMDL
MODEL 4
REMARK VINA RESULT:      -6.6      6.884     10.470
REMARK  Name = 
REMARK  16 active torsions:
REMARK  status: ('A' for Active; 'I' for Inactive)
REMARK    1  A    between atoms: C_1  and  C_2
REMARK    2  A    between atoms: C_4  and  O_5
REMARK    3  A    between atoms: O_5  and  C_6
REMARK    4  A    between atoms: C_6  and  C_7
REMARK    5  A    between atoms: C_7  and  C_8
REMARK    6  A    between atoms: C_8  and  C_9
REMARK    7  A    between atoms: C_9  and  C_10
REMARK    8  A    between atoms: C_10  and  C_11
REMARK    9  A    between atoms: C_11  and  N_12
REMARK   10  A    between atoms: N_12  and  C_13
REMARK   11  A    between atoms: N_12  and  C_14
REMARK   12  A    between atoms: N_12  and  C_15
REMARK   13  A    between atoms: C_15  and  C_16
REMARK   14  A    between atoms: C_22  and  C_23
REMARK   15  A    between atoms: C_23  and  C_24
REMARK   16  A    between atoms: C_23  and  C_25
REMARK                            x       y       z     vdW  Elec       q    Type
REMARK                         _______ _______ _______ _____ _____    ______ ____
ROOT
ATOM      1  C   UNL     1       7.569   7.095  18.090  0.00  0.00    +0.000 C 
ENDROOT
BRANCH   1   2
ATOM      2  C   UNL     1       7.356   5.921  19.042  0.00  0.00    +0.000 C 
BRANCH   2   3
ATOM      3  O   UNL     1       7.021   4.775  18.265  0.00  0.00    +0.000 OA
BRANCH   3   7
ATOM      4  C   UNL     1       3.049   2.893  20.578  0.00  0.00    +0.000 C 
ATOM      5  C   UNL     1       3.706   3.452  19.344  0.00  0.00    +0.000 A 
ATOM      6  C   UNL     1       5.053   3.845  19.394  0.00  0.00    +0.000 A 
ATOM      7  C   UNL     1       5.704   4.386  18.275  0.00  0.00    +0.000 A 
ATOM      8  C   UNL     1       5.001   4.551  17.064  0.00  0.00    +0.000 A 
ATOM      9  C   UNL     1       3.655   4.141  17.016  0.00  0.00    +0.000 A 
ATOM     10  C   UNL     1       3.014   3.611  18.140  0.00  0.00    +0.000 A 
ATOM     11 CL   UNL     1       1.358   3.153  17.987  0.00  0.00    +0.000 Cl
BRANCH   8  12
ATOM     12  C   UNL     1       5.692   5.120  15.828  0.00  0.00    +0.000 C 
ATOM     13  C   UNL     1       5.655   4.104  14.683  0.00  0.00    +0.000 C 
ATOM     14  C   UNL     1       5.134   6.469  15.358  0.00  0.00    +0.000 C 
ENDBRANCH   8  12
ENDBRANCH   3   7
ENDBRANCH   2   3
ENDBRANCH   1   2
BRANCH   1  15
ATOM     15  C   UNL     1       8.586   8.107  18.619  0.00  0.00    +0.000 C 
BRANCH  15  16
ATOM     16  C   UNL     1       8.422   9.531  18.074  0.00  0.00    +0.000 C 
BRANCH  16  17
ATOM     17  C   UNL     1       9.264  10.593  18.787  0.00  0.00    +0.000 C 
BRANCH  17  18
ATOM     18  C   UNL     1       9.421  11.879  17.968  0.00  0.00    +0.000 C 
BRANCH  18  19
ATOM     19  N   UNL     1      10.468  12.847  18.556  0.00  0.00    +0.000 N 
ATOM     20  C   UNL     1      11.824  12.629  17.892  0.00  0.00    +0.000 C 
ATOM     21  C   UNL     1      10.014  14.293  18.375  0.00  0.00    +0.000 C 
BRANCH  19  22
ATOM     22  C   UNL     1      10.584  12.536  20.082  0.00  0.00    +0.000 C 
BRANCH  22  23
ATOM     23  C   UNL     1       9.802  13.432  20.980  0.00  0.00    +0.000 A 
ATOM     24  C   UNL     1      10.113  14.549  21.732  0.00  0.00    +0.000 A 
ATOM     25  C   UNL     1       8.933  14.896  22.437  0.00  0.00    +0.000 A 
ATOM     26  C   UNL     1       7.969  13.994  22.049  0.00  0.00    +0.000 A 
ATOM     27 BR   UNL     1       6.209  13.965  22.661  0.00  0.00    +0.000 Br
ATOM     28  O   UNL     1       8.491  13.102  21.163  0.00  0.00    +0.000 OA
ENDBRANCH  22  23
ENDBRANCH  19  22
ENDBRANCH  18  19
ENDBRANCH  17  18
ENDBRANCH  16  17
ENDBRANCH  15  16
ENDBRANCH   1  15
TORSDOF 11
ENDMDL
MODEL 5
REMARK VINA RESULT:      -6.6      4.783      9.692
REMARK  Name = 
REMARK  16 active torsions:
REMARK  status: ('A' for Active; 'I' for Inactive)
REMARK    1  A    between atoms: C_1  and  C_2
REMARK    2  A    between atoms: C_4  and  O_5
REMARK    3  A    between atoms: O_5  and  C_6
REMARK    4  A    between atoms: C_6  and  C_7
REMARK    5  A    between atoms: C_7  and  C_8
REMARK    6  A    between atoms: C_8  and  C_9
REMARK    7  A    between atoms: C_9  and  C_10
REMARK    8  A    between atoms: C_10  and  C_11
REMARK    9  A    between atoms: C_11  and  N_12
REMARK   10  A    between atoms: N_12  and  C_13
REMARK   11  A    between atoms: N_12  and  C_14
REMARK   12  A    between atoms: N_12  and  C_15
REMARK   13  A    between atoms: C_15  and  C_16
REMARK   14  A    between atoms: C_22  and  C_23
REMARK   15  A    between atoms: C_23  and  C_24
REMARK   16  A    between atoms: C_23  and  C_25
REMARK                            x       y       z     vdW  Elec       q    Type
REMARK                         _______ _______ _______ _____ _____    ______ ____
ROOT
ATOM      1  C   UNL     1       2.447   5.807  17.789  0.00  0.00    +0.000 C 
ENDROOT
BRANCH   1   2
ATOM      2  C   UNL     1       3.303   4.557  17.609  0.00  0.00    +0.000 C 
BRANCH   2   3
ATOM      3  O   UNL     1       4.671   4.934  17.735  0.00  0.00    +0.000 OA
BRANCH   3   7
ATOM      4  C   UNL     1       5.486   3.516  13.045  0.00  0.00    +0.000 C 
ATOM      5  C   UNL     1       5.891   4.293  14.270  0.00  0.00    +0.000 A 
ATOM      6  C   UNL     1       5.087   4.240  15.420  0.00  0.00    +0.000 A 
ATOM      7  C   UNL     1       5.414   4.959  16.580  0.00  0.00    +0.000 A 
ATOM      8  C   UNL     1       6.571   5.763  16.606  0.00  0.00    +0.000 A 
ATOM      9  C   UNL     1       7.381   5.800  15.455  0.00  0.00    +0.000 A 
ATOM     10  C   UNL     1       7.041   5.086  14.301  0.00  0.00    +0.000 A 
ATOM     11 CL   UNL     1       8.087   5.208  12.936  0.00  0.00    +0.000 Cl
BRANCH   8  12
ATOM     12  C   UNL     1       6.958   6.540  17.862  0.00  0.00    +0.000 C 
ATOM     13  C   UNL     1       7.762   5.649  18.812  0.00  0.00    +0.000 C 
ATOM     14  C   UNL     1       7.716   7.844  17.588  0.00  0.00    +0.000 C 
ENDBRANCH   8  12
ENDBRANCH   3   7
ENDBRANCH   2   3
ENDBRANCH   1   2
BRANCH   1  15
ATOM     15  C   UNL     1       3.225   6.971  18.403  0.00  0.00    +0.000 C 
BRANCH  15  16
ATOM     16  C   UNL     1       2.790   8.361  17.926  0.00  0.00    +0.000 C 
BRANCH  16  17
ATOM     17  C   UNL     1       1.318   8.699  18.185  0.00  0.00    +0.000 C 
BRANCH  17  18
ATOM     18  C   UNL     1       0.981  10.165  17.891  0.00  0.00    +0.000 C 
BRANCH  18  19
ATOM     19  N   UNL     1       0.325  10.886  19.086  0.00  0.00    +0.000 N 
ATOM     20  C   UNL     1      -0.380   9.880  19.991  0.00  0.00    +0.000 C 
ATOM     21  C   UNL     1       1.372  11.668  19.874  0.00  0.00    +0.000 C 
BRANCH  19  22
ATOM     22  C   UNL     1      -0.727  11.884  18.506  0.00  0.00    +0.000 C 
BRANCH  22  23
ATOM     23  C   UNL     1      -1.960  11.262  17.946  0.00  0.00    +0.000 A 
ATOM     24  C   UNL     1      -2.217  10.447  16.861  0.00  0.00    +0.000 A 
ATOM     25  C   UNL     1      -3.623  10.266  16.823  0.00  0.00    +0.000 A 
ATOM     26  C   UNL     1      -4.132  10.953  17.900  0.00  0.00    +0.000 A 
ATOM     27 BR   UNL     1      -5.937  11.069  18.351  0.00  0.00    +0.000 Br
ATOM     28  O   UNL     1      -3.127  11.559  18.588  0.00  0.00    +0.000 OA
ENDBRANCH  22  23
ENDBRANCH  19  22
ENDBRANCH  18  19
ENDBRANCH  17  18
ENDBRANCH  16  17
ENDBRANCH  15  16
ENDBRANCH   1  15
TORSDOF 11
ENDMDL
MODEL 6
REMARK VINA RESULT:      -6.5      1.337      1.652
REMARK  Name = 
REMARK  16 active torsions:
REMARK  status: ('A' for Active; 'I' for Inactive)
REMARK    1  A    between atoms: C_1  and  C_2
REMARK    2  A    between atoms: C_4  and  O_5
REMARK    3  A    between atoms: O_5  and  C_6
REMARK    4  A    between atoms: C_6  and  C_7
REMARK    5  A    between atoms: C_7  and  C_8
REMARK    6  A    between atoms: C_8  and  C_9
REMARK    7  A    between atoms: C_9  and  C_10
REMARK    8  A    between atoms: C_10  and  C_11
REMARK    9  A    between atoms: C_11  and  N_12
REMARK   10  A    between atoms: N_12  and  C_13
REMARK   11  A    between atoms: N_12  and  C_14
REMARK   12  A    between atoms: N_12  and  C_15
REMARK   13  A    between atoms: C_15  and  C_16
REMARK   14  A    between atoms: C_22  and  C_23
REMARK   15  A    between atoms: C_23  and  C_24
REMARK   16  A    between atoms: C_23  and  C_25
REMARK                            x       y       z     vdW  Elec       q    Type
REMARK                         _______ _______ _______ _____ _____    ______ ____
ROOT
ATOM      1  C   UNL     1       0.640   9.208  21.006  0.00  0.00    +0.000 C 
ENDROOT
BRANCH   1   2
ATOM      2  C   UNL     1       0.987   9.586  19.569  0.00  0.00    +0.000 C 
BRANCH   2   3
ATOM      3  O   UNL     1       0.467  10.888  19.315  0.00  0.00    +0.000 OA
BRANCH   3   7
ATOM      4  C   UNL     1      -2.857   9.666  15.833  0.00  0.00    +0.000 C 
ATOM      5  C   UNL     1      -2.485  10.410  17.089  0.00  0.00    +0.000 A 
ATOM      6  C   UNL     1      -1.183  10.295  17.601  0.00  0.00    +0.000 A 
ATOM      7  C   UNL     1      -0.794  10.956  18.776  0.00  0.00    +0.000 A 
ATOM      8  C   UNL     1      -1.723  11.754  19.475  0.00  0.00    +0.000 A 
ATOM      9  C   UNL     1      -3.022  11.878  18.947  0.00  0.00    +0.000 A 
ATOM     10  C   UNL     1      -3.402  11.208  17.779  0.00  0.00    +0.000 A 
ATOM     11 CL   UNL     1      -5.021  11.407  17.220  0.00  0.00    +0.000 Cl
BRANCH   8  12
ATOM     12  C   UNL     1      -1.319  12.497  20.745  0.00  0.00    +0.000 C 
ATOM     13  C   UNL     1      -1.004  13.962  20.427  0.00  0.00    +0.000 C 
ATOM     14  C   UNL     1      -2.346  12.410  21.881  0.00  0.00    +0.000 C 
ENDBRANCH   8  12
ENDBRANCH   3   7
ENDBRANCH   2   3
ENDBRANCH   1   2
BRANCH   1  15
ATOM     15  C   UNL     1       0.746   7.704  21.262  0.00  0.00    +0.000 C 
BRANCH  15  16
ATOM     16  C   UNL     1       1.831   6.986  20.451  0.00  0.00    +0.000 C 
BRANCH  16  17
ATOM     17  C   UNL     1       1.814   5.459  20.565  0.00  0.00    +0.000 C 
BRANCH  17  18
ATOM     18  C   UNL     1       3.048   4.799  19.939  0.00  0.00    +0.000 C 
BRANCH  18  19
ATOM     19  N   UNL     1       2.694   3.719  18.898  0.00  0.00    +0.000 N 
ATOM     20  C   UNL     1       1.887   2.599  19.548  0.00  0.00    +0.000 C 
ATOM     21  C   UNL     1       1.912   4.334  17.740  0.00  0.00    +0.000 C 
BRANCH  19  22
ATOM     22  C   UNL     1       4.038   3.138  18.354  0.00  0.00    +0.000 C 
BRANCH  22  23
ATOM     23  C   UNL     1       4.822   4.052  17.476  0.00  0.00    +0.000 A 
ATOM     24  C   UNL     1       5.014   4.141  16.111  0.00  0.00    +0.000 A 
ATOM     25  C   UNL     1       5.947   5.190  15.907  0.00  0.00    +0.000 A 
ATOM     26  C   UNL     1       6.240   5.695  17.153  0.00  0.00    +0.000 A 
ATOM     27 BR   UNL     1       7.419   7.097  17.499  0.00  0.00    +0.000 Br
ATOM     28  O   UNL     1       5.559   5.009  18.110  0.00  0.00    +0.000 OA
ENDBRANCH  22  23
ENDBRANCH  19  22
ENDBRANCH  18  19
ENDBRANCH  17  18
ENDBRANCH  16  17
ENDBRANCH  15  16
ENDBRANCH   1  15
TORSDOF 11
ENDMDL
MODEL 7
REMARK VINA RESULT:      -6.5      1.579      1.868
REMARK  Name = 
REMARK  16 active torsions:
REMARK  status: ('A' for Active; 'I' for Inactive)
REMARK    1  A    between atoms: C_1  and  C_2
REMARK    2  A    between atoms: C_4  and  O_5
REMARK    3  A    between atoms: O_5  and  C_6
REMARK    4  A    between atoms: C_6  and  C_7
REMARK    5  A    between atoms: C_7  and  C_8
REMARK    6  A    between atoms: C_8  and  C_9
REMARK    7  A    between atoms: C_9  and  C_10
REMARK    8  A    between atoms: C_10  and  C_11
REMARK    9  A    between atoms: C_11  and  N_12
REMARK   10  A    between atoms: N_12  and  C_13
REMARK   11  A    between atoms: N_12  and  C_14
REMARK   12  A    between atoms: N_12  and  C_15
REMARK   13  A    between atoms: C_15  and  C_16
REMARK   14  A    between atoms: C_22  and  C_23
REMARK   15  A    between atoms: C_23  and  C_24
REMARK   16  A    between atoms: C_23  and  C_25
REMARK                            x       y       z     vdW  Elec       q    Type
REMARK                         _______ _______ _______ _____ _____    ______ ____
ROOT
ATOM      1  C   UNL     1       2.232   8.928  18.092  0.00  0.00    +0.000 C 
ENDROOT
BRANCH   1   2
ATOM      2  C   UNL     1       0.823   9.454  17.833  0.00  0.00    +0.000 C 
BRANCH   2   3
ATOM      3  O   UNL     1       0.554  10.485  18.779  0.00  0.00    +0.000 OA
BRANCH   3   7
ATOM      4  C   UNL     1      -3.928  11.180  16.755  0.00  0.00    +0.000 C 
ATOM      5  C   UNL     1      -2.970  11.334  17.908  0.00  0.00    +0.000 A 
ATOM      6  C   UNL     1      -1.663  10.837  17.791  0.00  0.00    +0.000 A 
ATOM      7  C   UNL     1      -0.740  10.942  18.843  0.00  0.00    +0.000 A 
ATOM      8  C   UNL     1      -1.120  11.554  20.055  0.00  0.00    +0.000 A 
ATOM      9  C   UNL     1      -2.428  12.064  20.159  0.00  0.00    +0.000 A 
ATOM     10  C   UNL     1      -3.343  11.946  19.108  0.00  0.00    +0.000 A 
ATOM     11 CL   UNL     1      -4.928  12.587  19.337  0.00  0.00    +0.000 Cl
BRANCH   8  12
ATOM     12  C   UNL     1      -0.129  11.696  21.206  0.00  0.00    +0.000 C 
ATOM     13  C   UNL     1      -0.357  13.020  21.943  0.00  0.00    +0.000 C 
ATOM     14  C   UNL     1      -0.142  10.528  22.198  0.00  0.00    +0.000 C 
ENDBRANCH   8  12
ENDBRANCH   3   7
ENDBRANCH   2   3
ENDBRANCH   1   2
BRANCH   1  15
ATOM     15  C   UNL     1       2.263   7.418  18.332  0.00  0.00    +0.000 C 
BRANCH  15  16
ATOM     16  C   UNL     1       2.376   7.001  19.803  0.00  0.00    +0.000 C 
BRANCH  16  17
ATOM     17  C   UNL     1       2.309   5.490  20.050  0.00  0.00    +0.000 C 
BRANCH  17  18
ATOM     18  C   UNL     1       2.122   4.683  18.761  0.00  0.00    +0.000 C 
BRANCH  18  19
ATOM     19  N   UNL     1       2.952   3.383  18.736  0.00  0.00    +0.000 N 
ATOM     20  C   UNL     1       2.702   2.569  20.002  0.00  0.00    +0.000 C 
ATOM     21  C   UNL     1       2.610   2.559  17.497  0.00  0.00    +0.000 C 
BRANCH  19  22
ATOM     22  C   UNL     1       4.457   3.793  18.675  0.00  0.00    +0.000 C 
BRANCH  22  23
ATOM     23  C   UNL     1       4.882   4.491  17.429  0.00  0.00    +0.000 A 
ATOM     24  C   UNL     1       4.945   5.816  17.044  0.00  0.00    +0.000 A 
ATOM     25  C   UNL     1       5.364   5.818  15.688  0.00  0.00    +0.000 A 
ATOM     26  C   UNL     1       5.559   4.501  15.341  0.00  0.00    +0.000 A 
ATOM     27 BR   UNL     1       6.114   3.897  13.668  0.00  0.00    +0.000 Br
ATOM     28  O   UNL     1       5.269   3.690  16.395  0.00  0.00    +0.000 OA
ENDBRANCH  22  23
ENDBRANCH  19  22
ENDBRANCH  18  19
ENDBRANCH  17  18
ENDBRANCH  16  17
ENDBRANCH  15  16
ENDBRANCH   1  15
TORSDOF 11
ENDMDL
MODEL 8
REMARK VINA RESULT:      -6.5      2.203      3.305
REMARK  Name = 
REMARK  16 active torsions:
REMARK  status: ('A' for Active; 'I' for Inactive)
REMARK    1  A    between atoms: C_1  and  C_2
REMARK    2  A    between atoms: C_4  and  O_5
REMARK    3  A    between atoms: O_5  and  C_6
REMARK    4  A    between atoms: C_6  and  C_7
REMARK    5  A    between atoms: C_7  and  C_8
REMARK    6  A    between atoms: C_8  and  C_9
REMARK    7  A    between atoms: C_9  and  C_10
REMARK    8  A    between atoms: C_10  and  C_11
REMARK    9  A    between atoms: C_11  and  N_12
REMARK   10  A    between atoms: N_12  and  C_13
REMARK   11  A    between atoms: N_12  and  C_14
REMARK   12  A    between atoms: N_12  and  C_15
REMARK   13  A    between atoms: C_15  and  C_16
REMARK   14  A    between atoms: C_22  and  C_23
REMARK   15  A    between atoms: C_23  and  C_24
REMARK   16  A    between atoms: C_23  and  C_25
REMARK                            x       y       z     vdW  Elec       q    Type
REMARK                         _______ _______ _______ _____ _____    ______ ____
ROOT
ATOM      1  C   UNL     1       2.211   7.954  18.183  0.00  0.00    +0.000 C 
ENDROOT
BRANCH   1   2
ATOM      2  C   UNL     1       1.965   9.433  18.467  0.00  0.00    +0.000 C 
BRANCH   2   3
ATOM      3  O   UNL     1       0.557   9.644  18.531  0.00  0.00    +0.000 OA
BRANCH   3   7
ATOM      4  C   UNL     1      -0.072   9.381  23.451  0.00  0.00    +0.000 C 
ATOM      5  C   UNL     1      -0.305  10.072  22.133  0.00  0.00    +0.000 A 
ATOM      6  C   UNL     1       0.237   9.525  20.959  0.00  0.00    +0.000 A 
ATOM      7  C   UNL     1       0.060  10.141  19.711  0.00  0.00    +0.000 A 
ATOM      8  C   UNL     1      -0.672  11.342  19.616  0.00  0.00    +0.000 A 
ATOM      9  C   UNL     1      -1.226  11.876  20.795  0.00  0.00    +0.000 A 
ATOM     10  C   UNL     1      -1.036  11.259  22.035  0.00  0.00    +0.000 A 
ATOM     11 CL   UNL     1      -1.740  12.000  23.425  0.00  0.00    +0.000 Cl
BRANCH   8  12
ATOM     12  C   UNL     1      -0.893  12.021  18.267  0.00  0.00    +0.000 C 
ATOM     13  C   UNL     1      -2.336  11.812  17.797  0.00  0.00    +0.000 C 
ATOM     14  C   UNL     1      -0.539  13.513  18.246  0.00  0.00    +0.000 C 
ENDBRANCH   8  12
ENDBRANCH   3   7
ENDBRANCH   2   3
ENDBRANCH   1   2
BRANCH   1  15
ATOM     15  C   UNL     1       2.504   7.150  19.450  0.00  0.00    +0.000 C 
BRANCH  15  16
ATOM     16  C   UNL     1       2.146   5.661  19.367  0.00  0.00    +0.000 C 
BRANCH  16  17
ATOM     17  C   UNL     1       3.020   4.742  20.226  0.00  0.00    +0.000 C 
BRANCH  17  18
ATOM     18  C   UNL     1       2.833   3.258  19.891  0.00  0.00    +0.000 C 
BRANCH  18  19
ATOM     19  N   UNL     1       3.534   2.839  18.584  0.00  0.00    +0.000 N 
ATOM     20  C   UNL     1       3.866   1.350  18.612  0.00  0.00    +0.000 C 
ATOM     21  C   UNL     1       2.652   3.164  17.381  0.00  0.00    +0.000 C 
BRANCH  19  22
ATOM     22  C   UNL     1       4.858   3.661  18.482  0.00  0.00    +0.000 C 
BRANCH  22  23
ATOM     23  C   UNL     1       5.081   4.359  17.184  0.00  0.00    +0.000 A 
ATOM     24  C   UNL     1       4.895   5.656  16.746  0.00  0.00    +0.000 A 
ATOM     25  C   UNL     1       5.223   5.661  15.366  0.00  0.00    +0.000 A 
ATOM     26  C   UNL     1       5.618   4.381  15.056  0.00  0.00    +0.000 A 
ATOM     27 BR   UNL     1       6.163   3.798  13.372  0.00  0.00    +0.000 Br
ATOM     28  O   UNL     1       5.535   3.585  16.157  0.00  0.00    +0.000 OA
ENDBRANCH  22  23
ENDBRANCH  19  22
ENDBRANCH  18  19
ENDBRANCH  17  18
ENDBRANCH  16  17
ENDBRANCH  15  16
ENDBRANCH   1  15
TORSDOF 11
ENDMDL
MODEL 9
REMARK VINA RESULT:      -6.5      1.664      2.813
REMARK  Name = 
REMARK  16 active torsions:
REMARK  status: ('A' for Active; 'I' for Inactive)
REMARK    1  A    between atoms: C_1  and  C_2
REMARK    2  A    between atoms: C_4  and  O_5
REMARK    3  A    between atoms: O_5  and  C_6
REMARK    4  A    between atoms: C_6  and  C_7
REMARK    5  A    between atoms: C_7  and  C_8
REMARK    6  A    between atoms: C_8  and  C_9
REMARK    7  A    between atoms: C_9  and  C_10
REMARK    8  A    between atoms: C_10  and  C_11
REMARK    9  A    between atoms: C_11  and  N_12
REMARK   10  A    between atoms: N_12  and  C_13
REMARK   11  A    between atoms: N_12  and  C_14
REMARK   12  A    between atoms: N_12  and  C_15
REMARK   13  A    between atoms: C_15  and  C_16
REMARK   14  A    between atoms: C_22  and  C_23
REMARK   15  A    between atoms: C_23  and  C_24
REMARK   16  A    between atoms: C_23  and  C_25
REMARK                            x       y       z     vdW  Elec       q    Type
REMARK                         _______ _______ _______ _____ _____    ______ ____
ROOT
ATOM      1  C   UNL     1       1.745   8.350  17.766  0.00  0.00    +0.000 C 
ENDROOT
BRANCH   1   2
ATOM      2  C   UNL     1       2.148   9.821  17.774  0.00  0.00    +0.000 C 
BRANCH   2   3
ATOM      3  O   UNL     1       1.623  10.419  18.955  0.00  0.00    +0.000 OA
BRANCH   3   7
ATOM      4  C   UNL     1       2.692  15.218  18.250  0.00  0.00    +0.000 C 
ATOM      5  C   UNL     1       1.698  14.124  18.544  0.00  0.00    +0.000 A 
ATOM      6  C   UNL     1       2.136  12.792  18.611  0.00  0.00    +0.000 A 
ATOM      7  C   UNL     1       1.247  11.737  18.867  0.00  0.00    +0.000 A 
ATOM      8  C   UNL     1      -0.124  12.003  19.056  0.00  0.00    +0.000 A 
ATOM      9  C   UNL     1      -0.554  13.343  19.003  0.00  0.00    +0.000 A 
ATOM     10  C   UNL     1       0.340  14.386  18.739  0.00  0.00    +0.000 A 
ATOM     11 CL   UNL     1      -0.285  15.992  18.676  0.00  0.00    +0.000 Cl
BRANCH   8  12
ATOM     12  C   UNL     1      -1.109  10.876  19.353  0.00  0.00    +0.000 C 
ATOM     13  C   UNL     1      -1.520  10.173  18.056  0.00  0.00    +0.000 C 
ATOM     14  C   UNL     1      -0.604   9.850  20.375  0.00  0.00    +0.000 C 
ENDBRANCH   8  12
ENDBRANCH   3   7
ENDBRANCH   2   3
ENDBRANCH   1   2
BRANCH   1  15
ATOM     15  C   UNL     1       2.724   7.466  18.541  0.00  0.00    +0.000 C 
BRANCH  15  16
ATOM     16  C   UNL     1       2.251   7.053  19.940  0.00  0.00    +0.000 C 
BRANCH  16  17
ATOM     17  C   UNL     1       1.622   5.659  20.020  0.00  0.00    +0.000 C 
BRANCH  17  18
ATOM     18  C   UNL     1       2.484   4.658  20.797  0.00  0.00    +0.000 C 
BRANCH  18  19
ATOM     19  N   UNL     1       2.154   3.189  20.465  0.00  0.00    +0.000 N 
ATOM     20  C   UNL     1       1.755   2.435  21.729  0.00  0.00    +0.000 C 
ATOM     21  C   UNL     1       1.036   3.118  19.428  0.00  0.00    +0.000 C 
BRANCH  19  22
ATOM     22  C   UNL     1       3.446   2.546  19.866  0.00  0.00    +0.000 C 
BRANCH  22  23
ATOM     23  C   UNL     1       4.206   3.402  18.913  0.00  0.00    +0.000 A 
ATOM     24  C   UNL     1       4.018   3.773  17.595  0.00  0.00    +0.000 A 
ATOM     25  C   UNL     1       5.150   4.547  17.234  0.00  0.00    +0.000 A 
ATOM     26  C   UNL     1       5.940   4.627  18.357  0.00  0.00    +0.000 A 
ATOM     27 BR   UNL     1       7.569   5.525  18.469  0.00  0.00    +0.000 Br
ATOM     28  O   UNL     1       5.371   3.934  19.381  0.00  0.00    +0.000 OA
ENDBRANCH  22  23
ENDBRANCH  19  22
ENDBRANCH  18  19
ENDBRANCH  17  18
ENDBRANCH  16  17
ENDBRANCH  15  16
ENDBRANCH   1  15
TORSDOF 11
ENDMDL
